MODEL        1
REMARK 921   NORMALIZED FREE ENERGY PREDICTED BY IDOCK:   -6.57 KCAL/MOL
REMARK 922        TOTAL FREE ENERGY PREDICTED BY IDOCK:   -7.84 KCAL/MOL
REMARK 923 INTER-LIGAND FREE ENERGY PREDICTED BY IDOCK:   -7.34 KCAL/MOL
REMARK 924 INTRA-LIGAND FREE ENERGY PREDICTED BY IDOCK:   -0.51 KCAL/MOL
REMARK 927      BINDING AFFINITY PREDICTED BY RF-SCORE:    0.00 PKD
ROOT
HETATM    1  C   UNL     1      -8.076   9.492  67.263  1.00  0.00    -0.110 C  
HETATM    2  N   UNL     1      -8.895  10.719  66.947  1.00  0.00    -0.138 N  
HETATM    3  C   UNL     2     -12.033  12.845  67.951  1.00  0.00    -0.282 C  
HETATM    4  C   UNL     1      -8.787  11.575  68.193  1.00  0.00    -0.165 C  
HETATM    5  C   UNL     1     -10.316  10.241  66.652  1.00  0.00    -0.219 C  
HETATM    6  N   UNL     2     -11.537  13.614  66.819  1.00  0.00    -0.346 N  
HETATM    7  C   UNL     2      -9.403  16.519  66.141  1.00  0.00    -0.304 C  
HETATM    8  O   UNL     2      -9.565  14.389  67.743  1.00  0.00    -0.209 OA 
HETATM    9  C   UNL     2     -12.093  13.436  65.579  1.00  0.00    -0.428 A  
HETATM   10  N   UNL     2     -12.650  12.316  65.078  1.00  0.00    -0.541 NA 
HETATM   11  C   UNL     2     -11.925  14.351  64.577  1.00  0.00    -0.472 A  
HETATM   12  C   UNL     2     -10.465  14.498  66.903  1.00  0.00    -0.269 C  
HETATM   13  N   UNL     2     -12.409  13.791  63.438  1.00  0.00    -1.100 NA 
HETATM   14  C   UNL     2     -11.257  15.605  64.810  1.00  0.00    -0.382 C  
HETATM   15  N   UNL     2     -10.426  15.518  65.942  1.00  0.00    -0.322 N  
HETATM   16  H   UNL     2     -12.419  14.215  62.509  1.00  0.00     0.000 HD 
HETATM   17  C   UNL     2     -12.875  12.563  63.767  1.00  0.00    -0.196 A  
HETATM   18  O   UNL     2     -11.300  16.652  64.161  1.00  0.00    -1.141 OA 
ENDROOT
BRANCH   2  19
HETATM   19  C   UNL     1      -8.482  11.459  65.643  1.00  0.00     0.109 C  
BRANCH  19  20
HETATM   20  C   UNL     1      -9.317  11.151  64.395  1.00  0.00    -0.159 C  
HETATM   21  O   UNL     1      -9.441  12.291  63.549  1.00  0.00    -0.663 OA 
HETATM   22  H   UNL     1      -9.959  12.101  62.776  1.00  0.00     0.000 HD 
ENDBRANCH  19  20
ENDBRANCH   2  19
TORSDOF 2
ENDMDL
MODEL        2
REMARK 921   NORMALIZED FREE ENERGY PREDICTED BY IDOCK:   -5.90 KCAL/MOL
REMARK 922        TOTAL FREE ENERGY PREDICTED BY IDOCK:   -7.10 KCAL/MOL
REMARK 923 INTER-LIGAND FREE ENERGY PREDICTED BY IDOCK:   -6.70 KCAL/MOL
REMARK 924 INTRA-LIGAND FREE ENERGY PREDICTED BY IDOCK:   -0.40 KCAL/MOL
REMARK 927      BINDING AFFINITY PREDICTED BY RF-SCORE:    0.00 PKD
ROOT
HETATM    1  C   UNL     1     -12.239  12.180  63.934  1.00  0.00    -0.489 C  
HETATM    2  N   UNL     1     -11.666  13.099  64.985  1.00  0.00    -0.323 N  
HETATM    3  C   UNL     2      -9.018  13.458  67.853  1.00  0.00    -0.201 C  
HETATM    4  C   UNL     1     -10.217  13.281  64.577  1.00  0.00    -0.310 C  
HETATM    5  C   UNL     1     -11.842  12.398  66.330  1.00  0.00    -0.354 C  
HETATM    6  N   UNL     2      -9.651  14.769  67.904  1.00  0.00    -0.208 N  
HETATM    7  C   UNL     2      -9.150  18.160  66.600  1.00  0.00    -0.282 C  
HETATM    8  O   UNL     2      -8.926  15.600  65.872  1.00  0.00    -0.320 OA 
HETATM    9  C   UNL     2     -10.635  15.014  68.825  1.00  0.00    -0.240 A  
HETATM   10  N   UNL     2     -11.512  14.135  69.349  1.00  0.00    -0.273 NA 
HETATM   11  C   UNL     2     -11.011  16.287  69.156  1.00  0.00    -0.324 A  
HETATM   12  C   UNL     2      -9.355  15.798  67.015  1.00  0.00    -0.220 C  
HETATM   13  N   UNL     2     -12.131  16.188  69.918  1.00  0.00    -0.288 NA 
HETATM   14  C   UNL     2     -10.308  17.434  68.643  1.00  0.00    -0.364 C  
HETATM   15  N   UNL     2      -9.612  17.100  67.466  1.00  0.00    -0.251 N  
HETATM   16  H   UNL     2     -12.665  16.962  70.315  1.00  0.00     0.000 HD 
HETATM   17  C   UNL     2     -12.405  14.869  70.051  1.00  0.00    -0.312 A  
HETATM   18  O   UNL     2     -10.277  18.591  69.065  1.00  0.00    -0.356 OA 
ENDROOT
BRANCH   2  19
HETATM   19  C   UNL     1     -12.436  14.438  65.167  1.00  0.00    -0.357 C  
BRANCH  19  20
HETATM   20  C   UNL     1     -12.395  15.409  63.982  1.00  0.00     0.116 C  
HETATM   21  O   UNL     1     -11.465  16.467  64.198  1.00  0.00    -1.346 OA 
HETATM   22  H   UNL     1     -11.440  17.070  63.465  1.00  0.00     0.000 HD 
ENDBRANCH  19  20
ENDBRANCH   2  19
TORSDOF 2
ENDMDL
MODEL        3
REMARK 921   NORMALIZED FREE ENERGY PREDICTED BY IDOCK:   -5.84 KCAL/MOL
REMARK 922        TOTAL FREE ENERGY PREDICTED BY IDOCK:   -7.03 KCAL/MOL
REMARK 923 INTER-LIGAND FREE ENERGY PREDICTED BY IDOCK:   -6.77 KCAL/MOL
REMARK 924 INTRA-LIGAND FREE ENERGY PREDICTED BY IDOCK:   -0.27 KCAL/MOL
REMARK 927      BINDING AFFINITY PREDICTED BY RF-SCORE:    0.00 PKD
ROOT
HETATM    1  C   UNL     1     -11.048  13.107  66.211  1.00  0.00    -0.287 C  
HETATM    2  N   UNL     1     -10.243  14.360  66.457  1.00  0.00    -0.268 N  
HETATM    3  C   UNL     2      -8.524  16.603  69.175  1.00  0.00    -0.115 C  
HETATM    4  C   UNL     1      -8.941  13.860  67.053  1.00  0.00    -0.240 C  
HETATM    5  C   UNL     1     -11.058  15.232  67.409  1.00  0.00    -0.326 C  
HETATM    6  N   UNL     2      -8.219  17.359  67.968  1.00  0.00    -0.223 N  
HETATM    7  C   UNL     2      -5.516  17.725  65.515  1.00  0.00    -0.039 C  
HETATM    8  O   UNL     2      -6.773  15.863  66.960  1.00  0.00    -0.243 OA 
HETATM    9  C   UNL     2      -8.998  18.431  67.621  1.00  0.00    -0.274 A  
HETATM   10  N   UNL     2     -10.307  18.616  67.878  1.00  0.00    -0.389 NA 
HETATM   11  C   UNL     2      -8.570  19.372  66.725  1.00  0.00    -0.311 A  
HETATM   12  C   UNL     2      -7.195  17.017  67.088  1.00  0.00    -0.172 C  
HETATM   13  N   UNL     2      -9.635  20.167  66.441  1.00  0.00    -0.551 NA 
HETATM   14  C   UNL     2      -7.233  19.349  66.193  1.00  0.00    -0.267 C  
HETATM   15  N   UNL     2      -6.682  18.058  66.302  1.00  0.00    -0.222 N  
HETATM   16  H   UNL     2      -9.646  20.958  65.796  1.00  0.00     0.000 HD 
HETATM   17  C   UNL     2     -10.677  19.712  67.175  1.00  0.00    -0.464 A  
HETATM   18  O   UNL     2      -6.581  20.251  65.665  1.00  0.00    -0.227 OA 
ENDROOT
BRANCH   2  19
HETATM   19  C   UNL     1     -10.050  15.265  65.207  1.00  0.00    -0.327 C  
BRANCH  19  20
HETATM   20  C   UNL     1     -11.039  16.426  65.053  1.00  0.00    -0.208 C  
HETATM   21  O   UNL     1     -11.581  16.486  63.736  1.00  0.00    -1.617 OA 
HETATM   22  H   UNL     1     -12.193  17.205  63.640  1.00  0.00     0.000 HD 
ENDBRANCH  19  20
ENDBRANCH   2  19
TORSDOF 2
ENDMDL
MODEL        4
REMARK 921   NORMALIZED FREE ENERGY PREDICTED BY IDOCK:   -5.82 KCAL/MOL
REMARK 922        TOTAL FREE ENERGY PREDICTED BY IDOCK:   -7.01 KCAL/MOL
REMARK 923 INTER-LIGAND FREE ENERGY PREDICTED BY IDOCK:   -6.75 KCAL/MOL
REMARK 924 INTRA-LIGAND FREE ENERGY PREDICTED BY IDOCK:   -0.26 KCAL/MOL
REMARK 927      BINDING AFFINITY PREDICTED BY RF-SCORE:    0.00 PKD
ROOT
HETATM    1  C   UNL     1     -12.243  12.615  63.367  1.00  0.00    -0.517 C  
HETATM    2  N   UNL     1     -11.530  12.927  64.660  1.00  0.00    -0.313 N  
HETATM    3  C   UNL     2     -11.168  11.980  68.448  1.00  0.00    -0.262 C  
HETATM    4  C   UNL     1     -10.777  11.654  64.992  1.00  0.00    -0.296 C  
HETATM    5  C   UNL     1     -12.605  13.288  65.683  1.00  0.00    -0.406 C  
HETATM    6  N   UNL     2     -10.208  13.071  68.349  1.00  0.00    -0.247 N  
HETATM    7  C   UNL     2      -6.616  13.587  67.817  1.00  0.00    -0.170 C  
HETATM    8  O   UNL     2      -8.640  12.053  66.991  1.00  0.00    -0.174 OA 
HETATM    9  C   UNL     2     -10.573  14.335  68.732  1.00  0.00    -0.252 A  
HETATM   10  N   UNL     2     -11.801  14.888  68.688  1.00  0.00    -0.320 NA 
HETATM   11  C   UNL     2      -9.645  15.304  68.994  1.00  0.00    -0.237 A  
HETATM   12  C   UNL     2      -8.929  12.922  67.820  1.00  0.00    -0.191 C  
HETATM   13  N   UNL     2     -10.318  16.476  69.136  1.00  0.00    -0.296 NA 
HETATM   14  C   UNL     2      -8.235  15.011  68.998  1.00  0.00    -0.187 C  
HETATM   15  N   UNL     2      -7.971  13.851  68.246  1.00  0.00    -0.139 N  
HETATM   16  H   UNL     2      -9.909  17.392  69.326  1.00  0.00     0.000 HD 
HETATM   17  C   UNL     2     -11.633  16.199  68.977  1.00  0.00    -0.298 A  
HETATM   18  O   UNL     2      -7.304  15.632  69.515  1.00  0.00    -0.208 OA 
ENDROOT
BRANCH   2  19
HETATM   19  C   UNL     1     -10.628  14.193  64.617  1.00  0.00    -0.368 C  
BRANCH  19  20
HETATM   20  C   UNL     1     -11.320  15.528  64.913  1.00  0.00    -0.335 C  
HETATM   21  O   UNL     1     -11.612  16.247  63.718  1.00  0.00    -1.539 OA 
HETATM   22  H   UNL     1     -12.040  17.075  63.901  1.00  0.00     0.000 HD 
ENDBRANCH  19  20
ENDBRANCH   2  19
TORSDOF 2
ENDMDL
MODEL        5
REMARK 921   NORMALIZED FREE ENERGY PREDICTED BY IDOCK:   -5.52 KCAL/MOL
REMARK 922        TOTAL FREE ENERGY PREDICTED BY IDOCK:   -6.67 KCAL/MOL
REMARK 923 INTER-LIGAND FREE ENERGY PREDICTED BY IDOCK:   -6.25 KCAL/MOL
REMARK 924 INTRA-LIGAND FREE ENERGY PREDICTED BY IDOCK:   -0.41 KCAL/MOL
REMARK 927      BINDING AFFINITY PREDICTED BY RF-SCORE:    0.00 PKD
ROOT
HETATM    1  C   UNL     1     -10.221  16.920  68.849  1.00  0.00    -0.314 C  
HETATM    2  N   UNL     1     -10.364  15.647  68.051  1.00  0.00    -0.241 N  
HETATM    3  C   UNL     2     -11.620  11.933  68.106  1.00  0.00    -0.334 C  
HETATM    4  C   UNL     1     -11.860  15.416  67.975  1.00  0.00    -0.110 C  
HETATM    5  C   UNL     1      -9.612  14.558  68.813  1.00  0.00    -0.193 C  
HETATM    6  N   UNL     2     -11.097  12.022  66.749  1.00  0.00    -0.288 N  
HETATM    7  C   UNL     2     -12.281  12.695  63.343  1.00  0.00    -0.517 C  
HETATM    8  O   UNL     2     -12.637  13.502  65.864  1.00  0.00    -0.446 OA 
HETATM    9  C   UNL     2      -9.838  11.559  66.473  1.00  0.00    -0.202 A  
HETATM   10  N   UNL     2      -8.775  11.518  67.300  1.00  0.00    -0.147 NA 
HETATM   11  C   UNL     2      -9.433  11.293  65.194  1.00  0.00    -0.215 A  
HETATM   12  C   UNL     2     -11.790  12.617  65.698  1.00  0.00    -0.437 C  
HETATM   13  N   UNL     2      -8.095  11.061  65.238  1.00  0.00    -0.361 NA 
HETATM   14  C   UNL     2     -10.349  11.370  64.086  1.00  0.00    -0.344 C  
HETATM   15  N   UNL     2     -11.445  12.191  64.409  1.00  0.00    -0.336 N  
HETATM   16  H   UNL     2      -7.490  10.844  64.445  1.00  0.00     0.000 HD 
HETATM   17  C   UNL     2      -7.716  11.172  66.533  1.00  0.00    -0.146 A  
HETATM   18  O   UNL     2     -10.269  10.867  62.964  1.00  0.00    -0.292 OA 
ENDROOT
BRANCH   2  19
HETATM   19  C   UNL     1      -9.665  15.669  66.662  1.00  0.00    -0.249 C  
BRANCH  19  20
HETATM   20  C   UNL     1     -10.316  16.550  65.590  1.00  0.00    -0.322 C  
HETATM   21  O   UNL     1     -10.817  15.776  64.503  1.00  0.00    -0.760 OA 
HETATM   22  H   UNL     1     -11.220  16.322  63.839  1.00  0.00     0.000 HD 
ENDBRANCH  19  20
ENDBRANCH   2  19
TORSDOF 2
ENDMDL
MODEL        6
REMARK 921   NORMALIZED FREE ENERGY PREDICTED BY IDOCK:   -5.49 KCAL/MOL
REMARK 922        TOTAL FREE ENERGY PREDICTED BY IDOCK:   -6.63 KCAL/MOL
REMARK 923 INTER-LIGAND FREE ENERGY PREDICTED BY IDOCK:   -6.13 KCAL/MOL
REMARK 924 INTRA-LIGAND FREE ENERGY PREDICTED BY IDOCK:   -0.51 KCAL/MOL
REMARK 927      BINDING AFFINITY PREDICTED BY RF-SCORE:    0.00 PKD
ROOT
HETATM    1  C   UNL     1      -8.499   8.231  69.046  1.00  0.00    -0.131 C  
HETATM    2  N   UNL     1      -9.051   9.454  68.356  1.00  0.00    -0.128 N  
HETATM    3  C   UNL     2      -8.187  12.970  66.851  1.00  0.00     0.021 C  
HETATM    4  C   UNL     1      -8.341   9.484  67.017  1.00  0.00    -0.124 C  
HETATM    5  C   UNL     1      -8.729  10.651  69.248  1.00  0.00    -0.077 C  
HETATM    6  N   UNL     2      -9.623  12.918  66.611  1.00  0.00    -0.252 N  
HETATM    7  C   UNL     2     -11.974  12.014  63.945  1.00  0.00    -0.443 C  
HETATM    8  O   UNL     2      -9.666  11.227  65.035  1.00  0.00    -0.234 OA 
HETATM    9  C   UNL     2     -10.481  13.537  67.482  1.00  0.00    -0.237 A  
HETATM   10  N   UNL     2     -10.312  13.738  68.803  1.00  0.00    -0.224 NA 
HETATM   11  C   UNL     2     -11.773  13.823  67.137  1.00  0.00    -0.385 A  
HETATM   12  C   UNL     2     -10.199  12.212  65.558  1.00  0.00    -0.265 C  
HETATM   13  N   UNL     2     -12.408  14.231  68.267  1.00  0.00    -0.580 NA 
HETATM   14  C   UNL     2     -12.261  13.600  65.801  1.00  0.00    -0.464 C  
HETATM   15  N   UNL     2     -11.462  12.650  65.138  1.00  0.00    -0.314 N  
HETATM   16  H   UNL     2     -13.388  14.507  68.347  1.00  0.00     0.000 HD 
HETATM   17  C   UNL     2     -11.495  14.202  69.266  1.00  0.00    -0.292 A  
HETATM   18  O   UNL     2     -13.241  14.082  65.230  1.00  0.00    -0.782 OA 
ENDROOT
BRANCH   2  19
HETATM   19  C   UNL     1     -10.601   9.492  68.241  1.00  0.00    -0.216 C  
BRANCH  19  20
HETATM   20  C   UNL     1     -11.335  10.371  69.260  1.00  0.00    -0.235 C  
HETATM   21  O   UNL     1     -12.534  10.920  68.718  1.00  0.00    -0.767 OA 
HETATM   22  H   UNL     1     -12.988  11.465  69.348  1.00  0.00     0.000 HD 
ENDBRANCH  19  20
ENDBRANCH   2  19
TORSDOF 2
ENDMDL
MODEL        7
REMARK 921   NORMALIZED FREE ENERGY PREDICTED BY IDOCK:   -5.48 KCAL/MOL
REMARK 922        TOTAL FREE ENERGY PREDICTED BY IDOCK:   -6.63 KCAL/MOL
REMARK 923 INTER-LIGAND FREE ENERGY PREDICTED BY IDOCK:   -6.33 KCAL/MOL
REMARK 924 INTRA-LIGAND FREE ENERGY PREDICTED BY IDOCK:   -0.30 KCAL/MOL
REMARK 927      BINDING AFFINITY PREDICTED BY RF-SCORE:    0.00 PKD
ROOT
HETATM    1  C   UNL     1     -11.738  13.066  65.587  1.00  0.00    -0.375 C  
HETATM    2  N   UNL     1     -10.854  14.101  66.239  1.00  0.00    -0.297 N  
HETATM    3  C   UNL     2      -9.651  15.627  69.644  1.00  0.00    -0.260 C  
HETATM    4  C   UNL     1      -9.865  13.293  67.054  1.00  0.00    -0.242 C  
HETATM    5  C   UNL     1     -11.763  14.992  67.083  1.00  0.00    -0.215 C  
HETATM    6  N   UNL     2      -8.907  16.451  68.701  1.00  0.00    -0.223 N  
HETATM    7  C   UNL     2      -5.600  16.586  67.119  1.00  0.00    -0.111 C  
HETATM    8  O   UNL     2      -7.481  14.839  67.858  1.00  0.00    -0.116 OA 
HETATM    9  C   UNL     2      -9.385  17.687  68.352  1.00  0.00    -0.289 A  
HETATM   10  N   UNL     2     -10.670  18.087  68.293  1.00  0.00    -0.273 NA 
HETATM   11  C   UNL     2      -8.585  18.629  67.767  1.00  0.00    -0.275 A  
HETATM   12  C   UNL     2      -7.741  16.028  68.067  1.00  0.00    -0.133 C  
HETATM   13  N   UNL     2      -9.393  19.643  67.359  1.00  0.00    -0.314 NA 
HETATM   14  C   UNL     2      -7.171  18.414  67.600  1.00  0.00    -0.214 C  
HETATM   15  N   UNL     2      -6.876  17.039  67.626  1.00  0.00    -0.135 N  
HETATM   16  H   UNL     2      -9.102  20.493  66.876  1.00  0.00     0.000 HD 
HETATM   17  C   UNL     2     -10.656  19.310  67.715  1.00  0.00    -0.410 A  
HETATM   18  O   UNL     2      -6.268  19.232  67.416  1.00  0.00    -0.189 OA 
ENDROOT
BRANCH   2  19
HETATM   19  C   UNL     1     -10.182  15.097  65.251  1.00  0.00    -0.368 C  
BRANCH  19  20
HETATM   20  C   UNL     1     -10.884  16.448  65.070  1.00  0.00    -0.273 C  
HETATM   21  O   UNL     1     -11.522  16.545  63.799  1.00  0.00    -1.615 OA 
HETATM   22  H   UNL     1     -11.957  17.382  63.686  1.00  0.00     0.000 HD 
ENDBRANCH  19  20
ENDBRANCH   2  19
TORSDOF 2
ENDMDL
MODEL        8
REMARK 921   NORMALIZED FREE ENERGY PREDICTED BY IDOCK:   -5.37 KCAL/MOL
REMARK 922        TOTAL FREE ENERGY PREDICTED BY IDOCK:   -6.50 KCAL/MOL
REMARK 923 INTER-LIGAND FREE ENERGY PREDICTED BY IDOCK:   -6.00 KCAL/MOL
REMARK 924 INTRA-LIGAND FREE ENERGY PREDICTED BY IDOCK:   -0.50 KCAL/MOL
REMARK 927      BINDING AFFINITY PREDICTED BY RF-SCORE:    0.00 PKD
ROOT
HETATM    1  C   UNL     1      -5.451  18.166  67.974  1.00  0.00    -0.153 C  
HETATM    2  N   UNL     1      -6.848  17.623  67.801  1.00  0.00    -0.177 N  
HETATM    3  C   UNL     2     -10.627  18.548  67.316  1.00  0.00    -0.413 C  
HETATM    4  C   UNL     1      -7.276  18.113  66.432  1.00  0.00    -0.247 C  
HETATM    5  C   UNL     1      -7.688  18.186  68.945  1.00  0.00    -0.199 C  
HETATM    6  N   UNL     2     -10.705  17.093  67.330  1.00  0.00    -0.291 N  
HETATM    7  C   UNL     2     -10.774  14.282  64.975  1.00  0.00    -0.420 C  
HETATM    8  O   UNL     2      -9.603  16.654  65.346  1.00  0.00    -0.454 OA 
HETATM    9  C   UNL     2     -11.045  16.441  68.486  1.00  0.00    -0.357 A  
HETATM   10  N   UNL     2     -10.811  16.833  69.753  1.00  0.00    -0.265 NA 
HETATM   11  C   UNL     2     -11.471  15.142  68.480  1.00  0.00    -0.320 A  
HETATM   12  C   UNL     2     -10.389  16.299  66.232  1.00  0.00    -0.326 C  
HETATM   13  N   UNL     2     -11.521  14.731  69.774  1.00  0.00    -0.277 NA 
HETATM   14  C   UNL     2     -11.699  14.432  67.248  1.00  0.00    -0.404 C  
HETATM   15  N   UNL     2     -10.981  15.029  66.195  1.00  0.00    -0.332 N  
HETATM   16  H   UNL     2     -11.791  13.804  70.107  1.00  0.00     0.000 HD 
HETATM   17  C   UNL     2     -11.146  15.783  70.539  1.00  0.00    -0.365 A  
HETATM   18  O   UNL     2     -12.371  13.421  67.035  1.00  0.00    -0.311 OA 
ENDROOT
BRANCH   2  19
HETATM   19  C   UNL     1      -6.974  16.083  67.979  1.00  0.00    -0.127 C  
BRANCH  19  20
HETATM   20  C   UNL     1      -7.410  15.595  69.365  1.00  0.00    -0.216 C  
HETATM   21  O   UNL     1      -8.221  14.426  69.283  1.00  0.00    -0.345 OA 
HETATM   22  H   UNL     1      -8.491  14.124  70.142  1.00  0.00     0.000 HD 
ENDBRANCH  19  20
ENDBRANCH   2  19
TORSDOF 2
ENDMDL
MODEL        9
REMARK 921   NORMALIZED FREE ENERGY PREDICTED BY IDOCK:   -5.34 KCAL/MOL
REMARK 922        TOTAL FREE ENERGY PREDICTED BY IDOCK:   -6.47 KCAL/MOL
REMARK 923 INTER-LIGAND FREE ENERGY PREDICTED BY IDOCK:   -6.23 KCAL/MOL
REMARK 924 INTRA-LIGAND FREE ENERGY PREDICTED BY IDOCK:   -0.24 KCAL/MOL
REMARK 927      BINDING AFFINITY PREDICTED BY RF-SCORE:    0.00 PKD
ROOT
HETATM    1  C   UNL     1     -11.576  15.836  70.748  1.00  0.00    -0.398 C  
HETATM    2  N   UNL     1     -11.165  15.288  69.404  1.00  0.00    -0.265 N  
HETATM    3  C   UNL     2      -8.662  15.647  66.407  1.00  0.00    -0.318 C  
HETATM    4  C   UNL     1      -9.747  14.794  69.616  1.00  0.00     0.125 C  
HETATM    5  C   UNL     1     -11.271  16.438  68.404  1.00  0.00    -0.324 C  
HETATM    6  N   UNL     2      -9.476  14.530  65.947  1.00  0.00    -0.239 N  
HETATM    7  C   UNL     2      -9.431  10.862  65.946  1.00  0.00    -0.207 C  
HETATM    8  O   UNL     2      -8.829  12.947  67.503  1.00  0.00    -0.171 OA 
HETATM    9  C   UNL     2     -10.507  14.753  65.073  1.00  0.00    -0.416 A  
HETATM   10  N   UNL     2     -11.262  15.862  64.954  1.00  0.00    -0.377 NA 
HETATM   11  C   UNL     2     -11.067  13.738  64.347  1.00  0.00    -0.345 A  
HETATM   12  C   UNL     2      -9.308  13.223  66.398  1.00  0.00    -0.174 C  
HETATM   13  N   UNL     2     -12.180  14.240  63.750  1.00  0.00    -1.019 NA 
HETATM   14  C   UNL     2     -10.522  12.406  64.374  1.00  0.00    -0.344 C  
HETATM   15  N   UNL     2      -9.758  12.210  65.540  1.00  0.00    -0.218 N  
HETATM   16  H   UNL     2     -12.828  13.731  63.147  1.00  0.00     0.000 HD 
HETATM   17  C   UNL     2     -12.267  15.543  64.106  1.00  0.00    -0.004 A  
HETATM   18  O   UNL     2     -10.666  11.480  63.573  1.00  0.00    -0.381 OA 
ENDROOT
BRANCH   2  19
HETATM   19  C   UNL     1     -12.120  14.208  68.821  1.00  0.00    -0.291 C  
BRANCH  19  20
HETATM   20  C   UNL     1     -11.757  12.750  69.122  1.00  0.00    -0.322 C  
HETATM   21  O   UNL     1     -12.052  11.895  68.020  1.00  0.00    -0.541 OA 
HETATM   22  H   UNL     1     -11.828  10.991  68.206  1.00  0.00     0.000 HD 
ENDBRANCH  19  20
ENDBRANCH   2  19
TORSDOF 2
ENDMDL
MODEL       10
REMARK 921   NORMALIZED FREE ENERGY PREDICTED BY IDOCK:   -5.34 KCAL/MOL
REMARK 922        TOTAL FREE ENERGY PREDICTED BY IDOCK:   -6.47 KCAL/MOL
REMARK 923 INTER-LIGAND FREE ENERGY PREDICTED BY IDOCK:   -6.25 KCAL/MOL
REMARK 924 INTRA-LIGAND FREE ENERGY PREDICTED BY IDOCK:   -0.22 KCAL/MOL
REMARK 927      BINDING AFFINITY PREDICTED BY RF-SCORE:    0.00 PKD
ROOT
HETATM    1  C   UNL     1     -11.333  15.862  64.207  1.00  0.00    -0.171 C  
HETATM    2  N   UNL     1     -11.207  15.003  65.442  1.00  0.00    -0.354 N  
HETATM    3  C   UNL     2      -8.759  13.640  68.184  1.00  0.00    -0.177 C  
HETATM    4  C   UNL     1     -10.772  15.966  66.529  1.00  0.00    -0.258 C  
HETATM    5  C   UNL     1     -10.173  13.923  65.128  1.00  0.00    -0.358 C  
HETATM    6  N   UNL     2     -10.005  13.011  68.598  1.00  0.00    -0.163 N  
HETATM    7  C   UNL     2     -12.782  13.585  70.925  1.00  0.00    -0.291 C  
HETATM    8  O   UNL     2     -11.165  14.899  69.254  1.00  0.00    -0.256 OA 
HETATM    9  C   UNL     2     -10.267  11.716  68.233  1.00  0.00    -0.199 A  
HETATM   10  N   UNL     2      -9.850  11.071  67.127  1.00  0.00    -0.181 NA 
HETATM   11  C   UNL     2     -11.223  10.970  68.866  1.00  0.00    -0.265 A  
HETATM   12  C   UNL     2     -11.001  13.676  69.308  1.00  0.00    -0.144 C  
HETATM   13  N   UNL     2     -11.383   9.829  68.144  1.00  0.00    -0.520 NA 
HETATM   14  C   UNL     2     -11.917  11.466  70.025  1.00  0.00    -0.363 C  
HETATM   15  N   UNL     2     -11.860  12.872  70.069  1.00  0.00    -0.317 N  
HETATM   16  H   UNL     2     -12.032   9.069  68.347  1.00  0.00     0.000 HD 
HETATM   17  C   UNL     2     -10.517   9.893  67.105  1.00  0.00    -0.242 A  
HETATM   18  O   UNL     2     -12.536  10.851  70.895  1.00  0.00    -0.345 OA 
ENDROOT
BRANCH   2  19
HETATM   19  C   UNL     1     -12.484  14.191  65.802  1.00  0.00    -0.466 C  
BRANCH  19  20
HETATM   20  C   UNL     1     -12.528  12.742  65.304  1.00  0.00    -0.465 C  
HETATM   21  O   UNL     1     -12.989  12.660  63.958  1.00  0.00    -0.712 OA 
HETATM   22  H   UNL     1     -13.017  11.763  63.649  1.00  0.00     0.000 HD 
ENDBRANCH  19  20
ENDBRANCH   2  19
TORSDOF 2
ENDMDL
MODEL       11
REMARK 921   NORMALIZED FREE ENERGY PREDICTED BY IDOCK:   -5.21 KCAL/MOL
REMARK 922        TOTAL FREE ENERGY PREDICTED BY IDOCK:   -6.32 KCAL/MOL
REMARK 923 INTER-LIGAND FREE ENERGY PREDICTED BY IDOCK:   -5.91 KCAL/MOL
REMARK 924 INTRA-LIGAND FREE ENERGY PREDICTED BY IDOCK:   -0.41 KCAL/MOL
REMARK 927      BINDING AFFINITY PREDICTED BY RF-SCORE:    0.00 PKD
ROOT
HETATM    1  C   UNL     1      -9.766   4.105  69.343  1.00  0.00    -0.163 C  
HETATM    2  N   UNL     1      -9.994   5.554  69.699  1.00  0.00    -0.194 N  
HETATM    3  C   UNL     2      -9.057   8.453  72.167  1.00  0.00    -0.239 C  
HETATM    4  C   UNL     1      -8.634   6.203  69.529  1.00  0.00    -0.127 C  
HETATM    5  C   UNL     1     -10.513   5.583  71.135  1.00  0.00    -0.236 C  
HETATM    6  N   UNL     2     -10.005   9.135  71.297  1.00  0.00    -0.302 N  
HETATM    7  C   UNL     2     -10.017  11.267  68.313  1.00  0.00    -0.195 C  
HETATM    8  O   UNL     2      -8.763   9.147  69.348  1.00  0.00    -0.131 OA 
HETATM    9  C   UNL     2     -11.312   9.267  71.687  1.00  0.00    -0.397 A  
HETATM   10  N   UNL     2     -12.027   8.438  72.471  1.00  0.00    -0.389 NA 
HETATM   11  C   UNL     2     -12.148  10.178  71.101  1.00  0.00    -0.388 A  
HETATM   12  C   UNL     2      -9.675   9.620  70.035  1.00  0.00    -0.241 C  
HETATM   13  N   UNL     2     -13.403   9.917  71.553  1.00  0.00    -0.385 NA 
HETATM   14  C   UNL     2     -11.665  11.125  70.131  1.00  0.00    -0.353 C  
HETATM   15  N   UNL     2     -10.470  10.666  69.547  1.00  0.00    -0.223 N  
HETATM   16  H   UNL     2     -14.257  10.414  71.295  1.00  0.00     0.000 HD 
HETATM   17  C   UNL     2     -13.307   8.874  72.410  1.00  0.00    -0.440 A  
HETATM   18  O   UNL     2     -12.159  12.191  69.759  1.00  0.00    -0.290 OA 
ENDROOT
BRANCH   2  19
HETATM   19  C   UNL     1     -11.123   6.252  68.889  1.00  0.00    -0.362 C  
BRANCH  19  20
HETATM   20  C   UNL     1     -10.789   6.619  67.439  1.00  0.00    -0.363 C  
HETATM   21  O   UNL     1     -10.880   8.024  67.215  1.00  0.00    -0.491 OA 
HETATM   22  H   UNL     1     -10.673   8.252  66.317  1.00  0.00     0.000 HD 
ENDBRANCH  19  20
ENDBRANCH   2  19
TORSDOF 2
ENDMDL
MODEL       12
REMARK 921   NORMALIZED FREE ENERGY PREDICTED BY IDOCK:   -5.15 KCAL/MOL
REMARK 922        TOTAL FREE ENERGY PREDICTED BY IDOCK:   -6.26 KCAL/MOL
REMARK 923 INTER-LIGAND FREE ENERGY PREDICTED BY IDOCK:   -5.91 KCAL/MOL
REMARK 924 INTRA-LIGAND FREE ENERGY PREDICTED BY IDOCK:   -0.35 KCAL/MOL
REMARK 927      BINDING AFFINITY PREDICTED BY RF-SCORE:    0.00 PKD
ROOT
HETATM    1  C   UNL     1      -9.703  17.155  67.003  1.00  0.00    -0.265 C  
HETATM    2  N   UNL     1     -10.026  15.711  66.704  1.00  0.00    -0.249 N  
HETATM    3  C   UNL     2     -12.770  13.223  65.418  1.00  0.00    -0.399 C  
HETATM    4  C   UNL     1     -10.303  15.688  65.213  1.00  0.00    -0.375 C  
HETATM    5  C   UNL     1     -11.235  15.340  67.559  1.00  0.00    -0.317 C  
HETATM    6  N   UNL     2     -11.678  12.300  65.698  1.00  0.00    -0.394 N  
HETATM    7  C   UNL     2      -8.914  10.638  63.950  1.00  0.00    -0.192 C  
HETATM    8  O   UNL     2     -10.202  12.975  64.051  1.00  0.00    -0.384 OA 
HETATM    9  C   UNL     2     -11.654  11.613  66.883  1.00  0.00    -0.167 A  
HETATM   10  N   UNL     2     -12.152  12.003  68.072  1.00  0.00    -0.478 NA 
HETATM   11  C   UNL     2     -10.876  10.502  67.055  1.00  0.00    -0.225 A  
HETATM   12  C   UNL     2     -10.596  12.111  64.842  1.00  0.00    -0.293 C  
HETATM   13  N   UNL     2     -10.913  10.187  68.376  1.00  0.00    -0.326 NA 
HETATM   14  C   UNL     2     -10.136   9.927  65.962  1.00  0.00    -0.244 C  
HETATM   15  N   UNL     2      -9.928  10.884  64.951  1.00  0.00    -0.278 N  
HETATM   16  H   UNL     2     -10.426   9.414  68.830  1.00  0.00     0.000 HD 
HETATM   17  C   UNL     2     -11.719  11.094  68.977  1.00  0.00    -0.339 A  
HETATM   18  O   UNL     2      -9.671   8.793  65.837  1.00  0.00    -0.237 OA 
ENDROOT
BRANCH   2  19
HETATM   19  C   UNL     1      -8.937  14.695  67.150  1.00  0.00    -0.225 C  
BRANCH  19  20
HETATM   20  C   UNL     1      -9.008  14.223  68.607  1.00  0.00    -0.154 C  
HETATM   21  O   UNL     1      -8.582  12.870  68.745  1.00  0.00    -0.365 OA 
HETATM   22  H   UNL     1      -8.627  12.577  69.647  1.00  0.00     0.000 HD 
ENDBRANCH  19  20
ENDBRANCH   2  19
TORSDOF 2
ENDMDL
MODEL       13
REMARK 921   NORMALIZED FREE ENERGY PREDICTED BY IDOCK:   -5.14 KCAL/MOL
REMARK 922        TOTAL FREE ENERGY PREDICTED BY IDOCK:   -6.25 KCAL/MOL
REMARK 923 INTER-LIGAND FREE ENERGY PREDICTED BY IDOCK:   -5.79 KCAL/MOL
REMARK 924 INTRA-LIGAND FREE ENERGY PREDICTED BY IDOCK:   -0.46 KCAL/MOL
REMARK 927      BINDING AFFINITY PREDICTED BY RF-SCORE:    0.00 PKD
ROOT
HETATM    1  C   UNL     1      -9.336   8.602  66.908  1.00  0.00    -0.170 C  
HETATM    2  N   UNL     1      -9.537  10.098  66.913  1.00  0.00    -0.172 N  
HETATM    3  C   UNL     2     -11.412  13.092  68.615  1.00  0.00    -0.307 C  
HETATM    4  C   UNL     1      -9.050  10.540  68.278  1.00  0.00    -0.146 C  
HETATM    5  C   UNL     1     -11.027  10.346  66.683  1.00  0.00     0.003 C  
HETATM    6  N   UNL     2     -10.642  13.797  67.599  1.00  0.00    -0.241 N  
HETATM    7  C   UNL     2      -7.458  15.585  67.255  1.00  0.00    -0.223 C  
HETATM    8  O   UNL     2      -8.519  13.441  68.442  1.00  0.00    -0.165 OA 
HETATM    9  C   UNL     2     -11.235  14.141  66.413  1.00  0.00    -0.328 A  
HETATM   10  N   UNL     2     -12.232  13.501  65.773  1.00  0.00    -0.434 NA 
HETATM   11  C   UNL     2     -10.694  15.087  65.586  1.00  0.00    -0.354 A  
HETATM   12  C   UNL     2      -9.290  14.099  67.735  1.00  0.00    -0.200 C  
HETATM   13  N   UNL     2     -11.389  15.043  64.419  1.00  0.00    -0.655 NA 
HETATM   14  C   UNL     2      -9.541  15.855  65.977  1.00  0.00    -0.350 C  
HETATM   15  N   UNL     2      -8.819  15.183  66.982  1.00  0.00    -0.218 N  
HETATM   16  H   UNL     2     -11.223  15.617  63.592  1.00  0.00     0.000 HD 
HETATM   17  C   UNL     2     -12.342  14.092  64.561  1.00  0.00    -0.392 A  
HETATM   18  O   UNL     2      -9.128  16.931  65.542  1.00  0.00    -0.414 OA 
ENDROOT
BRANCH   2  19
HETATM   19  C   UNL     1      -8.856  10.849  65.734  1.00  0.00    -0.191 C  
BRANCH  19  20
HETATM   20  C   UNL     1      -9.673  10.963  64.441  1.00  0.00    -0.290 C  
HETATM   21  O   UNL     1      -9.725  12.306  63.967  1.00  0.00    -0.544 OA 
HETATM   22  H   UNL     1     -10.231  12.377  63.167  1.00  0.00     0.000 HD 
ENDBRANCH  19  20
ENDBRANCH   2  19
TORSDOF 2
ENDMDL
MODEL       14
REMARK 921   NORMALIZED FREE ENERGY PREDICTED BY IDOCK:   -5.08 KCAL/MOL
REMARK 922        TOTAL FREE ENERGY PREDICTED BY IDOCK:   -6.18 KCAL/MOL
REMARK 923 INTER-LIGAND FREE ENERGY PREDICTED BY IDOCK:   -5.76 KCAL/MOL
REMARK 924 INTRA-LIGAND FREE ENERGY PREDICTED BY IDOCK:   -0.43 KCAL/MOL
REMARK 927      BINDING AFFINITY PREDICTED BY RF-SCORE:    0.00 PKD
ROOT
HETATM    1  C   UNL     1      -8.178   9.666  65.110  1.00  0.00    -0.134 C  
HETATM    2  N   UNL     1      -9.076  10.733  65.686  1.00  0.00    -0.187 N  
HETATM    3  C   UNL     2     -12.478  12.642  65.288  1.00  0.00    -0.416 C  
HETATM    4  C   UNL     1     -10.341   9.992  66.074  1.00  0.00    -0.152 C  
HETATM    5  C   UNL     1      -9.287  11.775  64.590  1.00  0.00     0.109 C  
HETATM    6  N   UNL     2     -11.941  13.291  66.476  1.00  0.00    -0.391 N  
HETATM    7  C   UNL     2     -12.157  13.041  70.129  1.00  0.00    -0.307 C  
HETATM    8  O   UNL     2     -12.051  11.509  67.944  1.00  0.00    -0.630 OA 
HETATM    9  C   UNL     2     -11.290  14.491  66.360  1.00  0.00    -0.349 A  
HETATM   10  N   UNL     2     -10.578  14.945  65.310  1.00  0.00    -0.369 NA 
HETATM   11  C   UNL     2     -11.081  15.304  67.440  1.00  0.00    -0.326 A  
HETATM   12  C   UNL     2     -11.995  12.728  67.748  1.00  0.00    -0.260 C  
HETATM   13  N   UNL     2     -10.239  16.293  67.040  1.00  0.00    -0.275 NA 
HETATM   14  C   UNL     2     -11.641  14.996  68.730  1.00  0.00    -0.335 C  
HETATM   15  N   UNL     2     -11.937  13.623  68.824  1.00  0.00    -0.360 N  
HETATM   16  H   UNL     2      -9.880  17.054  67.617  1.00  0.00     0.000 HD 
HETATM   17  C   UNL     2      -9.967  16.076  65.732  1.00  0.00    -0.351 A  
HETATM   18  O   UNL     2     -11.842  15.734  69.697  1.00  0.00    -0.345 OA 
ENDROOT
BRANCH   2  19
HETATM   19  C   UNL     1      -8.450  11.550  66.852  1.00  0.00    -0.165 C  
BRANCH  19  20
HETATM   20  C   UNL     1      -8.320  10.824  68.195  1.00  0.00    -0.120 C  
HETATM   21  O   UNL     1      -9.141  11.417  69.198  1.00  0.00    -0.395 OA 
HETATM   22  H   UNL     1      -9.060  10.967  70.030  1.00  0.00     0.000 HD 
ENDBRANCH  19  20
ENDBRANCH   2  19
TORSDOF 2
ENDMDL
MODEL       15
REMARK 921   NORMALIZED FREE ENERGY PREDICTED BY IDOCK:   -5.05 KCAL/MOL
REMARK 922        TOTAL FREE ENERGY PREDICTED BY IDOCK:   -6.15 KCAL/MOL
REMARK 923 INTER-LIGAND FREE ENERGY PREDICTED BY IDOCK:   -5.99 KCAL/MOL
REMARK 924 INTRA-LIGAND FREE ENERGY PREDICTED BY IDOCK:   -0.15 KCAL/MOL
REMARK 927      BINDING AFFINITY PREDICTED BY RF-SCORE:    0.00 PKD
ROOT
HETATM    1  C   UNL     1      -9.927  16.934  68.827  1.00  0.00    -0.276 C  
HETATM    2  N   UNL     1     -10.146  15.655  68.057  1.00  0.00    -0.223 N  
HETATM    3  C   UNL     2     -11.660  12.040  68.178  1.00  0.00    -0.340 C  
HETATM    4  C   UNL     1     -11.654  15.526  67.961  1.00  0.00    -0.268 C  
HETATM    5  C   UNL     1      -9.485  14.535  68.857  1.00  0.00    -0.144 C  
HETATM    6  N   UNL     2     -11.112  12.058  66.828  1.00  0.00    -0.288 N  
HETATM    7  C   UNL     2     -12.193  12.728  63.388  1.00  0.00    -0.504 C  
HETATM    8  O   UNL     2     -12.530  13.620  65.883  1.00  0.00    -0.453 OA 
HETATM    9  C   UNL     2      -9.883  11.502  66.585  1.00  0.00    -0.202 A  
HETATM   10  N   UNL     2      -8.839  11.407  67.431  1.00  0.00    -0.148 NA 
HETATM   11  C   UNL     2      -9.479  11.177  65.320  1.00  0.00    -0.226 A  
HETATM   12  C   UNL     2     -11.745  12.674  65.752  1.00  0.00    -0.419 C  
HETATM   13  N   UNL     2      -8.161  10.853  65.392  1.00  0.00    -0.348 NA 
HETATM   14  C   UNL     2     -10.369  11.290  64.194  1.00  0.00    -0.351 C  
HETATM   15  N   UNL     2     -11.411  12.193  64.479  1.00  0.00    -0.322 N  
HETATM   16  H   UNL     2      -7.561  10.575  64.615  1.00  0.00     0.000 HD 
HETATM   17  C   UNL     2      -7.795  10.969  66.691  1.00  0.00    -0.153 A  
HETATM   18  O   UNL     2     -10.308  10.755  63.086  1.00  0.00    -0.255 OA 
ENDROOT
BRANCH   2  19
HETATM   19  C   UNL     1      -9.426  15.593  66.680  1.00  0.00    -0.259 C  
BRANCH  19  20
HETATM   20  C   UNL     1      -8.135  16.410  66.554  1.00  0.00    -0.310 C  
HETATM   21  O   UNL     1      -8.285  17.497  65.644  1.00  0.00    -0.505 OA 
HETATM   22  H   UNL     1      -7.485  18.003  65.565  1.00  0.00     0.000 HD 
ENDBRANCH  19  20
ENDBRANCH   2  19
TORSDOF 2
ENDMDL
MODEL       16
REMARK 921   NORMALIZED FREE ENERGY PREDICTED BY IDOCK:   -5.04 KCAL/MOL
REMARK 922        TOTAL FREE ENERGY PREDICTED BY IDOCK:   -6.14 KCAL/MOL
REMARK 923 INTER-LIGAND FREE ENERGY PREDICTED BY IDOCK:   -5.71 KCAL/MOL
REMARK 924 INTRA-LIGAND FREE ENERGY PREDICTED BY IDOCK:   -0.43 KCAL/MOL
REMARK 927      BINDING AFFINITY PREDICTED BY RF-SCORE:    0.00 PKD
ROOT
HETATM    1  C   UNL     1      -8.414   5.557  67.094  1.00  0.00    -0.110 C  
HETATM    2  N   UNL     1      -8.944   6.597  68.051  1.00  0.00    -0.118 N  
HETATM    3  C   UNL     2      -7.999   9.200  70.827  1.00  0.00    -0.163 C  
HETATM    4  C   UNL     1      -8.292   7.890  67.602  1.00  0.00    -0.124 C  
HETATM    5  C   UNL     1      -8.533   6.158  69.455  1.00  0.00    -0.120 C  
HETATM    6  N   UNL     2      -9.444   9.371  70.777  1.00  0.00    -0.261 N  
HETATM    7  C   UNL     2     -11.945  11.524  69.177  1.00  0.00    -0.320 C  
HETATM    8  O   UNL     2      -9.627  10.299  68.668  1.00  0.00    -0.155 OA 
HETATM    9  C   UNL     2     -10.237   8.729  71.692  1.00  0.00    -0.324 A  
HETATM   10  N   UNL     2     -10.002   7.554  72.306  1.00  0.00    -0.175 NA 
HETATM   11  C   UNL     2     -11.529   9.114  71.920  1.00  0.00    -0.353 A  
HETATM   12  C   UNL     2     -10.095  10.115  69.797  1.00  0.00    -0.231 C  
HETATM   13  N   UNL     2     -12.097   8.165  72.709  1.00  0.00    -0.602 NA 
HETATM   14  C   UNL     2     -12.084  10.288  71.297  1.00  0.00    -0.382 C  
HETATM   15  N   UNL     2     -11.356  10.622  70.140  1.00  0.00    -0.308 N  
HETATM   16  H   UNL     2     -13.059   8.153  73.048  1.00  0.00     0.000 HD 
HETATM   17  C   UNL     2     -11.143   7.237  72.960  1.00  0.00    -0.317 A  
HETATM   18  O   UNL     2     -13.066  10.959  71.617  1.00  0.00    -0.430 OA 
ENDROOT
BRANCH   2  19
HETATM   19  C   UNL     1     -10.495   6.676  68.133  1.00  0.00    -0.214 C  
BRANCH  19  20
HETATM   20  C   UNL     1     -11.141   6.036  69.367  1.00  0.00    -0.375 C  
HETATM   21  O   UNL     1     -12.244   6.803  69.842  1.00  0.00    -0.634 OA 
HETATM   22  H   UNL     1     -12.644   6.408  70.607  1.00  0.00     0.000 HD 
ENDBRANCH  19  20
ENDBRANCH   2  19
TORSDOF 2
ENDMDL
MODEL       17
REMARK 921   NORMALIZED FREE ENERGY PREDICTED BY IDOCK:   -5.02 KCAL/MOL
REMARK 922        TOTAL FREE ENERGY PREDICTED BY IDOCK:   -6.11 KCAL/MOL
REMARK 923 INTER-LIGAND FREE ENERGY PREDICTED BY IDOCK:   -5.79 KCAL/MOL
REMARK 924 INTRA-LIGAND FREE ENERGY PREDICTED BY IDOCK:   -0.32 KCAL/MOL
REMARK 927      BINDING AFFINITY PREDICTED BY RF-SCORE:    0.00 PKD
ROOT
HETATM    1  C   UNL     1      -9.545   4.204  70.643  1.00  0.00    -0.194 C  
HETATM    2  N   UNL     1      -9.753   5.659  70.300  1.00  0.00    -0.170 N  
HETATM    3  C   UNL     2      -8.530   9.328  70.945  1.00  0.00    -0.149 C  
HETATM    4  C   UNL     1      -8.449   6.083  69.653  1.00  0.00    -0.126 C  
HETATM    5  C   UNL     1     -10.053   6.385  71.609  1.00  0.00    -0.186 C  
HETATM    6  N   UNL     2      -9.612   9.566  70.000  1.00  0.00    -0.222 N  
HETATM    7  C   UNL     2     -10.117  10.041  66.398  1.00  0.00    -0.241 C  
HETATM    8  O   UNL     2      -8.673   8.599  68.122  1.00  0.00    -0.139 OA 
HETATM    9  C   UNL     2     -10.850   9.931  70.461  1.00  0.00    -0.326 A  
HETATM   10  N   UNL     2     -11.421   9.605  71.637  1.00  0.00    -0.367 NA 
HETATM   11  C   UNL     2     -11.785  10.498  69.641  1.00  0.00    -0.256 A  
HETATM   12  C   UNL     2      -9.484   9.384  68.626  1.00  0.00    -0.146 C  
HETATM   13  N   UNL     2     -12.953  10.543  70.334  1.00  0.00    -0.459 NA 
HETATM   14  C   UNL     2     -11.474  10.853  68.280  1.00  0.00    -0.305 C  
HETATM   15  N   UNL     2     -10.368  10.115  67.820  1.00  0.00    -0.195 N  
HETATM   16  H   UNL     2     -13.846  10.901  69.996  1.00  0.00     0.000 HD 
HETATM   17  C   UNL     2     -12.705  10.023  71.559  1.00  0.00    -0.429 A  
HETATM   18  O   UNL     2     -12.043  11.641  67.523  1.00  0.00    -0.611 OA 
ENDROOT
BRANCH   2  19
HETATM   19  C   UNL     1     -11.006   5.949  69.426  1.00  0.00    -0.350 C  
BRANCH  19  20
HETATM   20  C   UNL     1     -10.825   5.797  67.911  1.00  0.00    -0.165 C  
HETATM   21  O   UNL     1     -11.515   6.815  67.192  1.00  0.00    -0.756 OA 
HETATM   22  H   UNL     1     -11.404   6.721  66.254  1.00  0.00     0.000 HD 
ENDBRANCH  19  20
ENDBRANCH   2  19
TORSDOF 2
ENDMDL
MODEL       18
REMARK 921   NORMALIZED FREE ENERGY PREDICTED BY IDOCK:   -4.98 KCAL/MOL
REMARK 922        TOTAL FREE ENERGY PREDICTED BY IDOCK:   -6.07 KCAL/MOL
REMARK 923 INTER-LIGAND FREE ENERGY PREDICTED BY IDOCK:   -5.56 KCAL/MOL
REMARK 924 INTRA-LIGAND FREE ENERGY PREDICTED BY IDOCK:   -0.51 KCAL/MOL
REMARK 927      BINDING AFFINITY PREDICTED BY RF-SCORE:    0.00 PKD
ROOT
HETATM    1  C   UNL     1      -6.632  16.481  68.705  1.00  0.00    -0.145 C  
HETATM    2  N   UNL     1      -7.952  15.883  68.282  1.00  0.00    -0.136 N  
HETATM    3  C   UNL     2     -11.764  15.556  69.141  1.00  0.00    -0.365 C  
HETATM    4  C   UNL     1      -8.835  17.082  67.999  1.00  0.00    -0.223 C  
HETATM    5  C   UNL     1      -8.441  15.021  69.444  1.00  0.00    -0.125 C  
HETATM    6  N   UNL     2     -11.687  14.744  67.934  1.00  0.00    -0.351 N  
HETATM    7  C   UNL     2     -12.214  15.064  64.319  1.00  0.00    -0.293 C  
HETATM    8  O   UNL     2     -11.228  16.412  66.402  1.00  0.00     0.087 OA 
HETATM    9  C   UNL     2     -11.580  13.381  68.037  1.00  0.00    -0.334 A  
HETATM   10  N   UNL     2     -10.999  12.673  69.024  1.00  0.00    -0.223 NA 
HETATM   11  C   UNL     2     -11.854  12.557  66.981  1.00  0.00    -0.323 A  
HETATM   12  C   UNL     2     -11.656  15.280  66.650  1.00  0.00    -0.036 C  
HETATM   13  N   UNL     2     -11.454  11.307  67.335  1.00  0.00    -0.513 NA 
HETATM   14  C   UNL     2     -12.387  13.070  65.746  1.00  0.00    -0.416 C  
HETATM   15  N   UNL     2     -12.100  14.441  65.618  1.00  0.00    -0.374 N  
HETATM   16  H   UNL     2     -11.511  10.466  66.760  1.00  0.00     0.000 HD 
HETATM   17  C   UNL     2     -10.963  11.390  68.594  1.00  0.00    -0.220 A  
HETATM   18  O   UNL     2     -12.988  12.483  64.845  1.00  0.00    -0.821 OA 
ENDROOT
BRANCH   2  19
HETATM   19  C   UNL     1      -7.862  14.880  67.097  1.00  0.00    -0.170 C  
BRANCH  19  20
HETATM   20  C   UNL     1      -7.845  13.393  67.468  1.00  0.00    -0.176 C  
HETATM   21  O   UNL     1      -8.482  12.594  66.474  1.00  0.00    -0.408 OA 
HETATM   22  H   UNL     1      -8.472  11.673  66.703  1.00  0.00     0.000 HD 
ENDBRANCH  19  20
ENDBRANCH   2  19
TORSDOF 2
ENDMDL
MODEL       19
REMARK 921   NORMALIZED FREE ENERGY PREDICTED BY IDOCK:   -4.90 KCAL/MOL
REMARK 922        TOTAL FREE ENERGY PREDICTED BY IDOCK:   -5.98 KCAL/MOL
REMARK 923 INTER-LIGAND FREE ENERGY PREDICTED BY IDOCK:   -5.58 KCAL/MOL
REMARK 924 INTRA-LIGAND FREE ENERGY PREDICTED BY IDOCK:   -0.39 KCAL/MOL
REMARK 927      BINDING AFFINITY PREDICTED BY RF-SCORE:    0.00 PKD
ROOT
HETATM    1  C   UNL     1      -5.339  14.693  68.765  1.00  0.00    -0.089 C  
HETATM    2  N   UNL     1      -6.567  15.478  68.376  1.00  0.00    -0.112 N  
HETATM    3  C   UNL     2     -10.311  16.245  69.251  1.00  0.00    -0.277 C  
HETATM    4  C   UNL     1      -6.835  16.374  69.570  1.00  0.00    -0.187 C  
HETATM    5  C   UNL     1      -7.677  14.464  68.109  1.00  0.00    -0.131 C  
HETATM    6  N   UNL     2     -10.131  17.086  68.075  1.00  0.00    -0.290 N  
HETATM    7  C   UNL     2      -9.298  20.556  67.229  1.00  0.00    -0.389 C  
HETATM    8  O   UNL     2      -8.646  18.624  68.954  1.00  0.00    -0.277 OA 
HETATM    9  C   UNL     2     -10.542  16.636  66.848  1.00  0.00    -0.229 A  
HETATM   10  N   UNL     2     -10.601  15.363  66.414  1.00  0.00    -0.302 NA 
HETATM   11  C   UNL     2     -10.724  17.488  65.794  1.00  0.00    -0.106 A  
HETATM   12  C   UNL     2      -9.496  18.324  68.109  1.00  0.00    -0.303 C  
HETATM   13  N   UNL     2     -10.921  16.722  64.689  1.00  0.00    -0.918 NA 
HETATM   14  C   UNL     2     -10.609  18.915  65.953  1.00  0.00    -0.373 C  
HETATM   15  N   UNL     2      -9.839  19.223  67.089  1.00  0.00    -0.324 N  
HETATM   16  H   UNL     2     -11.075  17.057  63.738  1.00  0.00     0.000 HD 
HETATM   17  C   UNL     2     -10.874  15.430  65.090  1.00  0.00    -0.431 A  
HETATM   18  O   UNL     2     -11.045  19.823  65.243  1.00  0.00    -0.395 OA 
ENDROOT
BRANCH   2  19
HETATM   19  C   UNL     1      -6.447  16.251  67.032  1.00  0.00    -0.126 C  
BRANCH  19  20
HETATM   20  C   UNL     1      -5.665  17.569  67.075  1.00  0.00    -0.147 C  
HETATM   21  O   UNL     1      -6.467  18.672  66.663  1.00  0.00    -0.180 OA 
HETATM   22  H   UNL     1      -5.983  19.488  66.689  1.00  0.00     0.000 HD 
ENDBRANCH  19  20
ENDBRANCH   2  19
TORSDOF 2
ENDMDL
MODEL       20
REMARK 921   NORMALIZED FREE ENERGY PREDICTED BY IDOCK:   -4.85 KCAL/MOL
REMARK 922        TOTAL FREE ENERGY PREDICTED BY IDOCK:   -5.93 KCAL/MOL
REMARK 923 INTER-LIGAND FREE ENERGY PREDICTED BY IDOCK:   -5.50 KCAL/MOL
REMARK 924 INTRA-LIGAND FREE ENERGY PREDICTED BY IDOCK:   -0.42 KCAL/MOL
REMARK 927      BINDING AFFINITY PREDICTED BY RF-SCORE:    0.00 PKD
ROOT
HETATM    1  C   UNL     1      -8.689  17.645  67.083  1.00  0.00    -0.243 C  
HETATM    2  N   UNL     1      -9.337  16.285  67.181  1.00  0.00    -0.219 N  
HETATM    3  C   UNL     2     -12.523  14.165  66.328  1.00  0.00    -0.362 C  
HETATM    4  C   UNL     1      -9.520  15.849  65.741  1.00  0.00    -0.281 C  
HETATM    5  C   UNL     1     -10.651  16.473  67.937  1.00  0.00    -0.329 C  
HETATM    6  N   UNL     2     -11.710  13.168  67.012  1.00  0.00    -0.358 N  
HETATM    7  C   UNL     2      -9.337  10.486  66.222  1.00  0.00    -0.170 C  
HETATM    8  O   UNL     2     -10.016  12.952  65.455  1.00  0.00    -0.266 OA 
HETATM    9  C   UNL     2     -11.929  12.906  68.339  1.00  0.00    -0.248 A  
HETATM   10  N   UNL     2     -12.388  13.751  69.282  1.00  0.00    -0.252 NA 
HETATM   11  C   UNL     2     -11.460  11.768  68.934  1.00  0.00    -0.297 A  
HETATM   12  C   UNL     2     -10.657  12.490  66.404  1.00  0.00    -0.247 C  
HETATM   13  N   UNL     2     -11.654  11.906  70.272  1.00  0.00    -0.531 NA 
HETATM   14  C   UNL     2     -10.817  10.731  68.169  1.00  0.00    -0.236 C  
HETATM   15  N   UNL     2     -10.319  11.248  66.959  1.00  0.00    -0.218 N  
HETATM   16  H   UNL     2     -11.400  11.232  70.995  1.00  0.00     0.000 HD 
HETATM   17  C   UNL     2     -12.248  13.107  70.464  1.00  0.00    -0.328 A  
HETATM   18  O   UNL     2     -10.638   9.544  68.448  1.00  0.00    -0.220 OA 
ENDROOT
BRANCH   2  19
HETATM   19  C   UNL     1      -8.560  15.256  68.050  1.00  0.00    -0.152 C  
BRANCH  19  20
HETATM   20  C   UNL     1      -7.253  14.718  67.457  1.00  0.00    -0.197 C  
HETATM   21  O   UNL     1      -7.340  13.326  67.163  1.00  0.00    -0.352 OA 
HETATM   22  H   UNL     1      -6.530  12.993  66.796  1.00  0.00     0.000 HD 
ENDBRANCH  19  20
ENDBRANCH   2  19
TORSDOF 2
ENDMDL
MODEL       21
REMARK 921   NORMALIZED FREE ENERGY PREDICTED BY IDOCK:   -4.82 KCAL/MOL
REMARK 922        TOTAL FREE ENERGY PREDICTED BY IDOCK:   -5.89 KCAL/MOL
REMARK 923 INTER-LIGAND FREE ENERGY PREDICTED BY IDOCK:   -5.47 KCAL/MOL
REMARK 924 INTRA-LIGAND FREE ENERGY PREDICTED BY IDOCK:   -0.43 KCAL/MOL
REMARK 927      BINDING AFFINITY PREDICTED BY RF-SCORE:    0.00 PKD
ROOT
HETATM    1  C   UNL     1      -7.161  14.804  69.179  1.00  0.00    -0.143 C  
HETATM    2  N   UNL     1      -8.309  14.248  68.373  1.00  0.00    -0.159 N  
HETATM    3  C   UNL     2     -11.580  12.089  68.487  1.00  0.00    -0.309 C  
HETATM    4  C   UNL     1      -9.542  14.882  68.986  1.00  0.00    -0.204 C  
HETATM    5  C   UNL     1      -8.262  12.729  68.521  1.00  0.00    -0.068 C  
HETATM    6  N   UNL     2     -11.536  12.439  67.074  1.00  0.00    -0.357 N  
HETATM    7  C   UNL     2     -12.906  14.949  64.778  1.00  0.00     0.336 C  
HETATM    8  O   UNL     2     -11.925  14.710  67.250  1.00  0.00    -0.391 OA 
HETATM    9  C   UNL     2     -11.018  11.549  66.169  1.00  0.00    -0.266 A  
HETATM   10  N   UNL     2     -10.057  10.629  66.375  1.00  0.00    -0.218 NA 
HETATM   11  C   UNL     2     -11.265  11.661  64.829  1.00  0.00    -0.234 A  
HETATM   12  C   UNL     2     -11.941  13.674  66.577  1.00  0.00    -0.424 C  
HETATM   13  N   UNL     2     -10.452  10.774  64.197  1.00  0.00    -0.437 NA 
HETATM   14  C   UNL     2     -12.179  12.647  64.313  1.00  0.00    -0.445 C  
HETATM   15  N   UNL     2     -12.337  13.701  65.232  1.00  0.00    -0.436 N  
HETATM   16  H   UNL     2     -10.387  10.621  63.190  1.00  0.00     0.000 HD 
HETATM   17  C   UNL     2      -9.745  10.132  65.156  1.00  0.00    -0.304 A  
HETATM   18  O   UNL     2     -12.765  12.686  63.230  1.00  0.00    -0.669 OA 
ENDROOT
BRANCH   2  19
HETATM   19  C   UNL     1      -8.192  14.468  66.838  1.00  0.00    -0.039 C  
BRANCH  19  20
HETATM   20  C   UNL     1      -8.446  15.895  66.337  1.00  0.00    -0.313 C  
HETATM   21  O   UNL     1      -9.658  15.985  65.593  1.00  0.00    -0.384 OA 
HETATM   22  H   UNL     1      -9.816  16.869  65.282  1.00  0.00     0.000 HD 
ENDBRANCH  19  20
ENDBRANCH   2  19
TORSDOF 2
ENDMDL
MODEL       22
REMARK 921   NORMALIZED FREE ENERGY PREDICTED BY IDOCK:   -4.81 KCAL/MOL
REMARK 922        TOTAL FREE ENERGY PREDICTED BY IDOCK:   -5.88 KCAL/MOL
REMARK 923 INTER-LIGAND FREE ENERGY PREDICTED BY IDOCK:   -5.46 KCAL/MOL
REMARK 924 INTRA-LIGAND FREE ENERGY PREDICTED BY IDOCK:   -0.42 KCAL/MOL
REMARK 927      BINDING AFFINITY PREDICTED BY RF-SCORE:    0.00 PKD
ROOT
HETATM    1  C   UNL     1      -7.073  11.437  66.569  1.00  0.00    -0.058 C  
HETATM    2  N   UNL     1      -8.333  11.811  67.311  1.00  0.00    -0.154 N  
HETATM    3  C   UNL     2     -11.925  13.350  66.990  1.00  0.00    -0.379 C  
HETATM    4  C   UNL     1      -9.409  10.945  66.686  1.00  0.00    -0.171 C  
HETATM    5  C   UNL     1      -8.547  13.308  67.095  1.00  0.00    -0.193 C  
HETATM    6  N   UNL     2     -11.878  13.069  68.418  1.00  0.00    -0.340 N  
HETATM    7  C   UNL     2     -12.878  10.446  70.778  1.00  0.00    -0.364 C  
HETATM    8  O   UNL     2     -11.854  10.759  68.332  1.00  0.00    -0.478 OA 
HETATM    9  C   UNL     2     -11.562  14.070  69.299  1.00  0.00    -0.309 A  
HETATM   10  N   UNL     2     -10.769  15.137  69.083  1.00  0.00    -0.243 NA 
HETATM   11  C   UNL     2     -11.839  13.967  70.634  1.00  0.00    -0.239 A  
HETATM   12  C   UNL     2     -12.080  11.801  68.956  1.00  0.00    -0.214 C  
HETATM   13  N   UNL     2     -11.221  15.008  71.252  1.00  0.00    -0.547 NA 
HETATM   14  C   UNL     2     -12.586  12.856  71.162  1.00  0.00    -0.281 C  
HETATM   15  N   UNL     2     -12.519  11.756  70.287  1.00  0.00    -0.205 N  
HETATM   16  H   UNL     2     -11.225  15.209  72.252  1.00  0.00     0.000 HD 
HETATM   17  C   UNL     2     -10.599  15.728  70.289  1.00  0.00    -0.284 A  
HETATM   18  O   UNL     2     -13.200  12.755  72.226  1.00  0.00    -0.475 OA 
ENDROOT
BRANCH   2  19
HETATM   19  C   UNL     1      -8.242  11.674  68.857  1.00  0.00     0.020 C  
BRANCH  19  20
HETATM   20  C   UNL     1      -8.285  10.247  69.414  1.00  0.00    -0.165 C  
HETATM   21  O   UNL     1      -9.417  10.042  70.255  1.00  0.00    -0.380 OA 
HETATM   22  H   UNL     1      -9.444   9.158  70.601  1.00  0.00     0.000 HD 
ENDBRANCH  19  20
ENDBRANCH   2  19
TORSDOF 2
ENDMDL
MODEL       23
REMARK 921   NORMALIZED FREE ENERGY PREDICTED BY IDOCK:   -4.77 KCAL/MOL
REMARK 922        TOTAL FREE ENERGY PREDICTED BY IDOCK:   -5.84 KCAL/MOL
REMARK 923 INTER-LIGAND FREE ENERGY PREDICTED BY IDOCK:   -5.42 KCAL/MOL
REMARK 924 INTRA-LIGAND FREE ENERGY PREDICTED BY IDOCK:   -0.42 KCAL/MOL
REMARK 927      BINDING AFFINITY PREDICTED BY RF-SCORE:    0.00 PKD
ROOT
HETATM    1  C   UNL     1      -8.363   8.663  66.065  1.00  0.00    -0.131 C  
HETATM    2  N   UNL     1      -9.109   9.889  66.534  1.00  0.00    -0.149 N  
HETATM    3  C   UNL     2     -11.999  12.409  65.718  1.00  0.00    -0.372 C  
HETATM    4  C   UNL     1     -10.532   9.408  66.738  1.00  0.00    -0.195 C  
HETATM    5  C   UNL     1      -8.968  10.941  65.436  1.00  0.00    -0.193 C  
HETATM    6  N   UNL     2     -11.511  12.956  66.977  1.00  0.00    -0.319 N  
HETATM    7  C   UNL     2     -12.256  12.788  70.564  1.00  0.00    -0.307 C  
HETATM    8  O   UNL     2     -12.155  11.242  68.388  1.00  0.00    -0.598 OA 
HETATM    9  C   UNL     2     -10.633  14.008  66.967  1.00  0.00    -0.279 A  
HETATM   10  N   UNL     2      -9.715  14.306  66.028  1.00  0.00    -0.305 NA 
HETATM   11  C   UNL     2     -10.419  14.776  68.078  1.00  0.00    -0.246 A  
HETATM   12  C   UNL     2     -11.841  12.426  68.221  1.00  0.00    -0.309 C  
HETATM   13  N   UNL     2      -9.358  15.581  67.809  1.00  0.00    -0.195 NA 
HETATM   14  C   UNL     2     -11.194  14.594  69.278  1.00  0.00    -0.282 C  
HETATM   15  N   UNL     2     -11.757  13.304  69.310  1.00  0.00    -0.308 N  
HETATM   16  H   UNL     2      -8.940  16.266  68.441  1.00  0.00     0.000 HD 
HETATM   17  C   UNL     2      -8.961  15.304  66.545  1.00  0.00    -0.305 A  
HETATM   18  O   UNL     2     -11.378  15.366  70.220  1.00  0.00    -0.259 OA 
ENDROOT
BRANCH   2  19
HETATM   19  C   UNL     1      -8.499  10.583  67.785  1.00  0.00    -0.114 C  
BRANCH  19  20
HETATM   20  C   UNL     1      -8.600   9.810  69.105  1.00  0.00    -0.153 C  
HETATM   21  O   UNL     1      -9.525  10.417  70.003  1.00  0.00    -0.398 OA 
HETATM   22  H   UNL     1      -9.587   9.939  70.821  1.00  0.00     0.000 HD 
ENDBRANCH  19  20
ENDBRANCH   2  19
TORSDOF 2
ENDMDL
MODEL       24
REMARK 921   NORMALIZED FREE ENERGY PREDICTED BY IDOCK:   -4.77 KCAL/MOL
REMARK 922        TOTAL FREE ENERGY PREDICTED BY IDOCK:   -5.83 KCAL/MOL
REMARK 923 INTER-LIGAND FREE ENERGY PREDICTED BY IDOCK:   -5.54 KCAL/MOL
REMARK 924 INTRA-LIGAND FREE ENERGY PREDICTED BY IDOCK:   -0.29 KCAL/MOL
REMARK 927      BINDING AFFINITY PREDICTED BY RF-SCORE:    0.00 PKD
ROOT
HETATM    1  C   UNL     1     -12.228  15.308  64.273  1.00  0.00    -0.189 C  
HETATM    2  N   UNL     1     -11.650  14.221  65.146  1.00  0.00    -0.340 N  
HETATM    3  C   UNL     2      -8.577  13.129  67.323  1.00  0.00    -0.210 C  
HETATM    4  C   UNL     1     -11.491  14.874  66.505  1.00  0.00    -0.286 C  
HETATM    5  C   UNL     1     -10.327  13.797  64.510  1.00  0.00    -0.285 C  
HETATM    6  N   UNL     2      -9.439  11.964  67.469  1.00  0.00    -0.173 N  
HETATM    7  C   UNL     2     -11.947  10.623  69.785  1.00  0.00    -0.291 C  
HETATM    8  O   UNL     2     -11.144  12.927  68.698  1.00  0.00    -0.244 OA 
HETATM    9  C   UNL     2      -9.233  10.862  66.681  1.00  0.00    -0.168 A  
HETATM   10  N   UNL     2      -8.731  10.824  65.432  1.00  0.00    -0.188 NA 
HETATM   11  C   UNL     2      -9.759   9.641  67.000  1.00  0.00    -0.181 A  
HETATM   12  C   UNL     2     -10.526  11.919  68.338  1.00  0.00    -0.217 C  
HETATM   13  N   UNL     2      -9.557   8.827  65.932  1.00  0.00    -0.411 NA 
HETATM   14  C   UNL     2     -10.455   9.425  68.242  1.00  0.00    -0.217 C  
HETATM   15  N   UNL     2     -10.927  10.644  68.761  1.00  0.00    -0.228 N  
HETATM   16  H   UNL     2      -9.844   7.851  65.849  1.00  0.00     0.000 HD 
HETATM   17  C   UNL     2      -8.902   9.555  64.997  1.00  0.00    -0.195 A  
HETATM   18  O   UNL     2     -10.694   8.372  68.837  1.00  0.00    -0.179 OA 
ENDROOT
BRANCH   2  19
HETATM   19  C   UNL     1     -12.477  12.905  65.179  1.00  0.00    -0.501 C  
BRANCH  19  20
HETATM   20  C   UNL     1     -12.001  11.782  64.251  1.00  0.00    -0.185 C  
HETATM   21  O   UNL     1     -12.717  11.775  63.019  1.00  0.00    -0.852 OA 
HETATM   22  H   UNL     1     -12.422  11.079  62.444  1.00  0.00     0.000 HD 
ENDBRANCH  19  20
ENDBRANCH   2  19
TORSDOF 2
ENDMDL
MODEL       25
REMARK 921   NORMALIZED FREE ENERGY PREDICTED BY IDOCK:   -4.76 KCAL/MOL
REMARK 922        TOTAL FREE ENERGY PREDICTED BY IDOCK:   -5.82 KCAL/MOL
REMARK 923 INTER-LIGAND FREE ENERGY PREDICTED BY IDOCK:   -5.38 KCAL/MOL
REMARK 924 INTRA-LIGAND FREE ENERGY PREDICTED BY IDOCK:   -0.44 KCAL/MOL
REMARK 927      BINDING AFFINITY PREDICTED BY RF-SCORE:    0.00 PKD
ROOT
HETATM    1  C   UNL     1      -9.042   4.268  74.368  1.00  0.00    -0.099 C  
HETATM    2  N   UNL     1      -9.708   5.265  73.450  1.00  0.00    -0.144 N  
HETATM    3  C   UNL     2     -11.200   5.853  69.872  1.00  0.00    -0.268 C  
HETATM    4  C   UNL     1     -11.063   4.654  73.151  1.00  0.00    -0.289 C  
HETATM    5  C   UNL     1      -8.812   5.404  72.221  1.00  0.00    -0.129 C  
HETATM    6  N   UNL     2     -11.407   7.165  70.471  1.00  0.00    -0.288 N  
HETATM    7  C   UNL     2     -14.026   9.055  72.209  1.00  0.00    -0.455 C  
HETATM    8  O   UNL     2     -12.997   6.596  72.050  1.00  0.00    -0.267 OA 
HETATM    9  C   UNL     2     -10.510   8.173  70.229  1.00  0.00    -0.219 A  
HETATM   10  N   UNL     2      -9.192   8.060  69.978  1.00  0.00    -0.155 NA 
HETATM   11  C   UNL     2     -10.822   9.484  70.460  1.00  0.00    -0.292 A  
HETATM   12  C   UNL     2     -12.452   7.452  71.345  1.00  0.00    -0.368 C  
HETATM   13  N   UNL     2      -9.674  10.198  70.327  1.00  0.00    -0.387 NA 
HETATM   14  C   UNL     2     -12.149   9.882  70.854  1.00  0.00    -0.341 C  
HETATM   15  N   UNL     2     -12.839   8.797  71.425  1.00  0.00    -0.309 N  
HETATM   16  H   UNL     2      -9.568  11.206  70.448  1.00  0.00     0.000 HD 
HETATM   17  C   UNL     2      -8.697   9.319  70.003  1.00  0.00    -0.195 A  
HETATM   18  O   UNL     2     -12.692  10.986  70.785  1.00  0.00    -0.341 OA 
ENDROOT
BRANCH   2  19
HETATM   19  C   UNL     1      -9.786   6.713  74.010  1.00  0.00    -0.291 C  
BRANCH  19  20
HETATM   20  C   UNL     1      -8.518   7.563  73.870  1.00  0.00    -0.206 C  
HETATM   21  O   UNL     1      -8.776   8.787  73.187  1.00  0.00    -0.341 OA 
HETATM   22  H   UNL     1      -7.991   9.314  73.100  1.00  0.00     0.000 HD 
ENDBRANCH  19  20
ENDBRANCH   2  19
TORSDOF 2
ENDMDL
MODEL       26
REMARK 921   NORMALIZED FREE ENERGY PREDICTED BY IDOCK:   -4.75 KCAL/MOL
REMARK 922        TOTAL FREE ENERGY PREDICTED BY IDOCK:   -5.81 KCAL/MOL
REMARK 923 INTER-LIGAND FREE ENERGY PREDICTED BY IDOCK:   -5.40 KCAL/MOL
REMARK 924 INTRA-LIGAND FREE ENERGY PREDICTED BY IDOCK:   -0.42 KCAL/MOL
REMARK 927      BINDING AFFINITY PREDICTED BY RF-SCORE:    0.00 PKD
ROOT
HETATM    1  C   UNL     1      -7.672   6.391  67.086  1.00  0.00    -0.100 C  
HETATM    2  N   UNL     1      -8.447   6.985  68.237  1.00  0.00    -0.123 N  
HETATM    3  C   UNL     2      -8.224   8.360  71.902  1.00  0.00    -0.158 C  
HETATM    4  C   UNL     1      -7.840   8.361  68.430  1.00  0.00    -0.113 C  
HETATM    5  C   UNL     1      -8.250   6.054  69.432  1.00  0.00    -0.115 C  
HETATM    6  N   UNL     2      -9.648   8.517  71.641  1.00  0.00    -0.223 N  
HETATM    7  C   UNL     2     -12.008  11.080  70.495  1.00  0.00    -0.379 C  
HETATM    8  O   UNL     2      -9.541  10.170  70.028  1.00  0.00    -0.200 OA 
HETATM    9  C   UNL     2     -10.530   7.567  72.084  1.00  0.00    -0.214 A  
HETATM   10  N   UNL     2     -10.305   6.249  72.255  1.00  0.00    -0.188 NA 
HETATM   11  C   UNL     2     -11.870   7.819  72.183  1.00  0.00    -0.324 A  
HETATM   12  C   UNL     2     -10.180   9.567  70.897  1.00  0.00    -0.286 C  
HETATM   13  N   UNL     2     -12.483   6.634  72.442  1.00  0.00    -0.527 NA 
HETATM   14  C   UNL     2     -12.406   9.133  71.941  1.00  0.00    -0.385 C  
HETATM   15  N   UNL     2     -11.520   9.890  71.153  1.00  0.00    -0.375 N  
HETATM   16  H   UNL     2     -13.485   6.482  72.561  1.00  0.00     0.000 HD 
HETATM   17  C   UNL     2     -11.512   5.694  72.513  1.00  0.00    -0.279 A  
HETATM   18  O   UNL     2     -13.483   9.620  72.290  1.00  0.00    -0.441 OA 
ENDROOT
BRANCH   2  19
HETATM   19  C   UNL     1      -9.989   7.006  68.041  1.00  0.00    -0.154 C  
BRANCH  19  20
HETATM   20  C   UNL     1     -10.522   7.955  66.961  1.00  0.00    -0.349 C  
HETATM   21  O   UNL     1     -11.032   9.161  67.524  1.00  0.00    -0.466 OA 
HETATM   22  H   UNL     1     -11.362   9.749  66.855  1.00  0.00     0.000 HD 
ENDBRANCH  19  20
ENDBRANCH   2  19
TORSDOF 2
ENDMDL
MODEL       27
REMARK 921   NORMALIZED FREE ENERGY PREDICTED BY IDOCK:   -4.74 KCAL/MOL
REMARK 922        TOTAL FREE ENERGY PREDICTED BY IDOCK:   -5.80 KCAL/MOL
REMARK 923 INTER-LIGAND FREE ENERGY PREDICTED BY IDOCK:   -5.52 KCAL/MOL
REMARK 924 INTRA-LIGAND FREE ENERGY PREDICTED BY IDOCK:   -0.27 KCAL/MOL
REMARK 927      BINDING AFFINITY PREDICTED BY RF-SCORE:    0.00 PKD
ROOT
HETATM    1  C   UNL     1      -8.622   8.218  65.468  1.00  0.00    -0.159 C  
HETATM    2  N   UNL     1      -9.130   8.385  66.879  1.00  0.00    -0.142 N  
HETATM    3  C   UNL     2      -8.131   9.141  70.595  1.00  0.00    -0.172 C  
HETATM    4  C   UNL     1      -8.795   9.820  67.233  1.00  0.00    -0.132 C  
HETATM    5  C   UNL     1      -8.400   7.354  67.739  1.00  0.00    -0.118 C  
HETATM    6  N   UNL     2      -9.568   8.955  70.734  1.00  0.00    -0.209 N  
HETATM    7  C   UNL     2     -12.643  10.953  70.831  1.00  0.00    -0.397 C  
HETATM    8  O   UNL     2     -10.289  10.821  69.575  1.00  0.00    -0.215 OA 
HETATM    9  C   UNL     2     -10.061   7.745  71.145  1.00  0.00    -0.187 A  
HETATM   10  N   UNL     2      -9.526   6.525  70.944  1.00  0.00    -0.171 NA 
HETATM   11  C   UNL     2     -11.335   7.612  71.626  1.00  0.00    -0.251 A  
HETATM   12  C   UNL     2     -10.503   9.935  70.409  1.00  0.00    -0.285 C  
HETATM   13  N   UNL     2     -11.582   6.281  71.743  1.00  0.00    -0.305 NA 
HETATM   14  C   UNL     2     -12.181   8.758  71.836  1.00  0.00    -0.361 C  
HETATM   15  N   UNL     2     -11.745   9.843  71.053  1.00  0.00    -0.351 N  
HETATM   16  H   UNL     2     -12.450   5.851  72.065  1.00  0.00     0.000 HD 
HETATM   17  C   UNL     2     -10.459   5.634  71.353  1.00  0.00    -0.239 A  
HETATM   18  O   UNL     2     -13.184   8.876  72.541  1.00  0.00    -0.426 OA 
ENDROOT
BRANCH   2  19
HETATM   19  C   UNL     1     -10.630   8.027  67.077  1.00  0.00    -0.294 C  
BRANCH  19  20
HETATM   20  C   UNL     1     -10.938   6.566  67.422  1.00  0.00    -0.378 C  
HETATM   21  O   UNL     1     -11.366   5.832  66.277  1.00  0.00    -0.733 OA 
HETATM   22  H   UNL     1     -11.557   4.927  66.490  1.00  0.00     0.000 HD 
ENDBRANCH  19  20
ENDBRANCH   2  19
TORSDOF 2
ENDMDL
MODEL       28
REMARK 921   NORMALIZED FREE ENERGY PREDICTED BY IDOCK:   -4.73 KCAL/MOL
REMARK 922        TOTAL FREE ENERGY PREDICTED BY IDOCK:   -5.79 KCAL/MOL
REMARK 923 INTER-LIGAND FREE ENERGY PREDICTED BY IDOCK:   -5.73 KCAL/MOL
REMARK 924 INTRA-LIGAND FREE ENERGY PREDICTED BY IDOCK:   -0.06 KCAL/MOL
REMARK 927      BINDING AFFINITY PREDICTED BY RF-SCORE:    0.00 PKD
ROOT
HETATM    1  C   UNL     1     -11.343  11.639  63.425  1.00  0.00    -0.285 C  
HETATM    2  N   UNL     1     -11.151  12.262  64.786  1.00  0.00    -0.302 N  
HETATM    3  C   UNL     2      -8.742  12.611  67.860  1.00  0.00    -0.181 C  
HETATM    4  C   UNL     1      -9.937  13.156  64.623  1.00  0.00    -0.120 C  
HETATM    5  C   UNL     1     -10.941  11.117  65.774  1.00  0.00    -0.091 C  
HETATM    6  N   UNL     2      -9.862  13.430  68.301  1.00  0.00    -0.233 N  
HETATM    7  C   UNL     2     -10.904  16.947  68.329  1.00  0.00    -0.357 C  
HETATM    8  O   UNL     2      -9.668  15.158  66.778  1.00  0.00    -0.227 OA 
HETATM    9  C   UNL     2     -10.806  12.898  69.140  1.00  0.00    -0.079 A  
HETATM   10  N   UNL     2     -11.202  11.614  69.227  1.00  0.00    -0.259 NA 
HETATM   11  C   UNL     2     -11.661  13.690  69.854  1.00  0.00    -0.276 A  
HETATM   12  C   UNL     2     -10.075  14.735  67.865  1.00  0.00    -0.221 C  
HETATM   13  N   UNL     2     -12.593  12.873  70.412  1.00  0.00    -0.141 NA 
HETATM   14  C   UNL     2     -11.535  15.124  69.854  1.00  0.00    -0.288 C  
HETATM   15  N   UNL     2     -10.830  15.556  68.715  1.00  0.00    -0.244 N  
HETATM   16  H   UNL     2     -13.379  13.158  70.996  1.00  0.00     0.000 HD 
HETATM   17  C   UNL     2     -12.280  11.608  70.044  1.00  0.00    -0.263 A  
HETATM   18  O   UNL     2     -11.969  15.953  70.656  1.00  0.00    -0.364 OA 
ENDROOT
BRANCH   2  19
HETATM   19  C   UNL     1     -12.399  13.002  65.345  1.00  0.00    -0.486 C  
BRANCH  19  20
HETATM   20  C   UNL     1     -12.486  14.504  65.048  1.00  0.00    -0.301 C  
HETATM   21  O   UNL     1     -12.628  14.759  63.653  1.00  0.00    -1.014 OA 
HETATM   22  H   UNL     1     -12.681  15.689  63.469  1.00  0.00     0.000 HD 
ENDBRANCH  19  20
ENDBRANCH   2  19
TORSDOF 2
ENDMDL
MODEL       29
REMARK 921   NORMALIZED FREE ENERGY PREDICTED BY IDOCK:   -4.70 KCAL/MOL
REMARK 922        TOTAL FREE ENERGY PREDICTED BY IDOCK:   -5.75 KCAL/MOL
REMARK 923 INTER-LIGAND FREE ENERGY PREDICTED BY IDOCK:   -5.49 KCAL/MOL
REMARK 924 INTRA-LIGAND FREE ENERGY PREDICTED BY IDOCK:   -0.26 KCAL/MOL
REMARK 927      BINDING AFFINITY PREDICTED BY RF-SCORE:    0.00 PKD
ROOT
HETATM    1  C   UNL     1      -7.183   6.178  66.923  1.00  0.00    -0.074 C  
HETATM    2  N   UNL     1      -7.903   7.497  66.792  1.00  0.00    -0.108 N  
HETATM    3  C   UNL     2      -7.671  11.367  67.376  1.00  0.00    -0.135 C  
HETATM    4  C   UNL     1      -7.051   8.298  65.827  1.00  0.00    -0.071 C  
HETATM    5  C   UNL     1      -7.980   8.103  68.192  1.00  0.00    -0.127 C  
HETATM    6  N   UNL     2      -9.014  11.257  66.822  1.00  0.00    -0.165 N  
HETATM    7  C   UNL     2     -10.732  11.537  63.594  1.00  0.00    -0.424 C  
HETATM    8  O   UNL     2      -8.468  10.616  64.670  1.00  0.00    -0.163 OA 
HETATM    9  C   UNL     2     -10.096  11.227  67.663  1.00  0.00    -0.179 A  
HETATM   10  N   UNL     2     -10.150  10.747  68.920  1.00  0.00    -0.197 NA 
HETATM   11  C   UNL     2     -11.363  11.477  67.214  1.00  0.00    -0.290 A  
HETATM   12  C   UNL     2      -9.273  11.117  65.462  1.00  0.00    -0.216 C  
HETATM   13  N   UNL     2     -12.215  11.165  68.225  1.00  0.00    -0.709 NA 
HETATM   14  C   UNL     2     -11.610  11.903  65.861  1.00  0.00    -0.224 C  
HETATM   15  N   UNL     2     -10.537  11.538  65.026  1.00  0.00    -0.287 N  
HETATM   16  H   UNL     2     -13.233  11.230  68.203  1.00  0.00     0.000 HD 
HETATM   17  C   UNL     2     -11.457  10.751  69.268  1.00  0.00    -0.298 A  
HETATM   18  O   UNL     2     -12.591  12.475  65.383  1.00  0.00    -0.656 OA 
ENDROOT
BRANCH   2  19
HETATM   19  C   UNL     1      -9.393   7.384  66.362  1.00  0.00    -0.155 C  
BRANCH  19  20
HETATM   20  C   UNL     1     -10.433   7.496  67.483  1.00  0.00    -0.271 C  
HETATM   21  O   UNL     1     -11.476   6.537  67.334  1.00  0.00    -0.740 OA 
HETATM   22  H   UNL     1     -12.120   6.606  68.028  1.00  0.00     0.000 HD 
ENDBRANCH  19  20
ENDBRANCH   2  19
TORSDOF 2
ENDMDL
MODEL       30
REMARK 921   NORMALIZED FREE ENERGY PREDICTED BY IDOCK:   -4.64 KCAL/MOL
REMARK 922        TOTAL FREE ENERGY PREDICTED BY IDOCK:   -5.69 KCAL/MOL
REMARK 923 INTER-LIGAND FREE ENERGY PREDICTED BY IDOCK:   -5.57 KCAL/MOL
REMARK 924 INTRA-LIGAND FREE ENERGY PREDICTED BY IDOCK:   -0.12 KCAL/MOL
REMARK 927      BINDING AFFINITY PREDICTED BY RF-SCORE:    0.00 PKD
ROOT
HETATM    1  C   UNL     1      -6.192  17.141  68.577  1.00  0.00    -0.151 C  
HETATM    2  N   UNL     1      -7.425  16.296  68.364  1.00  0.00    -0.157 N  
HETATM    3  C   UNL     2     -10.772  15.929  66.357  1.00  0.00    -0.256 C  
HETATM    4  C   UNL     1      -7.326  15.842  66.921  1.00  0.00    -0.172 C  
HETATM    5  C   UNL     1      -8.630  17.190  68.646  1.00  0.00    -0.260 C  
HETATM    6  N   UNL     2     -10.837  14.749  67.208  1.00  0.00    -0.301 N  
HETATM    7  C   UNL     2     -10.015  11.176  67.088  1.00  0.00    -0.186 C  
HETATM    8  O   UNL     2      -9.081  13.550  66.299  1.00  0.00    -0.125 OA 
HETATM    9  C   UNL     2     -11.570  14.783  68.364  1.00  0.00    -0.324 A  
HETATM   10  N   UNL     2     -11.820  15.847  69.151  1.00  0.00    -0.378 NA 
HETATM   11  C   UNL     2     -11.953  13.638  69.007  1.00  0.00    -0.353 A  
HETATM   12  C   UNL     2     -10.133  13.576  66.946  1.00  0.00    -0.256 C  
HETATM   13  N   UNL     2     -12.470  14.008  70.209  1.00  0.00    -0.349 NA 
HETATM   14  C   UNL     2     -11.709  12.339  68.437  1.00  0.00    -0.337 C  
HETATM   15  N   UNL     2     -10.660  12.401  67.501  1.00  0.00    -0.216 N  
HETATM   16  H   UNL     2     -12.835  13.385  70.930  1.00  0.00     0.000 HD 
HETATM   17  C   UNL     2     -12.410  15.359  70.267  1.00  0.00    -0.388 A  
HETATM   18  O   UNL     2     -12.248  11.258  68.683  1.00  0.00    -0.562 OA 
ENDROOT
BRANCH   2  19
HETATM   19  C   UNL     1      -7.594  15.126  69.375  1.00  0.00    -0.210 C  
BRANCH  19  20
HETATM   20  C   UNL     1      -6.325  14.336  69.716  1.00  0.00    -0.144 C  
HETATM   21  O   UNL     1      -6.458  13.628  70.945  1.00  0.00    -0.441 OA 
HETATM   22  H   UNL     1      -5.672  13.139  71.156  1.00  0.00     0.000 HD 
ENDBRANCH  19  20
ENDBRANCH   2  19
TORSDOF 2
ENDMDL
MODEL       31
REMARK 921   NORMALIZED FREE ENERGY PREDICTED BY IDOCK:   -4.59 KCAL/MOL
REMARK 922        TOTAL FREE ENERGY PREDICTED BY IDOCK:   -5.64 KCAL/MOL
REMARK 923 INTER-LIGAND FREE ENERGY PREDICTED BY IDOCK:   -5.50 KCAL/MOL
REMARK 924 INTRA-LIGAND FREE ENERGY PREDICTED BY IDOCK:   -0.14 KCAL/MOL
REMARK 927      BINDING AFFINITY PREDICTED BY RF-SCORE:    0.00 PKD
ROOT
HETATM    1  C   UNL     1     -11.988  13.183  69.608  1.00  0.00    -0.306 C  
HETATM    2  N   UNL     1     -11.088  14.324  69.201  1.00  0.00    -0.256 N  
HETATM    3  C   UNL     2      -9.066  15.939  66.255  1.00  0.00    -0.344 C  
HETATM    4  C   UNL     1     -11.876  15.064  68.138  1.00  0.00    -0.260 C  
HETATM    5  C   UNL     1      -9.792  13.704  68.684  1.00  0.00    -0.138 C  
HETATM    6  N   UNL     2      -8.761  16.869  67.334  1.00  0.00    -0.201 N  
HETATM    7  C   UNL     2      -9.949  20.067  68.680  1.00  0.00    -0.318 C  
HETATM    8  O   UNL     2     -10.861  17.790  67.624  1.00  0.00    -0.363 OA 
HETATM    9  C   UNL     2      -7.587  16.742  68.030  1.00  0.00    -0.169 A  
HETATM   10  N   UNL     2      -6.891  15.615  68.275  1.00  0.00    -0.114 NA 
HETATM   11  C   UNL     2      -7.089  17.763  68.791  1.00  0.00    -0.263 A  
HETATM   12  C   UNL     2      -9.635  17.867  67.756  1.00  0.00    -0.277 C  
HETATM   13  N   UNL     2      -6.049  17.258  69.506  1.00  0.00    -0.237 NA 
HETATM   14  C   UNL     2      -7.710  19.062  68.805  1.00  0.00    -0.347 C  
HETATM   15  N   UNL     2      -9.052  18.970  68.394  1.00  0.00    -0.334 N  
HETATM   16  H   UNL     2      -5.472  17.764  70.179  1.00  0.00     0.000 HD 
HETATM   17  C   UNL     2      -5.923  15.956  69.156  1.00  0.00    -0.121 A  
HETATM   18  O   UNL     2      -7.245  20.152  69.142  1.00  0.00    -0.196 OA 
ENDROOT
BRANCH   2  19
HETATM   19  C   UNL     1     -10.617  15.231  70.373  1.00  0.00    -0.197 C  
BRANCH  19  20
HETATM   20  C   UNL     1     -11.509  15.244  71.619  1.00  0.00    -0.405 C  
HETATM   21  O   UNL     1     -12.007  16.550  71.898  1.00  0.00    -0.650 OA 
HETATM   22  H   UNL     1     -12.559  16.559  72.671  1.00  0.00     0.000 HD 
ENDBRANCH  19  20
ENDBRANCH   2  19
TORSDOF 2
ENDMDL
MODEL       32
REMARK 921   NORMALIZED FREE ENERGY PREDICTED BY IDOCK:   -4.59 KCAL/MOL
REMARK 922        TOTAL FREE ENERGY PREDICTED BY IDOCK:   -5.63 KCAL/MOL
REMARK 923 INTER-LIGAND FREE ENERGY PREDICTED BY IDOCK:   -5.14 KCAL/MOL
REMARK 924 INTRA-LIGAND FREE ENERGY PREDICTED BY IDOCK:   -0.50 KCAL/MOL
REMARK 927      BINDING AFFINITY PREDICTED BY RF-SCORE:    0.00 PKD
ROOT
HETATM    1  C   UNL     1     -10.896   8.680  69.844  1.00  0.00    -0.208 C  
HETATM    2  N   UNL     1     -10.679   9.777  68.829  1.00  0.00    -0.221 N  
HETATM    3  C   UNL     2      -8.165  11.331  66.253  1.00  0.00    -0.126 C  
HETATM    4  C   UNL     1     -10.482   9.043  67.517  1.00  0.00    -0.272 C  
HETATM    5  C   UNL     1      -9.451  10.564  69.282  1.00  0.00    -0.173 C  
HETATM    6  N   UNL     2      -9.295  12.238  66.109  1.00  0.00    -0.212 N  
HETATM    7  C   UNL     2     -12.244  12.703  63.978  1.00  0.00    -0.463 C  
HETATM    8  O   UNL     2     -10.811  10.779  65.151  1.00  0.00    -0.152 OA 
HETATM    9  C   UNL     2      -9.298  13.433  66.779  1.00  0.00    -0.256 A  
HETATM   10  N   UNL     2      -8.716  13.718  67.960  1.00  0.00    -0.172 NA 
HETATM   11  C   UNL     2     -10.133  14.456  66.422  1.00  0.00    -0.286 A  
HETATM   12  C   UNL     2     -10.430  11.936  65.361  1.00  0.00    -0.270 C  
HETATM   13  N   UNL     2     -10.046  15.401  67.394  1.00  0.00    -0.232 NA 
HETATM   14  C   UNL     2     -10.964  14.373  65.250  1.00  0.00    -0.350 C  
HETATM   15  N   UNL     2     -11.166  13.029  64.883  1.00  0.00    -0.294 N  
HETATM   16  H   UNL     2     -10.555  16.285  67.429  1.00  0.00     0.000 HD 
HETATM   17  C   UNL     2      -9.155  14.949  68.308  1.00  0.00    -0.179 A  
HETATM   18  O   UNL     2     -11.503  15.272  64.602  1.00  0.00    -0.406 OA 
ENDROOT
BRANCH   2  19
HETATM   19  C   UNL     1     -11.803  10.850  68.781  1.00  0.00    -0.235 C  
BRANCH  19  20
HETATM   20  C   UNL     1     -11.543  12.139  69.568  1.00  0.00    -0.315 C  
HETATM   21  O   UNL     1     -12.024  13.288  68.875  1.00  0.00    -0.317 OA 
HETATM   22  H   UNL     1     -11.862  14.086  69.362  1.00  0.00     0.000 HD 
ENDBRANCH  19  20
ENDBRANCH   2  19
TORSDOF 2
ENDMDL
MODEL       33
REMARK 921   NORMALIZED FREE ENERGY PREDICTED BY IDOCK:   -4.58 KCAL/MOL
REMARK 922        TOTAL FREE ENERGY PREDICTED BY IDOCK:   -5.63 KCAL/MOL
REMARK 923 INTER-LIGAND FREE ENERGY PREDICTED BY IDOCK:   -5.20 KCAL/MOL
REMARK 924 INTRA-LIGAND FREE ENERGY PREDICTED BY IDOCK:   -0.43 KCAL/MOL
REMARK 927      BINDING AFFINITY PREDICTED BY RF-SCORE:    0.00 PKD
ROOT
HETATM    1  C   UNL     1      -5.708  10.622  68.419  1.00  0.00    -0.043 C  
HETATM    2  N   UNL     1      -7.050  10.791  67.750  1.00  0.00    -0.085 N  
HETATM    3  C   UNL     2     -10.397   9.012  66.748  1.00  0.00    -0.240 C  
HETATM    4  C   UNL     1      -8.057  10.527  68.853  1.00  0.00    -0.138 C  
HETATM    5  C   UNL     1      -7.108   9.777  66.610  1.00  0.00    -0.086 C  
HETATM    6  N   UNL     2     -10.632  10.349  66.219  1.00  0.00    -0.159 N  
HETATM    7  C   UNL     2     -12.241  13.495  67.204  1.00  0.00    -0.281 C  
HETATM    8  O   UNL     2     -10.767  11.509  68.213  1.00  0.00    -0.192 OA 
HETATM    9  C   UNL     2     -10.407  10.605  64.891  1.00  0.00    -0.277 A  
HETATM   10  N   UNL     2      -9.511  10.014  64.078  1.00  0.00    -0.277 NA 
HETATM   11  C   UNL     2     -10.930  11.707  64.273  1.00  0.00    -0.355 A  
HETATM   12  C   UNL     2     -11.024  11.427  67.007  1.00  0.00    -0.292 C  
HETATM   13  N   UNL     2     -10.359  11.784  63.042  1.00  0.00    -0.655 NA 
HETATM   14  C   UNL     2     -11.842  12.588  64.954  1.00  0.00    -0.386 C  
HETATM   15  N   UNL     2     -11.700  12.463  66.348  1.00  0.00    -0.400 N  
HETATM   16  H   UNL     2     -10.530  12.502  62.337  1.00  0.00     0.000 HD 
HETATM   17  C   UNL     2      -9.519  10.727  62.929  1.00  0.00    -0.350 A  
HETATM   18  O   UNL     2     -12.645  13.400  64.490  1.00  0.00    -0.601 OA 
ENDROOT
BRANCH   2  19
HETATM   19  C   UNL     1      -7.253  12.157  67.035  1.00  0.00    -0.067 C  
BRANCH  19  20
HETATM   20  C   UNL     1      -7.464  13.373  67.944  1.00  0.00    -0.149 C  
HETATM   21  O   UNL     1      -8.808  13.843  67.893  1.00  0.00    -0.166 OA 
HETATM   22  H   UNL     1      -8.939  14.597  68.455  1.00  0.00     0.000 HD 
ENDBRANCH  19  20
ENDBRANCH   2  19
TORSDOF 2
ENDMDL
MODEL       34
REMARK 921   NORMALIZED FREE ENERGY PREDICTED BY IDOCK:   -4.58 KCAL/MOL
REMARK 922        TOTAL FREE ENERGY PREDICTED BY IDOCK:   -5.62 KCAL/MOL
REMARK 923 INTER-LIGAND FREE ENERGY PREDICTED BY IDOCK:   -5.50 KCAL/MOL
REMARK 924 INTRA-LIGAND FREE ENERGY PREDICTED BY IDOCK:   -0.12 KCAL/MOL
REMARK 927      BINDING AFFINITY PREDICTED BY RF-SCORE:    0.00 PKD
ROOT
HETATM    1  C   UNL     1      -7.359  16.239  67.236  1.00  0.00    -0.182 C  
HETATM    2  N   UNL     1      -8.517  15.431  67.769  1.00  0.00    -0.146 N  
HETATM    3  C   UNL     2     -12.228  14.325  67.152  1.00  0.00    -0.277 C  
HETATM    4  C   UNL     1      -8.763  14.378  66.707  1.00  0.00    -0.159 C  
HETATM    5  C   UNL     1      -9.684  16.399  67.956  1.00  0.00    -0.235 C  
HETATM    6  N   UNL     2     -11.951  13.651  68.414  1.00  0.00    -0.367 N  
HETATM    7  C   UNL     2     -10.855  10.374  69.644  1.00  0.00    -0.277 C  
HETATM    8  O   UNL     2     -10.395  12.113  67.669  1.00  0.00    -0.199 OA 
HETATM    9  C   UNL     2     -12.351  14.224  69.592  1.00  0.00    -0.266 A  
HETATM   10  N   UNL     2     -12.482  15.535  69.869  1.00  0.00    -0.290 NA 
HETATM   11  C   UNL     2     -12.439  13.501  70.750  1.00  0.00    -0.353 A  
HETATM   12  C   UNL     2     -11.235  12.461  68.506  1.00  0.00    -0.279 C  
HETATM   13  N   UNL     2     -12.651  14.386  71.759  1.00  0.00    -0.344 NA 
HETATM   14  C   UNL     2     -12.232  12.076  70.763  1.00  0.00    -0.286 C  
HETATM   15  N   UNL     2     -11.481  11.677  69.641  1.00  0.00    -0.290 N  
HETATM   16  H   UNL     2     -12.750  14.163  72.750  1.00  0.00     0.000 HD 
HETATM   17  C   UNL     2     -12.705  15.618  71.201  1.00  0.00    -0.465 A  
HETATM   18  O   UNL     2     -12.581  11.238  71.596  1.00  0.00    -0.331 OA 
ENDROOT
BRANCH   2  19
HETATM   19  C   UNL     1      -8.300  14.843  69.192  1.00  0.00    -0.150 C  
BRANCH  19  20
HETATM   20  C   UNL     1      -6.882  14.956  69.763  1.00  0.00    -0.182 C  
HETATM   21  O   UNL     1      -6.659  14.021  70.814  1.00  0.00    -0.423 OA 
HETATM   22  H   UNL     1      -5.781  14.091  71.168  1.00  0.00     0.000 HD 
ENDBRANCH  19  20
ENDBRANCH   2  19
TORSDOF 2
ENDMDL
MODEL       35
REMARK 921   NORMALIZED FREE ENERGY PREDICTED BY IDOCK:   -4.58 KCAL/MOL
REMARK 922        TOTAL FREE ENERGY PREDICTED BY IDOCK:   -5.62 KCAL/MOL
REMARK 923 INTER-LIGAND FREE ENERGY PREDICTED BY IDOCK:   -5.45 KCAL/MOL
REMARK 924 INTRA-LIGAND FREE ENERGY PREDICTED BY IDOCK:   -0.17 KCAL/MOL
REMARK 927      BINDING AFFINITY PREDICTED BY RF-SCORE:    0.00 PKD
ROOT
HETATM    1  C   UNL     1     -12.239  13.861  70.028  1.00  0.00    -0.344 C  
HETATM    2  N   UNL     1     -11.647  13.437  68.706  1.00  0.00    -0.301 N  
HETATM    3  C   UNL     2      -9.847  14.654  65.443  1.00  0.00    -0.245 C  
HETATM    4  C   UNL     1     -10.180  13.805  68.815  1.00  0.00    -0.163 C  
HETATM    5  C   UNL     1     -12.394  14.204  67.618  1.00  0.00    -0.038 C  
HETATM    6  N   UNL     2      -9.945  13.225  65.180  1.00  0.00    -0.206 N  
HETATM    7  C   UNL     2      -7.928  10.182  65.525  1.00  0.00    -0.146 C  
HETATM    8  O   UNL     2      -8.489  12.458  66.804  1.00  0.00    -0.174 OA 
HETATM    9  C   UNL     2     -10.965  12.744  64.401  1.00  0.00    -0.361 A  
HETATM   10  N   UNL     2     -12.203  13.255  64.257  1.00  0.00    -0.515 NA 
HETATM   11  C   UNL     2     -10.915  11.499  63.839  1.00  0.00    -0.401 A  
HETATM   12  C   UNL     2      -9.082  12.283  65.733  1.00  0.00     0.122 C  
HETATM   13  N   UNL     2     -12.144  11.246  63.317  1.00  0.00    -0.665 NA 
HETATM   14  C   UNL     2      -9.736  10.678  63.936  1.00  0.00    -0.321 C  
HETATM   15  N   UNL     2      -8.945  11.080  65.028  1.00  0.00    -0.165 N  
HETATM   16  H   UNL     2     -12.436  10.394  62.837  1.00  0.00     0.000 HD 
HETATM   17  C   UNL     2     -12.907  12.339  63.553  1.00  0.00    -0.283 A  
HETATM   18  O   UNL     2      -9.387   9.718  63.247  1.00  0.00    -0.259 OA 
ENDROOT
BRANCH   2  19
HETATM   19  C   UNL     1     -11.889  11.946  68.334  1.00  0.00    -0.289 C  
BRANCH  19  20
HETATM   20  C   UNL     1     -10.916  10.929  68.941  1.00  0.00    -0.229 C  
HETATM   21  O   UNL     1     -11.436   9.604  68.887  1.00  0.00    -0.465 OA 
HETATM   22  H   UNL     1     -10.834   8.974  69.263  1.00  0.00     0.000 HD 
ENDBRANCH  19  20
ENDBRANCH   2  19
TORSDOF 2
ENDMDL
MODEL       36
REMARK 921   NORMALIZED FREE ENERGY PREDICTED BY IDOCK:   -4.55 KCAL/MOL
REMARK 922        TOTAL FREE ENERGY PREDICTED BY IDOCK:   -5.59 KCAL/MOL
REMARK 923 INTER-LIGAND FREE ENERGY PREDICTED BY IDOCK:   -5.40 KCAL/MOL
REMARK 924 INTRA-LIGAND FREE ENERGY PREDICTED BY IDOCK:   -0.19 KCAL/MOL
REMARK 927      BINDING AFFINITY PREDICTED BY RF-SCORE:    0.00 PKD
ROOT
HETATM    1  C   UNL     1      -8.946   7.785  69.801  1.00  0.00    -0.146 C  
HETATM    2  N   UNL     1      -9.110   8.833  68.728  1.00  0.00    -0.138 N  
HETATM    3  C   UNL     2      -7.666  12.150  67.216  1.00  0.00    -0.168 C  
HETATM    4  C   UNL     1      -7.843   8.730  67.903  1.00  0.00    -0.102 C  
HETATM    5  C   UNL     1      -9.272  10.175  69.439  1.00  0.00    -0.214 C  
HETATM    6  N   UNL     2      -8.807  11.928  66.339  1.00  0.00    -0.184 N  
HETATM    7  C   UNL     2      -9.569  10.415  63.086  1.00  0.00    -0.303 C  
HETATM    8  O   UNL     2      -8.066  10.023  65.258  1.00  0.00    -0.133 OA 
HETATM    9  C   UNL     2      -9.985  12.585  66.575  1.00  0.00    -0.244 A  
HETATM   10  N   UNL     2     -10.477  12.997  67.759  1.00  0.00    -0.224 NA 
HETATM   11  C   UNL     2     -10.953  12.693  65.615  1.00  0.00    -0.280 A  
HETATM   12  C   UNL     2      -8.796  11.020  65.283  1.00  0.00    -0.129 C  
HETATM   13  N   UNL     2     -12.059  13.204  66.218  1.00  0.00    -0.409 NA 
HETATM   14  C   UNL     2     -10.734  12.227  64.271  1.00  0.00    -0.351 C  
HETATM   15  N   UNL     2      -9.704  11.268  64.244  1.00  0.00    -0.248 N  
HETATM   16  H   UNL     2     -12.959  13.394  65.775  1.00  0.00     0.000 HD 
HETATM   17  C   UNL     2     -11.742  13.411  67.517  1.00  0.00    -0.366 A  
HETATM   18  O   UNL     2     -11.322  12.523  63.229  1.00  0.00    -0.456 OA 
ENDROOT
BRANCH   2  19
HETATM   19  C   UNL     1     -10.413   8.706  67.888  1.00  0.00    -0.209 C  
BRANCH  19  20
HETATM   20  C   UNL     1     -10.464   7.545  66.890  1.00  0.00    -0.315 C  
HETATM   21  O   UNL     1     -11.516   6.633  67.194  1.00  0.00    -0.779 OA 
HETATM   22  H   UNL     1     -11.548   5.913  66.576  1.00  0.00     0.000 HD 
ENDBRANCH  19  20
ENDBRANCH   2  19
TORSDOF 2
ENDMDL
MODEL       37
REMARK 921   NORMALIZED FREE ENERGY PREDICTED BY IDOCK:   -4.46 KCAL/MOL
REMARK 922        TOTAL FREE ENERGY PREDICTED BY IDOCK:   -5.49 KCAL/MOL
REMARK 923 INTER-LIGAND FREE ENERGY PREDICTED BY IDOCK:   -5.06 KCAL/MOL
REMARK 924 INTRA-LIGAND FREE ENERGY PREDICTED BY IDOCK:   -0.43 KCAL/MOL
REMARK 927      BINDING AFFINITY PREDICTED BY RF-SCORE:    0.00 PKD
ROOT
HETATM    1  C   UNL     1     -10.347  12.067  63.215  1.00  0.00    -0.359 C  
HETATM    2  N   UNL     1     -10.445  12.176  64.717  1.00  0.00    -0.283 N  
HETATM    3  C   UNL     2      -8.423  12.445  68.066  1.00  0.00    -0.176 C  
HETATM    4  C   UNL     1      -9.806  13.512  65.040  1.00  0.00    -0.054 C  
HETATM    5  C   UNL     1      -9.694  10.979  65.299  1.00  0.00    -0.239 C  
HETATM    6  N   UNL     2      -9.788  12.452  68.573  1.00  0.00    -0.191 N  
HETATM    7  C   UNL     2     -12.376  14.847  69.584  1.00  0.00    -0.208 C  
HETATM    8  O   UNL     2     -10.472  14.498  67.743  1.00  0.00    -0.239 OA 
HETATM    9  C   UNL     2     -10.347  11.291  69.040  1.00  0.00    -0.166 A  
HETATM   10  N   UNL     2     -10.083  10.031  68.643  1.00  0.00    -0.165 NA 
HETATM   11  C   UNL     2     -11.460  11.297  69.834  1.00  0.00    -0.293 A  
HETATM   12  C   UNL     2     -10.606  13.579  68.558  1.00  0.00    -0.247 C  
HETATM   13  N   UNL     2     -11.878  10.009  69.946  1.00  0.00    -0.450 NA 
HETATM   14  C   UNL     2     -12.030  12.527  70.319  1.00  0.00    -0.283 C  
HETATM   15  N   UNL     2     -11.640  13.605  69.503  1.00  0.00    -0.294 N  
HETATM   16  H   UNL     2     -12.693   9.678  70.465  1.00  0.00     0.000 HD 
HETATM   17  C   UNL     2     -11.010   9.247  69.240  1.00  0.00    -0.085 A  
HETATM   18  O   UNL     2     -12.788  12.721  71.271  1.00  0.00    -0.359 OA 
ENDROOT
BRANCH   2  19
HETATM   19  C   UNL     1     -11.882  12.017  65.289  1.00  0.00    -0.205 C  
BRANCH  19  20
HETATM   20  C   UNL     1     -12.848  13.178  65.024  1.00  0.00    -0.302 C  
HETATM   21  O   UNL     1     -13.035  13.985  66.183  1.00  0.00    -0.459 OA 
HETATM   22  H   UNL     1     -13.633  14.703  66.019  1.00  0.00     0.000 HD 
ENDBRANCH  19  20
ENDBRANCH   2  19
TORSDOF 2
ENDMDL
MODEL       38
REMARK 921   NORMALIZED FREE ENERGY PREDICTED BY IDOCK:   -4.38 KCAL/MOL
REMARK 922        TOTAL FREE ENERGY PREDICTED BY IDOCK:   -5.40 KCAL/MOL
REMARK 923 INTER-LIGAND FREE ENERGY PREDICTED BY IDOCK:   -5.15 KCAL/MOL
REMARK 924 INTRA-LIGAND FREE ENERGY PREDICTED BY IDOCK:   -0.25 KCAL/MOL
REMARK 927      BINDING AFFINITY PREDICTED BY RF-SCORE:    0.00 PKD
ROOT
HETATM    1  C   UNL     1     -10.767   5.446  73.745  1.00  0.00    -0.280 C  
HETATM    2  N   UNL     1     -10.475   6.296  72.532  1.00  0.00    -0.197 N  
HETATM    3  C   UNL     2      -8.232   9.159  71.068  1.00  0.00    -0.137 C  
HETATM    4  C   UNL     1      -9.049   5.943  72.159  1.00  0.00    -0.143 C  
HETATM    5  C   UNL     1     -10.656   7.752  72.957  1.00  0.00    -0.379 C  
HETATM    6  N   UNL     2      -9.091   8.878  69.926  1.00  0.00    -0.154 N  
HETATM    7  C   UNL     2      -9.078   6.877  66.852  1.00  0.00    -0.139 C  
HETATM    8  O   UNL     2      -8.329   6.757  69.413  1.00  0.00    -0.129 OA 
HETATM    9  C   UNL     2     -10.190   9.662  69.692  1.00  0.00    -0.222 A  
HETATM   10  N   UNL     2     -10.943  10.318  70.597  1.00  0.00    -0.285 NA 
HETATM   11  C   UNL     2     -10.818   9.677  68.478  1.00  0.00    -0.161 A  
HETATM   12  C   UNL     2      -8.897   7.799  69.068  1.00  0.00    -0.138 C  
HETATM   13  N   UNL     2     -11.973  10.376  68.632  1.00  0.00    -0.745 NA 
HETATM   14  C   UNL     2     -10.285   8.961  67.348  1.00  0.00    -0.249 C  
HETATM   15  N   UNL     2      -9.427   7.932  67.778  1.00  0.00    -0.143 N  
HETATM   16  H   UNL     2     -12.674  10.557  67.913  1.00  0.00     0.000 HD 
HETATM   17  C   UNL     2     -12.018  10.785  69.922  1.00  0.00    -0.342 A  
HETATM   18  O   UNL     2     -10.504   9.114  66.145  1.00  0.00    -0.141 OA 
ENDROOT
BRANCH   2  19
HETATM   19  C   UNL     1     -11.486   6.129  71.363  1.00  0.00    -0.254 C  
BRANCH  19  20
HETATM   20  C   UNL     1     -12.576   7.201  71.251  1.00  0.00    -0.380 C  
HETATM   21  O   UNL     1     -13.738   6.852  71.998  1.00  0.00    -0.538 OA 
HETATM   22  H   UNL     1     -14.414   7.516  71.928  1.00  0.00     0.000 HD 
ENDBRANCH  19  20
ENDBRANCH   2  19
TORSDOF 2
ENDMDL
MODEL       39
REMARK 921   NORMALIZED FREE ENERGY PREDICTED BY IDOCK:   -4.37 KCAL/MOL
REMARK 922        TOTAL FREE ENERGY PREDICTED BY IDOCK:   -5.38 KCAL/MOL
REMARK 923 INTER-LIGAND FREE ENERGY PREDICTED BY IDOCK:   -5.26 KCAL/MOL
REMARK 924 INTRA-LIGAND FREE ENERGY PREDICTED BY IDOCK:   -0.12 KCAL/MOL
REMARK 927      BINDING AFFINITY PREDICTED BY RF-SCORE:    0.00 PKD
ROOT
HETATM    1  C   UNL     1     -10.755  16.551  67.212  1.00  0.00    -0.243 C  
HETATM    2  N   UNL     1     -10.483  15.099  67.521  1.00  0.00    -0.254 N  
HETATM    3  C   UNL     2     -10.755  11.418  66.198  1.00  0.00    -0.267 C  
HETATM    4  C   UNL     1      -9.494  14.665  66.457  1.00  0.00    -0.297 C  
HETATM    5  C   UNL     1     -11.824  14.371  67.445  1.00  0.00    -0.400 C  
HETATM    6  N   UNL     2     -10.155  11.192  67.506  1.00  0.00    -0.181 N  
HETATM    7  C   UNL     2      -6.843  10.732  69.012  1.00  0.00    -0.075 C  
HETATM    8  O   UNL     2      -8.089  12.156  67.127  1.00  0.00    -0.167 OA 
HETATM    9  C   UNL     2     -10.947  10.836  68.566  1.00  0.00    -0.243 A  
HETATM   10  N   UNL     2     -12.236  11.163  68.778  1.00  0.00    -0.535 NA 
HETATM   11  C   UNL     2     -10.424  10.278  69.699  1.00  0.00    -0.253 A  
HETATM   12  C   UNL     2      -8.801  11.377  67.770  1.00  0.00    -0.143 C  
HETATM   13  N   UNL     2     -11.420  10.242  70.624  1.00  0.00    -0.329 NA 
HETATM   14  C   UNL     2      -9.031   9.925  69.789  1.00  0.00    -0.221 C  
HETATM   15  N   UNL     2      -8.277  10.656  68.851  1.00  0.00    -0.137 N  
HETATM   16  H   UNL     2     -11.348   9.892  71.580  1.00  0.00     0.000 HD 
HETATM   17  C   UNL     2     -12.525  10.756  70.036  1.00  0.00    -0.248 A  
HETATM   18  O   UNL     2      -8.465   9.144  70.555  1.00  0.00    -0.166 OA 
ENDROOT
BRANCH   2  19
HETATM   19  C   UNL     1      -9.999  14.822  68.972  1.00  0.00    -0.218 C  
BRANCH  19  20
HETATM   20  C   UNL     1     -10.632  15.682  70.073  1.00  0.00    -0.332 C  
HETATM   21  O   UNL     1     -10.899  14.923  71.248  1.00  0.00    -0.552 OA 
HETATM   22  H   UNL     1     -11.291  15.455  71.930  1.00  0.00     0.000 HD 
ENDBRANCH  19  20
ENDBRANCH   2  19
TORSDOF 2
ENDMDL
MODEL       40
REMARK 921   NORMALIZED FREE ENERGY PREDICTED BY IDOCK:   -4.29 KCAL/MOL
REMARK 922        TOTAL FREE ENERGY PREDICTED BY IDOCK:   -5.30 KCAL/MOL
REMARK 923 INTER-LIGAND FREE ENERGY PREDICTED BY IDOCK:   -4.85 KCAL/MOL
REMARK 924 INTRA-LIGAND FREE ENERGY PREDICTED BY IDOCK:   -0.44 KCAL/MOL
REMARK 927      BINDING AFFINITY PREDICTED BY RF-SCORE:    0.00 PKD
ROOT
HETATM    1  C   UNL     1     -11.549  15.754  70.848  1.00  0.00    -0.405 C  
HETATM    2  N   UNL     1     -10.960  15.077  69.634  1.00  0.00    -0.269 N  
HETATM    3  C   UNL     2      -9.077  15.617  66.238  1.00  0.00    -0.341 C  
HETATM    4  C   UNL     1      -9.481  15.402  69.702  1.00  0.00    -0.216 C  
HETATM    5  C   UNL     1     -11.663  15.664  68.413  1.00  0.00    -0.290 C  
HETATM    6  N   UNL     2      -9.231  14.168  66.235  1.00  0.00    -0.184 N  
HETATM    7  C   UNL     2      -7.344  11.161  67.156  1.00  0.00    -0.121 C  
HETATM    8  O   UNL     2      -7.825  13.650  67.996  1.00  0.00    -0.123 OA 
HETATM    9  C   UNL     2     -10.261  13.595  65.536  1.00  0.00    -0.302 A  
HETATM   10  N   UNL     2     -11.475  14.119  65.280  1.00  0.00    -0.319 NA 
HETATM   11  C   UNL     2     -10.256  12.268  65.207  1.00  0.00    -0.278 A  
HETATM   12  C   UNL     2      -8.413  13.309  66.964  1.00  0.00    -0.128 C  
HETATM   13  N   UNL     2     -11.489  11.973  64.717  1.00  0.00    -0.317 NA 
HETATM   14  C   UNL     2      -9.114  11.433  65.472  1.00  0.00    -0.137 C  
HETATM   15  N   UNL     2      -8.319  11.994  66.488  1.00  0.00    -0.088 N  
HETATM   16  H   UNL     2     -11.810  11.060  64.393  1.00  0.00     0.000 HD 
HETATM   17  C   UNL     2     -12.209  13.119  64.740  1.00  0.00    -0.425 A  
HETATM   18  O   UNL     2      -8.797  10.352  64.972  1.00  0.00    -0.174 OA 
ENDROOT
BRANCH   2  19
HETATM   19  C   UNL     1     -11.260  13.554  69.531  1.00  0.00    -0.132 C  
BRANCH  19  20
HETATM   20  C   UNL     1     -12.277  13.135  68.463  1.00  0.00    -0.032 C  
HETATM   21  O   UNL     1     -12.051  11.802  68.013  1.00  0.00    -0.572 OA 
HETATM   22  H   UNL     1     -12.681  11.543  67.351  1.00  0.00     0.000 HD 
ENDBRANCH  19  20
ENDBRANCH   2  19
TORSDOF 2
ENDMDL
MODEL       41
REMARK 921   NORMALIZED FREE ENERGY PREDICTED BY IDOCK:   -4.28 KCAL/MOL
REMARK 922        TOTAL FREE ENERGY PREDICTED BY IDOCK:   -5.29 KCAL/MOL
REMARK 923 INTER-LIGAND FREE ENERGY PREDICTED BY IDOCK:   -5.01 KCAL/MOL
REMARK 924 INTRA-LIGAND FREE ENERGY PREDICTED BY IDOCK:   -0.28 KCAL/MOL
REMARK 927      BINDING AFFINITY PREDICTED BY RF-SCORE:    0.00 PKD
ROOT
HETATM    1  C   UNL     1     -10.032  13.063  66.101  1.00  0.00    -0.278 C  
HETATM    2  N   UNL     1      -9.991  11.787  66.907  1.00  0.00    -0.197 N  
HETATM    3  C   UNL     2      -7.724   8.856  68.186  1.00  0.00    -0.100 C  
HETATM    4  C   UNL     1      -9.036  12.090  68.044  1.00  0.00    -0.187 C  
HETATM    5  C   UNL     1      -9.500  10.686  65.969  1.00  0.00    -0.193 C  
HETATM    6  N   UNL     2      -9.009   8.471  68.753  1.00  0.00    -0.139 N  
HETATM    7  C   UNL     2     -10.884   8.797  71.888  1.00  0.00    -0.360 C  
HETATM    8  O   UNL     2      -9.255  10.182  70.287  1.00  0.00    -0.050 OA 
HETATM    9  C   UNL     2      -9.787   7.546  68.108  1.00  0.00    -0.159 A  
HETATM   10  N   UNL     2      -9.855   7.303  66.785  1.00  0.00    -0.210 NA 
HETATM   11  C   UNL     2     -10.807   6.895  68.745  1.00  0.00    -0.192 A  
HETATM   12  C   UNL     2      -9.539   9.041  69.907  1.00  0.00    -0.183 C  
HETATM   13  N   UNL     2     -11.506   6.218  67.795  1.00  0.00    -0.537 NA 
HETATM   14  C   UNL     2     -11.037   7.059  70.157  1.00  0.00    -0.285 C  
HETATM   15  N   UNL     2     -10.467   8.262  70.612  1.00  0.00    -0.200 N  
HETATM   16  H   UNL     2     -12.335   5.642  67.946  1.00  0.00     0.000 HD 
HETATM   17  C   UNL     2     -10.893   6.454  66.611  1.00  0.00    -0.182 A  
HETATM   18  O   UNL     2     -11.657   6.339  70.942  1.00  0.00    -0.331 OA 
ENDROOT
BRANCH   2  19
HETATM   19  C   UNL     1     -11.380  11.272  67.379  1.00  0.00    -0.276 C  
BRANCH  19  20
HETATM   20  C   UNL     1     -11.831  11.721  68.774  1.00  0.00    -0.320 C  
HETATM   21  O   UNL     1     -12.617  10.725  69.421  1.00  0.00    -0.632 OA 
HETATM   22  H   UNL     1     -12.897  11.003  70.285  1.00  0.00     0.000 HD 
ENDBRANCH  19  20
ENDBRANCH   2  19
TORSDOF 2
ENDMDL
MODEL       42
REMARK 921   NORMALIZED FREE ENERGY PREDICTED BY IDOCK:   -4.27 KCAL/MOL
REMARK 922        TOTAL FREE ENERGY PREDICTED BY IDOCK:   -5.28 KCAL/MOL
REMARK 923 INTER-LIGAND FREE ENERGY PREDICTED BY IDOCK:   -4.87 KCAL/MOL
REMARK 924 INTRA-LIGAND FREE ENERGY PREDICTED BY IDOCK:   -0.41 KCAL/MOL
REMARK 927      BINDING AFFINITY PREDICTED BY RF-SCORE:    0.00 PKD
ROOT
HETATM    1  C   UNL     1      -7.630  10.908  66.393  1.00  0.00    -0.146 C  
HETATM    2  N   UNL     1      -8.729  11.618  67.146  1.00  0.00    -0.158 N  
HETATM    3  C   UNL     2     -12.282  13.255  66.876  1.00  0.00    -0.257 C  
HETATM    4  C   UNL     1      -9.920  10.686  67.042  1.00  0.00    -0.202 C  
HETATM    5  C   UNL     1      -8.941  12.964  66.456  1.00  0.00    -0.078 C  
HETATM    6  N   UNL     2     -11.989  13.475  68.285  1.00  0.00    -0.362 N  
HETATM    7  C   UNL     2     -12.620  11.910  71.542  1.00  0.00    -0.193 C  
HETATM    8  O   UNL     2     -12.038  11.281  69.012  1.00  0.00    -0.394 OA 
HETATM    9  C   UNL     2     -11.497  14.685  68.697  1.00  0.00    -0.300 A  
HETATM   10  N   UNL     2     -10.729  15.544  67.999  1.00  0.00    -0.274 NA 
HETATM   11  C   UNL     2     -11.536  15.069  70.009  1.00  0.00    -0.276 A  
HETATM   12  C   UNL     2     -12.124  12.489  69.259  1.00  0.00    -0.161 C  
HETATM   13  N   UNL     2     -10.792  16.201  70.117  1.00  0.00    -0.341 NA 
HETATM   14  C   UNL     2     -12.204  14.272  71.005  1.00  0.00    -0.356 C  
HETATM   15  N   UNL     2     -12.321  12.938  70.572  1.00  0.00    -0.324 N  
HETATM   16  H   UNL     2     -10.614  16.731  70.971  1.00  0.00     0.000 HD 
HETATM   17  C   UNL     2     -10.334  16.494  68.878  1.00  0.00    -0.292 A  
HETATM   18  O   UNL     2     -12.622  14.593  72.119  1.00  0.00    -0.317 OA 
ENDROOT
BRANCH   2  19
HETATM   19  C   UNL     1      -8.368  12.010  68.607  1.00  0.00    -0.036 C  
BRANCH  19  20
HETATM   20  C   UNL     1      -7.487  13.253  68.777  1.00  0.00    -0.053 C  
HETATM   21  O   UNL     1      -8.130  14.252  69.565  1.00  0.00    -0.354 OA 
HETATM   22  H   UNL     1      -7.585  15.022  69.670  1.00  0.00     0.000 HD 
ENDBRANCH  19  20
ENDBRANCH   2  19
TORSDOF 2
ENDMDL
MODEL       43
REMARK 921   NORMALIZED FREE ENERGY PREDICTED BY IDOCK:   -4.23 KCAL/MOL
REMARK 922        TOTAL FREE ENERGY PREDICTED BY IDOCK:   -5.24 KCAL/MOL
REMARK 923 INTER-LIGAND FREE ENERGY PREDICTED BY IDOCK:   -4.93 KCAL/MOL
REMARK 924 INTRA-LIGAND FREE ENERGY PREDICTED BY IDOCK:   -0.30 KCAL/MOL
REMARK 927      BINDING AFFINITY PREDICTED BY RF-SCORE:    0.00 PKD
ROOT
HETATM    1  C   UNL     1     -12.043  15.235  64.098  1.00  0.00    -0.129 C  
HETATM    2  N   UNL     1     -11.410  14.295  65.093  1.00  0.00    -0.329 N  
HETATM    3  C   UNL     2     -10.894  13.501  68.898  1.00  0.00    -0.224 C  
HETATM    4  C   UNL     1     -12.583  13.698  65.846  1.00  0.00    -0.425 C  
HETATM    5  C   UNL     1     -10.482  15.134  65.969  1.00  0.00    -0.319 C  
HETATM    6  N   UNL     2     -10.136  12.416  68.290  1.00  0.00    -0.223 N  
HETATM    7  C   UNL     2     -10.584   8.911  67.305  1.00  0.00    -0.234 C  
HETATM    8  O   UNL     2     -11.884  11.244  67.334  1.00  0.00    -0.590 OA 
HETATM    9  C   UNL     2      -8.777  12.525  68.161  1.00  0.00    -0.190 A  
HETATM   10  N   UNL     2      -8.051  13.648  67.999  1.00  0.00    -0.148 NA 
HETATM   11  C   UNL     2      -7.986  11.433  67.934  1.00  0.00    -0.120 A  
HETATM   12  C   UNL     2     -10.726  11.270  67.764  1.00  0.00    -0.220 C  
HETATM   13  N   UNL     2      -6.740  11.893  67.647  1.00  0.00    -0.093 NA 
HETATM   14  C   UNL     2      -8.528  10.099  67.940  1.00  0.00    -0.118 C  
HETATM   15  N   UNL     2      -9.914  10.129  67.700  1.00  0.00    -0.174 N  
HETATM   16  H   UNL     2      -5.921  11.328  67.418  1.00  0.00     0.000 HD 
HETATM   17  C   UNL     2      -6.790  13.244  67.721  1.00  0.00    -0.153 A  
HETATM   18  O   UNL     2      -7.955   9.017  68.085  1.00  0.00    -0.100 OA 
ENDROOT
BRANCH   2  19
HETATM   19  C   UNL     1     -10.462  13.231  64.471  1.00  0.00    -0.415 C  
BRANCH  19  20
HETATM   20  C   UNL     1     -11.123  11.935  63.988  1.00  0.00    -0.391 C  
HETATM   21  O   UNL     1     -10.274  10.806  64.178  1.00  0.00    -0.336 OA 
HETATM   22  H   UNL     1     -10.683  10.003  63.878  1.00  0.00     0.000 HD 
ENDBRANCH  19  20
ENDBRANCH   2  19
TORSDOF 2
ENDMDL
MODEL       44
REMARK 921   NORMALIZED FREE ENERGY PREDICTED BY IDOCK:   -4.19 KCAL/MOL
REMARK 922        TOTAL FREE ENERGY PREDICTED BY IDOCK:   -5.19 KCAL/MOL
REMARK 923 INTER-LIGAND FREE ENERGY PREDICTED BY IDOCK:   -5.00 KCAL/MOL
REMARK 924 INTRA-LIGAND FREE ENERGY PREDICTED BY IDOCK:   -0.19 KCAL/MOL
REMARK 927      BINDING AFFINITY PREDICTED BY RF-SCORE:    0.00 PKD
ROOT
HETATM    1  C   UNL     1     -11.654  12.342  66.504  1.00  0.00    -0.377 C  
HETATM    2  N   UNL     1     -10.971  13.551  67.095  1.00  0.00    -0.287 N  
HETATM    3  C   UNL     2     -11.156  16.329  69.856  1.00  0.00    -0.347 C  
HETATM    4  C   UNL     1     -10.645  13.143  68.518  1.00  0.00    -0.259 C  
HETATM    5  C   UNL     1     -11.961  14.710  67.000  1.00  0.00    -0.276 C  
HETATM    6  N   UNL     2      -9.916  16.696  69.186  1.00  0.00    -0.271 N  
HETATM    7  C   UNL     2      -6.302  16.169  69.524  1.00  0.00    -0.191 C  
HETATM    8  O   UNL     2      -8.624  14.878  69.794  1.00  0.00    -0.013 OA 
HETATM    9  C   UNL     2      -9.922  17.683  68.236  1.00  0.00    -0.339 A  
HETATM   10  N   UNL     2     -10.930  18.027  67.411  1.00  0.00    -0.204 NA 
HETATM   11  C   UNL     2      -8.771  18.305  67.837  1.00  0.00    -0.265 A  
HETATM   12  C   UNL     2      -8.704  16.050  69.411  1.00  0.00    -0.153 C  
HETATM   13  N   UNL     2      -9.082  19.066  66.754  1.00  0.00    -0.308 NA 
HETATM   14  C   UNL     2      -7.512  18.038  68.481  1.00  0.00    -0.279 C  
HETATM   15  N   UNL     2      -7.547  16.792  69.134  1.00  0.00    -0.221 N  
HETATM   16  H   UNL     2      -8.438  19.645  66.215  1.00  0.00     0.000 HD 
HETATM   17  C   UNL     2     -10.407  18.909  66.527  1.00  0.00    -0.431 A  
HETATM   18  O   UNL     2      -6.478  18.708  68.494  1.00  0.00    -0.216 OA 
ENDROOT
BRANCH   2  19
HETATM   19  C   UNL     1      -9.738  14.057  66.294  1.00  0.00    -0.295 C  
BRANCH  19  20
HETATM   20  C   UNL     1      -8.376  13.498  66.721  1.00  0.00     0.120 C  
HETATM   21  O   UNL     1      -8.171  12.176  66.229  1.00  0.00    -0.388 OA 
HETATM   22  H   UNL     1      -7.328  11.829  66.494  1.00  0.00     0.000 HD 
ENDBRANCH  19  20
ENDBRANCH   2  19
TORSDOF 2
ENDMDL
MODEL       45
REMARK 921   NORMALIZED FREE ENERGY PREDICTED BY IDOCK:   -4.18 KCAL/MOL
REMARK 922        TOTAL FREE ENERGY PREDICTED BY IDOCK:   -5.18 KCAL/MOL
REMARK 923 INTER-LIGAND FREE ENERGY PREDICTED BY IDOCK:   -4.82 KCAL/MOL
REMARK 924 INTRA-LIGAND FREE ENERGY PREDICTED BY IDOCK:   -0.36 KCAL/MOL
REMARK 927      BINDING AFFINITY PREDICTED BY RF-SCORE:    0.00 PKD
ROOT
HETATM    1  C   UNL     1      -9.360   7.608  69.502  1.00  0.00    -0.153 C  
HETATM    2  N   UNL     1      -9.351   8.814  68.594  1.00  0.00    -0.141 N  
HETATM    3  C   UNL     2      -7.111  11.528  66.866  1.00  0.00    -0.135 C  
HETATM    4  C   UNL     1      -8.525   8.379  67.399  1.00  0.00    -0.124 C  
HETATM    5  C   UNL     1      -8.728   9.961  69.386  1.00  0.00    -0.179 C  
HETATM    6  N   UNL     2      -8.430  11.926  66.395  1.00  0.00    -0.100 N  
HETATM    7  C   UNL     2     -10.618  11.441  63.491  1.00  0.00    -0.402 C  
HETATM    8  O   UNL     2      -8.892  10.113  65.037  1.00  0.00    -0.157 OA 
HETATM    9  C   UNL     2      -9.105  12.934  67.032  1.00  0.00    -0.228 A  
HETATM   10  N   UNL     2      -9.032  13.282  68.331  1.00  0.00    -0.161 NA 
HETATM   11  C   UNL     2     -10.158  13.579  66.444  1.00  0.00    -0.294 A  
HETATM   12  C   UNL     2      -9.093  11.292  65.348  1.00  0.00    -0.147 C  
HETATM   13  N   UNL     2     -10.732  14.359  67.397  1.00  0.00    -0.277 NA 
HETATM   14  C   UNL     2     -10.532  13.315  65.079  1.00  0.00    -0.353 C  
HETATM   15  N   UNL     2     -10.056  12.055  64.673  1.00  0.00    -0.272 N  
HETATM   16  H   UNL     2     -11.549  14.959  67.279  1.00  0.00     0.000 HD 
HETATM   17  C   UNL     2     -10.015  14.190  68.533  1.00  0.00    -0.235 A  
HETATM   18  O   UNL     2     -11.199  13.999  64.300  1.00  0.00    -0.335 OA 
ENDROOT
BRANCH   2  19
HETATM   19  C   UNL     1     -10.759   9.354  68.216  1.00  0.00    -0.171 C  
BRANCH  19  20
HETATM   20  C   UNL     1     -11.285  10.522  69.057  1.00  0.00    -0.259 C  
HETATM   21  O   UNL     1     -12.386  11.172  68.428  1.00  0.00    -0.697 OA 
HETATM   22  H   UNL     1     -12.712  11.896  68.949  1.00  0.00     0.000 HD 
ENDBRANCH  19  20
ENDBRANCH   2  19
TORSDOF 2
ENDMDL
MODEL       46
REMARK 921   NORMALIZED FREE ENERGY PREDICTED BY IDOCK:   -4.18 KCAL/MOL
REMARK 922        TOTAL FREE ENERGY PREDICTED BY IDOCK:   -5.18 KCAL/MOL
REMARK 923 INTER-LIGAND FREE ENERGY PREDICTED BY IDOCK:   -5.05 KCAL/MOL
REMARK 924 INTRA-LIGAND FREE ENERGY PREDICTED BY IDOCK:   -0.12 KCAL/MOL
REMARK 927      BINDING AFFINITY PREDICTED BY RF-SCORE:    0.00 PKD
ROOT
HETATM    1  C   UNL     1     -12.002  14.182  66.269  1.00  0.00    -0.429 C  
HETATM    2  N   UNL     1     -11.234  12.894  66.445  1.00  0.00    -0.289 N  
HETATM    3  C   UNL     2      -8.533  11.019  68.581  1.00  0.00    -0.157 C  
HETATM    4  C   UNL     1     -11.653  12.389  67.811  1.00  0.00    -0.352 C  
HETATM    5  C   UNL     1      -9.751  13.245  66.348  1.00  0.00    -0.276 C  
HETATM    6  N   UNL     2      -8.854   9.998  67.593  1.00  0.00    -0.122 N  
HETATM    7  C   UNL     2     -11.031   7.071  67.214  1.00  0.00    -0.302 C  
HETATM    8  O   UNL     2     -11.024   9.536  68.241  1.00  0.00    -0.182 OA 
HETATM    9  C   UNL     2      -8.051   9.838  66.494  1.00  0.00    -0.116 A  
HETATM   10  N   UNL     2      -7.320  10.777  65.863  1.00  0.00    -0.129 NA 
HETATM   11  C   UNL     2      -8.088   8.701  65.735  1.00  0.00    -0.114 A  
HETATM   12  C   UNL     2      -9.987   9.192  67.664  1.00  0.00    -0.195 C  
HETATM   13  N   UNL     2      -7.346   8.938  64.622  1.00  0.00    -0.099 NA 
HETATM   14  C   UNL     2      -8.885   7.566  66.122  1.00  0.00    -0.159 C  
HETATM   15  N   UNL     2      -9.914   7.961  66.997  1.00  0.00    -0.225 N  
HETATM   16  H   UNL     2      -7.185   8.290  63.850  1.00  0.00     0.000 HD 
HETATM   17  C   UNL     2      -6.860  10.197  64.731  1.00  0.00    -0.121 A  
HETATM   18  O   UNL     2      -8.796   6.387  65.774  1.00  0.00    -0.155 OA 
ENDROOT
BRANCH   2  19
HETATM   19  C   UNL     1     -11.438  11.855  65.306  1.00  0.00    -0.253 C  
BRANCH  19  20
HETATM   20  C   UNL     1     -12.425  12.247  64.201  1.00  0.00    -0.434 C  
HETATM   21  O   UNL     1     -12.275  11.428  63.044  1.00  0.00    -0.946 OA 
HETATM   22  H   UNL     1     -12.886  11.671  62.359  1.00  0.00     0.000 HD 
ENDBRANCH  19  20
ENDBRANCH   2  19
TORSDOF 2
ENDMDL
MODEL       47
REMARK 921   NORMALIZED FREE ENERGY PREDICTED BY IDOCK:   -4.18 KCAL/MOL
REMARK 922        TOTAL FREE ENERGY PREDICTED BY IDOCK:   -5.18 KCAL/MOL
REMARK 923 INTER-LIGAND FREE ENERGY PREDICTED BY IDOCK:   -4.90 KCAL/MOL
REMARK 924 INTRA-LIGAND FREE ENERGY PREDICTED BY IDOCK:   -0.28 KCAL/MOL
REMARK 927      BINDING AFFINITY PREDICTED BY RF-SCORE:    0.00 PKD
ROOT
HETATM    1  C   UNL     1     -10.676   6.862  72.458  1.00  0.00    -0.232 C  
HETATM    2  N   UNL     1     -10.354   7.662  71.219  1.00  0.00    -0.199 N  
HETATM    3  C   UNL     2      -8.064  10.454  69.691  1.00  0.00    -0.103 C  
HETATM    4  C   UNL     1      -8.923   7.287  70.889  1.00  0.00    -0.150 C  
HETATM    5  C   UNL     1     -10.534   9.135  71.583  1.00  0.00    -0.332 C  
HETATM    6  N   UNL     2      -8.902  10.133  68.544  1.00  0.00    -0.123 N  
HETATM    7  C   UNL     2      -8.840   8.014  65.551  1.00  0.00    -0.061 C  
HETATM    8  O   UNL     2      -8.143   7.990  68.129  1.00  0.00    -0.125 OA 
HETATM    9  C   UNL     2      -9.991  10.914  68.257  1.00  0.00    -0.175 A  
HETATM   10  N   UNL     2     -10.758  11.608  69.120  1.00  0.00    -0.185 NA 
HETATM   11  C   UNL     2     -10.595  10.884  67.030  1.00  0.00    -0.257 A  
HETATM   12  C   UNL     2      -8.697   9.020  67.733  1.00  0.00    -0.125 C  
HETATM   13  N   UNL     2     -11.748  11.595  67.134  1.00  0.00    -0.598 NA 
HETATM   14  C   UNL     2     -10.043  10.122  65.940  1.00  0.00    -0.254 C  
HETATM   15  N   UNL     2      -9.200   9.105  66.427  1.00  0.00    -0.170 N  
HETATM   16  H   UNL     2     -12.433  11.752  66.394  1.00  0.00     0.000 HD 
HETATM   17  C   UNL     2     -11.817  12.054  68.406  1.00  0.00    -0.300 A  
HETATM   18  O   UNL     2     -10.237  10.229  64.728  1.00  0.00    -0.329 OA 
ENDROOT
BRANCH   2  19
HETATM   19  C   UNL     1     -11.342   7.455  70.037  1.00  0.00    -0.127 C  
BRANCH  19  20
HETATM   20  C   UNL     1     -11.078   6.242  69.138  1.00  0.00    -0.390 C  
HETATM   21  O   UNL     1     -11.498   6.477  67.797  1.00  0.00    -0.664 OA 
HETATM   22  H   UNL     1     -11.335   5.725  67.240  1.00  0.00     0.000 HD 
ENDBRANCH  19  20
ENDBRANCH   2  19
TORSDOF 2
ENDMDL
MODEL       48
REMARK 921   NORMALIZED FREE ENERGY PREDICTED BY IDOCK:   -4.16 KCAL/MOL
REMARK 922        TOTAL FREE ENERGY PREDICTED BY IDOCK:   -5.15 KCAL/MOL
REMARK 923 INTER-LIGAND FREE ENERGY PREDICTED BY IDOCK:   -5.03 KCAL/MOL
REMARK 924 INTRA-LIGAND FREE ENERGY PREDICTED BY IDOCK:   -0.12 KCAL/MOL
REMARK 927      BINDING AFFINITY PREDICTED BY RF-SCORE:    0.00 PKD
ROOT
HETATM    1  C   UNL     1      -7.909   9.347  66.642  1.00  0.00    -0.104 C  
HETATM    2  N   UNL     1      -8.834  10.413  67.176  1.00  0.00    -0.136 N  
HETATM    3  C   UNL     2     -11.792  12.839  66.316  1.00  0.00    -0.423 C  
HETATM    4  C   UNL     1     -10.218   9.808  67.052  1.00  0.00    -0.229 C  
HETATM    5  C   UNL     1      -8.627  11.655  66.312  1.00  0.00    -0.103 C  
HETATM    6  N   UNL     2     -11.561  13.179  67.714  1.00  0.00    -0.316 N  
HETATM    7  C   UNL     2     -12.834  12.312  71.042  1.00  0.00    -0.160 C  
HETATM    8  O   UNL     2     -12.248  11.198  68.687  1.00  0.00    -0.582 OA 
HETATM    9  C   UNL     2     -10.798  14.272  68.031  1.00  0.00    -0.239 A  
HETATM   10  N   UNL     2      -9.778  14.798  67.326  1.00  0.00    -0.227 NA 
HETATM   11  C   UNL     2     -10.835  14.838  69.275  1.00  0.00    -0.264 A  
HETATM   12  C   UNL     2     -12.028  12.410  68.777  1.00  0.00    -0.229 C  
HETATM   13  N   UNL     2      -9.828  15.749  69.330  1.00  0.00    -0.270 NA 
HETATM   14  C   UNL     2     -11.766  14.389  70.278  1.00  0.00    -0.288 C  
HETATM   15  N   UNL     2     -12.199  13.080  69.996  1.00  0.00    -0.276 N  
HETATM   16  H   UNL     2      -9.581  16.334  70.130  1.00  0.00     0.000 HD 
HETATM   17  C   UNL     2      -9.213  15.734  68.124  1.00  0.00    -0.189 A  
HETATM   18  O   UNL     2     -12.167  14.963  71.291  1.00  0.00    -0.286 OA 
ENDROOT
BRANCH   2  19
HETATM   19  C   UNL     1      -8.496  10.908  68.612  1.00  0.00    -0.152 C  
BRANCH  19  20
HETATM   20  C   UNL     1      -7.074  10.624  69.109  1.00  0.00    -0.095 C  
HETATM   21  O   UNL     1      -6.995  10.659  70.531  1.00  0.00    -0.456 OA 
HETATM   22  H   UNL     1      -6.114  10.483  70.839  1.00  0.00     0.000 HD 
ENDBRANCH  19  20
ENDBRANCH   2  19
TORSDOF 2
ENDMDL
MODEL       49
REMARK 921   NORMALIZED FREE ENERGY PREDICTED BY IDOCK:   -4.14 KCAL/MOL
REMARK 922        TOTAL FREE ENERGY PREDICTED BY IDOCK:   -5.13 KCAL/MOL
REMARK 923 INTER-LIGAND FREE ENERGY PREDICTED BY IDOCK:   -4.69 KCAL/MOL
REMARK 924 INTRA-LIGAND FREE ENERGY PREDICTED BY IDOCK:   -0.44 KCAL/MOL
REMARK 927      BINDING AFFINITY PREDICTED BY RF-SCORE:    0.00 PKD
ROOT
HETATM    1  C   UNL     1      -5.141  14.628  69.820  1.00  0.00    -0.092 C  
HETATM    2  N   UNL     1      -6.068  15.601  69.132  1.00  0.00    -0.108 N  
HETATM    3  C   UNL     2      -8.788  16.034  66.341  1.00  0.00    -0.328 C  
HETATM    4  C   UNL     1      -7.457  15.067  69.423  1.00  0.00    -0.196 C  
HETATM    5  C   UNL     1      -5.704  15.587  67.649  1.00  0.00    -0.092 C  
HETATM    6  N   UNL     2      -8.701  17.397  66.848  1.00  0.00    -0.236 N  
HETATM    7  C   UNL     2     -10.386  19.587  69.260  1.00  0.00     0.065 C  
HETATM    8  O   UNL     2      -9.590  17.056  68.954  1.00  0.00    -0.266 OA 
HETATM    9  C   UNL     2      -7.927  18.319  66.193  1.00  0.00    -0.184 A  
HETATM   10  N   UNL     2      -6.809  18.096  65.476  1.00  0.00    -0.486 NA 
HETATM   11  C   UNL     2      -8.077  19.662  66.401  1.00  0.00    -0.326 A  
HETATM   12  C   UNL     2      -9.322  17.819  68.020  1.00  0.00    -0.276 C  
HETATM   13  N   UNL     2      -7.040  20.282  65.780  1.00  0.00    -0.397 NA 
HETATM   14  C   UNL     2      -9.137  20.180  67.227  1.00  0.00    -0.368 C  
HETATM   15  N   UNL     2      -9.598  19.190  68.114  1.00  0.00    -0.329 N  
HETATM   16  H   UNL     2      -6.858  21.286  65.758  1.00  0.00     0.000 HD 
HETATM   17  C   UNL     2      -6.294  19.315  65.195  1.00  0.00    -0.278 A  
HETATM   18  O   UNL     2      -9.623  21.312  67.264  1.00  0.00    -0.240 OA 
ENDROOT
BRANCH   2  19
HETATM   19  C   UNL     1      -5.872  17.088  69.542  1.00  0.00    -0.203 C  
BRANCH  19  20
HETATM   20  C   UNL     1      -5.172  17.987  68.517  1.00  0.00    -0.155 C  
HETATM   21  O   UNL     1      -5.510  19.359  68.701  1.00  0.00    -0.192 OA 
HETATM   22  H   UNL     1      -5.076  19.916  68.066  1.00  0.00     0.000 HD 
ENDBRANCH  19  20
ENDBRANCH   2  19
TORSDOF 2
ENDMDL
MODEL       50
REMARK 921   NORMALIZED FREE ENERGY PREDICTED BY IDOCK:   -4.09 KCAL/MOL
REMARK 922        TOTAL FREE ENERGY PREDICTED BY IDOCK:   -5.07 KCAL/MOL
REMARK 923 INTER-LIGAND FREE ENERGY PREDICTED BY IDOCK:   -4.88 KCAL/MOL
REMARK 924 INTRA-LIGAND FREE ENERGY PREDICTED BY IDOCK:   -0.19 KCAL/MOL
REMARK 927      BINDING AFFINITY PREDICTED BY RF-SCORE:    0.00 PKD
ROOT
HETATM    1  C   UNL     1     -10.855  16.752  67.751  1.00  0.00    -0.285 C  
HETATM    2  N   UNL     1     -10.305  15.381  67.445  1.00  0.00    -0.258 N  
HETATM    3  C   UNL     2      -9.870  11.715  68.766  1.00  0.00    -0.116 C  
HETATM    4  C   UNL     1     -11.526  14.482  67.422  1.00  0.00    -0.368 C  
HETATM    5  C   UNL     1      -9.313  15.042  68.556  1.00  0.00    -0.196 C  
HETATM    6  N   UNL     2      -9.202  11.618  67.476  1.00  0.00    -0.169 N  
HETATM    7  C   UNL     2      -9.934  10.614  64.025  1.00  0.00    -0.337 C  
HETATM    8  O   UNL     2     -11.037  11.888  66.097  1.00  0.00    -0.303 OA 
HETATM    9  C   UNL     2      -7.837  11.722  67.406  1.00  0.00    -0.155 A  
HETATM   10  N   UNL     2      -7.021  12.422  68.218  1.00  0.00    -0.082 NA 
HETATM   11  C   UNL     2      -7.138  11.298  66.310  1.00  0.00     0.007 A  
HETATM   12  C   UNL     2      -9.882  11.483  66.269  1.00  0.00    -0.217 C  
HETATM   13  N   UNL     2      -5.858  11.727  66.461  1.00  0.00    -0.436 NA 
HETATM   14  C   UNL     2      -7.788  10.610  65.225  1.00  0.00    -0.041 C  
HETATM   15  N   UNL     2      -9.167  10.894  65.217  1.00  0.00    -0.206 N  
HETATM   16  H   UNL     2      -5.088  11.582  65.807  1.00  0.00     0.000 HD 
HETATM   17  C   UNL     2      -5.797  12.383  67.643  1.00  0.00    -0.127 A  
HETATM   18  O   UNL     2      -7.307   9.886  64.352  1.00  0.00    -0.125 OA 
ENDROOT
BRANCH   2  19
HETATM   19  C   UNL     1      -9.446  15.298  66.151  1.00  0.00    -0.326 C  
BRANCH  19  20
HETATM   20  C   UNL     1     -10.197  14.953  64.860  1.00  0.00    -0.251 C  
HETATM   21  O   UNL     1     -10.933  16.068  64.363  1.00  0.00    -0.893 OA 
HETATM   22  H   UNL     1     -11.398  15.855  63.563  1.00  0.00     0.000 HD 
ENDBRANCH  19  20
ENDBRANCH   2  19
TORSDOF 2
ENDMDL
MODEL       51
REMARK 921   NORMALIZED FREE ENERGY PREDICTED BY IDOCK:   -4.08 KCAL/MOL
REMARK 922        TOTAL FREE ENERGY PREDICTED BY IDOCK:   -5.06 KCAL/MOL
REMARK 923 INTER-LIGAND FREE ENERGY PREDICTED BY IDOCK:   -4.94 KCAL/MOL
REMARK 924 INTRA-LIGAND FREE ENERGY PREDICTED BY IDOCK:   -0.12 KCAL/MOL
REMARK 927      BINDING AFFINITY PREDICTED BY RF-SCORE:    0.00 PKD
ROOT
HETATM    1  C   UNL     1     -10.858   8.828  70.005  1.00  0.00    -0.223 C  
HETATM    2  N   UNL     1     -10.576  10.016  69.118  1.00  0.00    -0.206 N  
HETATM    3  C   UNL     2      -8.334  11.411  66.219  1.00  0.00    -0.111 C  
HETATM    4  C   UNL     1     -10.858   9.514  67.716  1.00  0.00    -0.195 C  
HETATM    5  C   UNL     1      -9.117  10.405  69.349  1.00  0.00    -0.152 C  
HETATM    6  N   UNL     2      -9.189  12.562  66.478  1.00  0.00    -0.230 N  
HETATM    7  C   UNL     2     -12.287  14.072  65.224  1.00  0.00    -0.465 C  
HETATM    8  O   UNL     2     -11.202  11.689  65.748  1.00  0.00    -0.303 OA 
HETATM    9  C   UNL     2      -8.737  13.580  67.276  1.00  0.00    -0.225 A  
HETATM   10  N   UNL     2      -7.867  13.499  68.301  1.00  0.00    -0.137 NA 
HETATM   11  C   UNL     2      -9.327  14.813  67.271  1.00  0.00    -0.206 A  
HETATM   12  C   UNL     2     -10.494  12.669  66.004  1.00  0.00    -0.268 C  
HETATM   13  N   UNL     2      -8.792  15.516  68.305  1.00  0.00    -0.176 NA 
HETATM   14  C   UNL     2     -10.376  15.141  66.341  1.00  0.00    -0.286 C  
HETATM   15  N   UNL     2     -10.997  13.970  65.868  1.00  0.00    -0.284 N  
HETATM   16  H   UNL     2      -9.032  16.470  68.578  1.00  0.00     0.000 HD 
HETATM   17  C   UNL     2      -7.883  14.711  68.902  1.00  0.00    -0.148 A  
HETATM   18  O   UNL     2     -10.781  16.243  65.969  1.00  0.00    -0.295 OA 
ENDROOT
BRANCH   2  19
HETATM   19  C   UNL     1     -11.361  11.306  69.489  1.00  0.00    -0.294 C  
BRANCH  19  20
HETATM   20  C   UNL     1     -12.179  11.252  70.784  1.00  0.00    -0.380 C  
HETATM   21  O   UNL     1     -12.709  12.530  71.127  1.00  0.00    -0.354 OA 
HETATM   22  H   UNL     1     -13.215  12.497  71.930  1.00  0.00     0.000 HD 
ENDBRANCH  19  20
ENDBRANCH   2  19
TORSDOF 2
ENDMDL
MODEL       52
REMARK 921   NORMALIZED FREE ENERGY PREDICTED BY IDOCK:   -4.07 KCAL/MOL
REMARK 922        TOTAL FREE ENERGY PREDICTED BY IDOCK:   -5.06 KCAL/MOL
REMARK 923 INTER-LIGAND FREE ENERGY PREDICTED BY IDOCK:   -4.81 KCAL/MOL
REMARK 924 INTRA-LIGAND FREE ENERGY PREDICTED BY IDOCK:   -0.25 KCAL/MOL
REMARK 927      BINDING AFFINITY PREDICTED BY RF-SCORE:    0.00 PKD
ROOT
HETATM    1  C   UNL     1     -11.410  15.841  67.845  1.00  0.00    -0.277 C  
HETATM    2  N   UNL     1     -10.881  14.448  67.601  1.00  0.00    -0.269 N  
HETATM    3  C   UNL     2      -7.662  12.254  67.165  1.00  0.00    -0.134 C  
HETATM    4  C   UNL     1     -10.084  14.124  68.849  1.00  0.00    -0.150 C  
HETATM    5  C   UNL     1     -10.036  14.509  66.331  1.00  0.00    -0.292 C  
HETATM    6  N   UNL     2      -8.700  11.245  67.006  1.00  0.00    -0.147 N  
HETATM    7  C   UNL     2     -10.498   8.754  69.010  1.00  0.00    -0.203 C  
HETATM    8  O   UNL     2      -9.533  11.240  69.163  1.00  0.00    -0.074 OA 
HETATM    9  C   UNL     2      -9.092  10.863  65.750  1.00  0.00    -0.196 A  
HETATM   10  N   UNL     2      -9.091  11.605  64.625  1.00  0.00     0.134 NA 
HETATM   11  C   UNL     2      -9.784   9.704  65.533  1.00  0.00    -0.301 A  
HETATM   12  C   UNL     2      -9.380  10.670  68.076  1.00  0.00    -0.147 C  
HETATM   13  N   UNL     2     -10.200   9.722  64.239  1.00  0.00    -0.191 NA 
HETATM   14  C   UNL     2     -10.030   8.766  66.597  1.00  0.00    -0.285 C  
HETATM   15  N   UNL     2      -9.938   9.405  67.848  1.00  0.00    -0.173 N  
HETATM   16  H   UNL     2     -10.753   9.004  63.769  1.00  0.00     0.000 HD 
HETATM   17  C   UNL     2      -9.744  10.874  63.693  1.00  0.00    -0.329 A  
HETATM   18  O   UNL     2     -10.322   7.570  66.540  1.00  0.00    -0.204 OA 
ENDROOT
BRANCH   2  19
HETATM   19  C   UNL     1     -11.970  13.389  67.264  1.00  0.00    -0.347 C  
BRANCH  19  20
HETATM   20  C   UNL     1     -12.130  13.032  65.782  1.00  0.00    -0.454 C  
HETATM   21  O   UNL     1     -13.104  13.854  65.143  1.00  0.00    -0.773 OA 
HETATM   22  H   UNL     1     -13.204  13.632  64.225  1.00  0.00     0.000 HD 
ENDBRANCH  19  20
ENDBRANCH   2  19
TORSDOF 2
ENDMDL
MODEL       53
REMARK 921   NORMALIZED FREE ENERGY PREDICTED BY IDOCK:   -4.02 KCAL/MOL
REMARK 922        TOTAL FREE ENERGY PREDICTED BY IDOCK:   -4.99 KCAL/MOL
REMARK 923 INTER-LIGAND FREE ENERGY PREDICTED BY IDOCK:   -4.53 KCAL/MOL
REMARK 924 INTRA-LIGAND FREE ENERGY PREDICTED BY IDOCK:   -0.47 KCAL/MOL
REMARK 927      BINDING AFFINITY PREDICTED BY RF-SCORE:    0.00 PKD
ROOT
HETATM    1  C   UNL     1     -12.273  14.321  66.074  1.00  0.00    -0.404 C  
HETATM    2  N   UNL     1     -11.221  13.399  66.641  1.00  0.00    -0.302 N  
HETATM    3  C   UNL     2      -8.578  10.626  65.805  1.00  0.00    -0.181 C  
HETATM    4  C   UNL     1      -9.934  13.842  65.974  1.00  0.00    -0.306 C  
HETATM    5  C   UNL     1     -11.640  11.974  66.284  1.00  0.00    -0.310 C  
HETATM    6  N   UNL     2      -8.410  10.733  67.248  1.00  0.00    -0.123 N  
HETATM    7  C   UNL     2      -6.284  12.458  69.689  1.00  0.00    -0.130 C  
HETATM    8  O   UNL     2      -7.512  12.861  67.352  1.00  0.00    -0.148 OA 
HETATM    9  C   UNL     2      -9.040   9.840  68.075  1.00  0.00    -0.125 A  
HETATM   10  N   UNL     2     -10.207   9.201  67.862  1.00  0.00    -0.204 NA 
HETATM   11  C   UNL     2      -8.654   9.668  69.375  1.00  0.00    -0.158 A  
HETATM   12  C   UNL     2      -7.681  11.748  67.862  1.00  0.00    -0.125 C  
HETATM   13  N   UNL     2      -9.593   8.887  69.971  1.00  0.00    -0.171 NA 
HETATM   14  C   UNL     2      -7.490  10.327  69.907  1.00  0.00    -0.158 C  
HETATM   15  N   UNL     2      -7.171  11.460  69.136  1.00  0.00    -0.116 N  
HETATM   16  H   UNL     2      -9.602   8.585  70.946  1.00  0.00     0.000 HD 
HETATM   17  C   UNL     2     -10.516   8.587  69.027  1.00  0.00    -0.200 A  
HETATM   18  O   UNL     2      -6.817  10.054  70.902  1.00  0.00    -0.322 OA 
ENDROOT
BRANCH   2  19
HETATM   19  C   UNL     1     -11.144  13.378  68.194  1.00  0.00    -0.258 C  
BRANCH  19  20
HETATM   20  C   UNL     1     -11.845  12.206  68.891  1.00  0.00    -0.304 C  
HETATM   21  O   UNL     1     -11.078  11.706  69.983  1.00  0.00    -0.481 OA 
HETATM   22  H   UNL     1     -11.512  10.980  70.415  1.00  0.00     0.000 HD 
ENDBRANCH  19  20
ENDBRANCH   2  19
TORSDOF 2
ENDMDL
MODEL       54
REMARK 921   NORMALIZED FREE ENERGY PREDICTED BY IDOCK:   -3.98 KCAL/MOL
REMARK 922        TOTAL FREE ENERGY PREDICTED BY IDOCK:   -4.95 KCAL/MOL
REMARK 923 INTER-LIGAND FREE ENERGY PREDICTED BY IDOCK:   -4.59 KCAL/MOL
REMARK 924 INTRA-LIGAND FREE ENERGY PREDICTED BY IDOCK:   -0.36 KCAL/MOL
REMARK 927      BINDING AFFINITY PREDICTED BY RF-SCORE:    0.00 PKD
ROOT
HETATM    1  C   UNL     1      -8.755  10.179  66.984  1.00  0.00    -0.132 C  
HETATM    2  N   UNL     1      -9.210   9.325  68.142  1.00  0.00    -0.131 N  
HETATM    3  C   UNL     2     -11.140   6.076  69.187  1.00  0.00    -0.335 C  
HETATM    4  C   UNL     1      -8.507   7.998  67.931  1.00  0.00    -0.125 C  
HETATM    5  C   UNL     1     -10.732   9.234  68.056  1.00  0.00    -0.174 C  
HETATM    6  N   UNL     2     -10.760   6.596  70.493  1.00  0.00    -0.235 N  
HETATM    7  C   UNL     2      -8.106   6.192  72.992  1.00  0.00    -0.112 C  
HETATM    8  O   UNL     2      -8.472   6.302  70.348  1.00  0.00    -0.130 OA 
HETATM    9  C   UNL     2     -11.660   7.328  71.222  1.00  0.00    -0.286 A  
HETATM   10  N   UNL     2     -12.649   8.116  70.759  1.00  0.00     0.070 NA 
HETATM   11  C   UNL     2     -11.499   7.537  72.564  1.00  0.00    -0.327 A  
HETATM   12  C   UNL     2      -9.488   6.446  71.037  1.00  0.00    -0.171 C  
HETATM   13  N   UNL     2     -12.424   8.459  72.940  1.00  0.00    -0.628 NA 
HETATM   14  C   UNL     2     -10.440   6.898  73.301  1.00  0.00    -0.312 C  
HETATM   15  N   UNL     2      -9.401   6.510  72.435  1.00  0.00    -0.137 N  
HETATM   16  H   UNL     2     -12.556   8.838  73.878  1.00  0.00     0.000 HD 
HETATM   17  C   UNL     2     -13.136   8.778  71.834  1.00  0.00    -0.378 A  
HETATM   18  O   UNL     2     -10.334   6.699  74.512  1.00  0.00    -0.328 OA 
ENDROOT
BRANCH   2  19
HETATM   19  C   UNL     1      -8.960   9.946  69.546  1.00  0.00    -0.211 C  
BRANCH  19  20
HETATM   20  C   UNL     1      -7.556   9.757  70.130  1.00  0.00    -0.171 C  
HETATM   21  O   UNL     1      -7.601   9.259  71.464  1.00  0.00    -0.340 OA 
HETATM   22  H   UNL     1      -6.731   9.143  71.827  1.00  0.00     0.000 HD 
ENDBRANCH  19  20
ENDBRANCH   2  19
TORSDOF 2
ENDMDL
MODEL       55
REMARK 921   NORMALIZED FREE ENERGY PREDICTED BY IDOCK:   -3.96 KCAL/MOL
REMARK 922        TOTAL FREE ENERGY PREDICTED BY IDOCK:   -4.94 KCAL/MOL
REMARK 923 INTER-LIGAND FREE ENERGY PREDICTED BY IDOCK:   -4.48 KCAL/MOL
REMARK 924 INTRA-LIGAND FREE ENERGY PREDICTED BY IDOCK:   -0.45 KCAL/MOL
REMARK 927      BINDING AFFINITY PREDICTED BY RF-SCORE:    0.00 PKD
ROOT
HETATM    1  C   UNL     1      -6.467   8.583  68.064  1.00  0.00    -0.057 C  
HETATM    2  N   UNL     1      -7.575   7.905  68.833  1.00  0.00    -0.098 N  
HETATM    3  C   UNL     2     -11.134   6.278  68.595  1.00  0.00    -0.325 C  
HETATM    4  C   UNL     1      -7.670   6.523  68.218  1.00  0.00    -0.105 C  
HETATM    5  C   UNL     1      -8.832   8.751  68.639  1.00  0.00    -0.138 C  
HETATM    6  N   UNL     2     -10.865   6.132  70.019  1.00  0.00    -0.307 N  
HETATM    7  C   UNL     2      -9.546   3.641  72.367  1.00  0.00    -0.140 C  
HETATM    8  O   UNL     2      -9.141   4.596  69.906  1.00  0.00    -0.095 OA 
HETATM    9  C   UNL     2     -11.376   7.043  70.905  1.00  0.00    -0.295 A  
HETATM   10  N   UNL     2     -11.638   8.347  70.688  1.00  0.00    -0.239 NA 
HETATM   11  C   UNL     2     -11.459   6.777  72.244  1.00  0.00    -0.276 A  
HETATM   12  C   UNL     2     -10.051   5.133  70.546  1.00  0.00    -0.256 C  
HETATM   13  N   UNL     2     -11.802   7.937  72.862  1.00  0.00    -0.616 NA 
HETATM   14  C   UNL     2     -11.127   5.480  72.773  1.00  0.00    -0.291 C  
HETATM   15  N   UNL     2     -10.285   4.786  71.884  1.00  0.00    -0.197 N  
HETATM   16  H   UNL     2     -11.932   8.075  73.865  1.00  0.00     0.000 HD 
HETATM   17  C   UNL     2     -11.937   8.876  71.896  1.00  0.00    -0.371 A  
HETATM   18  O   UNL     2     -11.443   4.964  73.847  1.00  0.00    -0.148 OA 
ENDROOT
BRANCH   2  19
HETATM   19  C   UNL     1      -7.381   7.890  70.376  1.00  0.00    -0.068 C  
BRANCH  19  20
HETATM   20  C   UNL     1      -7.791   9.164  71.123  1.00  0.00    -0.076 C  
HETATM   21  O   UNL     1      -8.691   8.883  72.192  1.00  0.00    -0.386 OA 
HETATM   22  H   UNL     1      -8.946   9.672  72.655  1.00  0.00     0.000 HD 
ENDBRANCH  19  20
ENDBRANCH   2  19
TORSDOF 2
ENDMDL
MODEL       56
REMARK 921   NORMALIZED FREE ENERGY PREDICTED BY IDOCK:   -3.94 KCAL/MOL
REMARK 922        TOTAL FREE ENERGY PREDICTED BY IDOCK:   -4.91 KCAL/MOL
REMARK 923 INTER-LIGAND FREE ENERGY PREDICTED BY IDOCK:   -4.74 KCAL/MOL
REMARK 924 INTRA-LIGAND FREE ENERGY PREDICTED BY IDOCK:   -0.17 KCAL/MOL
REMARK 927      BINDING AFFINITY PREDICTED BY RF-SCORE:    0.00 PKD
ROOT
HETATM    1  C   UNL     1      -8.955  12.966  68.565  1.00  0.00    -0.047 C  
HETATM    2  N   UNL     1      -8.790  14.422  68.201  1.00  0.00    -0.173 N  
HETATM    3  C   UNL     2      -6.717  17.002  66.099  1.00  0.00     0.019 C  
HETATM    4  C   UNL     1      -9.043  14.468  66.706  1.00  0.00    -0.261 C  
HETATM    5  C   UNL     1      -7.370  14.820  68.596  1.00  0.00    -0.123 C  
HETATM    6  N   UNL     2      -7.668  17.890  66.755  1.00  0.00    -0.211 N  
HETATM    7  C   UNL     2     -10.903  19.488  66.097  1.00  0.00    -0.327 C  
HETATM    8  O   UNL     2      -9.603  17.188  65.703  1.00  0.00    -0.535 OA 
HETATM    9  C   UNL     2      -7.299  18.564  67.890  1.00  0.00    -0.236 A  
HETATM   10  N   UNL     2      -6.413  18.176  68.828  1.00  0.00    -0.213 NA 
HETATM   11  C   UNL     2      -7.996  19.650  68.340  1.00  0.00    -0.322 A  
HETATM   12  C   UNL     2      -8.982  18.055  66.327  1.00  0.00    -0.172 C  
HETATM   13  N   UNL     2      -7.515  19.952  69.574  1.00  0.00    -0.106 NA 
HETATM   14  C   UNL     2      -9.081  20.214  67.580  1.00  0.00    -0.356 C  
HETATM   15  N   UNL     2      -9.601  19.262  66.683  1.00  0.00    -0.331 N  
HETATM   16  H   UNL     2      -7.835  20.706  70.183  1.00  0.00     0.000 HD 
HETATM   17  C   UNL     2      -6.530  19.063  69.843  1.00  0.00    -0.105 A  
HETATM   18  O   UNL     2      -9.588  21.335  67.644  1.00  0.00    -0.187 OA 
ENDROOT
BRANCH   2  19
HETATM   19  C   UNL     1      -9.683  15.401  69.014  1.00  0.00    -0.239 C  
BRANCH  19  20
HETATM   20  C   UNL     1     -11.011  14.836  69.532  1.00  0.00    -0.266 C  
HETATM   21  O   UNL     1     -12.098  15.172  68.675  1.00  0.00    -0.550 OA 
HETATM   22  H   UNL     1     -12.921  14.822  68.995  1.00  0.00     0.000 HD 
ENDBRANCH  19  20
ENDBRANCH   2  19
TORSDOF 2
ENDMDL
MODEL       57
REMARK 921   NORMALIZED FREE ENERGY PREDICTED BY IDOCK:   -3.93 KCAL/MOL
REMARK 922        TOTAL FREE ENERGY PREDICTED BY IDOCK:   -4.89 KCAL/MOL
REMARK 923 INTER-LIGAND FREE ENERGY PREDICTED BY IDOCK:   -4.72 KCAL/MOL
REMARK 924 INTRA-LIGAND FREE ENERGY PREDICTED BY IDOCK:   -0.17 KCAL/MOL
REMARK 927      BINDING AFFINITY PREDICTED BY RF-SCORE:    0.00 PKD
ROOT
HETATM    1  C   UNL     1      -7.796   4.888  68.655  1.00  0.00    -0.077 C  
HETATM    2  N   UNL     1      -8.357   6.289  68.659  1.00  0.00    -0.112 N  
HETATM    3  C   UNL     2      -7.832   9.967  69.914  1.00  0.00    -0.174 C  
HETATM    4  C   UNL     1      -7.301   7.121  67.959  1.00  0.00    -0.097 C  
HETATM    5  C   UNL     1      -8.574   6.676  70.121  1.00  0.00    -0.140 C  
HETATM    6  N   UNL     2      -9.086  10.106  69.186  1.00  0.00    -0.172 N  
HETATM    7  C   UNL     2     -10.288  11.085  65.862  1.00  0.00    -0.257 C  
HETATM    8  O   UNL     2      -8.303   9.743  67.042  1.00  0.00    -0.117 OA 
HETATM    9  C   UNL     2     -10.275  10.076  69.867  1.00  0.00    -0.260 A  
HETATM   10  N   UNL     2     -10.556   9.419  71.008  1.00  0.00    -0.308 NA 
HETATM   11  C   UNL     2     -11.434  10.543  69.311  1.00  0.00    -0.256 A  
HETATM   12  C   UNL     2      -9.160  10.209  67.799  1.00  0.00    -0.130 C  
HETATM   13  N   UNL     2     -12.449  10.183  70.140  1.00  0.00    -0.523 NA 
HETATM   14  C   UNL     2     -11.441  11.199  68.029  1.00  0.00    -0.293 C  
HETATM   15  N   UNL     2     -10.301  10.841  67.286  1.00  0.00    -0.208 N  
HETATM   16  H   UNL     2     -13.442  10.373  70.001  1.00  0.00     0.000 HD 
HETATM   17  C   UNL     2     -11.893   9.526  71.184  1.00  0.00    -0.358 A  
HETATM   18  O   UNL     2     -12.283  11.952  67.536  1.00  0.00    -0.510 OA 
ENDROOT
BRANCH   2  19
HETATM   19  C   UNL     1      -9.774   6.424  68.033  1.00  0.00    -0.122 C  
BRANCH  19  20
HETATM   20  C   UNL     1     -10.185   5.326  67.045  1.00  0.00    -0.234 C  
HETATM   21  O   UNL     1     -10.011   5.741  65.693  1.00  0.00    -0.372 OA 
HETATM   22  H   UNL     1     -10.266   5.061  65.080  1.00  0.00     0.000 HD 
ENDBRANCH  19  20
ENDBRANCH   2  19
TORSDOF 2
ENDMDL
MODEL       58
REMARK 921   NORMALIZED FREE ENERGY PREDICTED BY IDOCK:   -3.86 KCAL/MOL
REMARK 922        TOTAL FREE ENERGY PREDICTED BY IDOCK:   -4.82 KCAL/MOL
REMARK 923 INTER-LIGAND FREE ENERGY PREDICTED BY IDOCK:   -4.64 KCAL/MOL
REMARK 924 INTRA-LIGAND FREE ENERGY PREDICTED BY IDOCK:   -0.18 KCAL/MOL
REMARK 927      BINDING AFFINITY PREDICTED BY RF-SCORE:    0.00 PKD
ROOT
HETATM    1  C   UNL     1     -11.424  15.252  64.863  1.00  0.00    -0.343 C  
HETATM    2  N   UNL     1     -10.929  14.067  65.656  1.00  0.00    -0.295 N  
HETATM    3  C   UNL     2     -10.774  10.154  65.843  1.00  0.00     0.144 C  
HETATM    4  C   UNL     1      -9.969  13.361  64.718  1.00  0.00    -0.130 C  
HETATM    5  C   UNL     1     -12.156  13.233  66.020  1.00  0.00    -0.436 C  
HETATM    6  N   UNL     2     -10.054  10.511  67.057  1.00  0.00    -0.204 N  
HETATM    7  C   UNL     2      -6.609  11.009  68.213  1.00  0.00    -0.058 C  
HETATM    8  O   UNL     2      -8.178  11.462  66.099  1.00  0.00    -0.140 OA 
HETATM    9  C   UNL     2     -10.709  10.512  68.261  1.00  0.00    -0.229 A  
HETATM   10  N   UNL     2     -12.012  10.761  68.491  1.00  0.00    -0.474 NA 
HETATM   11  C   UNL     2     -10.031  10.490  69.449  1.00  0.00    -0.196 A  
HETATM   12  C   UNL     2      -8.724  10.921  67.067  1.00  0.00    -0.141 C  
HETATM   13  N   UNL     2     -10.941  10.710  70.433  1.00  0.00    -0.448 NA 
HETATM   14  C   UNL     2      -8.599  10.344  69.493  1.00  0.00    -0.093 C  
HETATM   15  N   UNL     2      -8.026  10.730  68.267  1.00  0.00    -0.113 N  
HETATM   16  H   UNL     2     -10.751  10.765  71.435  1.00  0.00     0.000 HD 
HETATM   17  C   UNL     2     -12.148  10.842  69.835  1.00  0.00    -0.354 A  
HETATM   18  O   UNL     2      -7.874   9.980  70.421  1.00  0.00    -0.216 OA 
ENDROOT
BRANCH   2  19
HETATM   19  C   UNL     1     -10.306  14.422  67.036  1.00  0.00    -0.263 C  
BRANCH  19  20
HETATM   20  C   UNL     1     -10.414  15.888  67.471  1.00  0.00    -0.298 C  
HETATM   21  O   UNL     1     -11.532  16.103  68.328  1.00  0.00    -0.348 OA 
HETATM   22  H   UNL     1     -11.600  17.011  68.598  1.00  0.00     0.000 HD 
ENDBRANCH  19  20
ENDBRANCH   2  19
TORSDOF 2
ENDMDL
MODEL       59
REMARK 921   NORMALIZED FREE ENERGY PREDICTED BY IDOCK:   -3.84 KCAL/MOL
REMARK 922        TOTAL FREE ENERGY PREDICTED BY IDOCK:   -4.79 KCAL/MOL
REMARK 923 INTER-LIGAND FREE ENERGY PREDICTED BY IDOCK:   -4.34 KCAL/MOL
REMARK 924 INTRA-LIGAND FREE ENERGY PREDICTED BY IDOCK:   -0.46 KCAL/MOL
REMARK 927      BINDING AFFINITY PREDICTED BY RF-SCORE:    0.00 PKD
ROOT
HETATM    1  C   UNL     1     -10.252   6.686  73.985  1.00  0.00    -0.369 C  
HETATM    2  N   UNL     1      -9.914   6.393  72.543  1.00  0.00    -0.171 N  
HETATM    3  C   UNL     2      -7.164   6.657  69.761  1.00  0.00    -0.077 C  
HETATM    4  C   UNL     1      -8.752   5.423  72.617  1.00  0.00    -0.123 C  
HETATM    5  C   UNL     1      -9.559   7.728  71.891  1.00  0.00    -0.165 C  
HETATM    6  N   UNL     2      -8.245   6.026  69.014  1.00  0.00    -0.107 N  
HETATM    7  C   UNL     2      -9.364   2.678  68.022  1.00  0.00    -0.202 C  
HETATM    8  O   UNL     2      -8.278   3.978  70.086  1.00  0.00    -0.057 OA 
HETATM    9  C   UNL     2      -9.067   6.792  68.230  1.00  0.00    -0.124 A  
HETATM   10  N   UNL     2      -9.418   8.079  68.414  1.00  0.00    -0.144 NA 
HETATM   11  C   UNL     2      -9.851   6.239  67.255  1.00  0.00    -0.137 A  
HETATM   12  C   UNL     2      -8.541   4.669  69.095  1.00  0.00    -0.079 C  
HETATM   13  N   UNL     2     -10.688   7.214  66.814  1.00  0.00    -0.520 NA 
HETATM   14  C   UNL     2      -9.761   4.841  66.923  1.00  0.00    -0.188 C  
HETATM   15  N   UNL     2      -9.209   4.114  67.994  1.00  0.00    -0.137 N  
HETATM   16  H   UNL     2     -11.406   7.117  66.094  1.00  0.00     0.000 HD 
HETATM   17  C   UNL     2     -10.390   8.337  67.508  1.00  0.00    -0.265 A  
HETATM   18  O   UNL     2     -10.117   4.251  65.902  1.00  0.00    -0.224 OA 
ENDROOT
BRANCH   2  19
HETATM   19  C   UNL     1     -11.106   5.875  71.688  1.00  0.00    -0.258 C  
BRANCH  19  20
HETATM   20  C   UNL     1     -11.965   6.945  71.005  1.00  0.00    -0.374 C  
HETATM   21  O   UNL     1     -12.157   6.664  69.621  1.00  0.00    -0.615 OA 
HETATM   22  H   UNL     1     -12.689   7.327  69.198  1.00  0.00     0.000 HD 
ENDBRANCH  19  20
ENDBRANCH   2  19
TORSDOF 2
ENDMDL
MODEL       60
REMARK 921   NORMALIZED FREE ENERGY PREDICTED BY IDOCK:   -3.78 KCAL/MOL
REMARK 922        TOTAL FREE ENERGY PREDICTED BY IDOCK:   -4.73 KCAL/MOL
REMARK 923 INTER-LIGAND FREE ENERGY PREDICTED BY IDOCK:   -4.60 KCAL/MOL
REMARK 924 INTRA-LIGAND FREE ENERGY PREDICTED BY IDOCK:   -0.12 KCAL/MOL
REMARK 927      BINDING AFFINITY PREDICTED BY RF-SCORE:    0.00 PKD
ROOT
HETATM    1  C   UNL     1      -5.918  12.791  67.143  1.00  0.00     0.120 C  
HETATM    2  N   UNL     1      -7.330  13.048  67.609  1.00  0.00    -0.133 N  
HETATM    3  C   UNL     2     -10.986  13.913  66.485  1.00  0.00    -0.300 C  
HETATM    4  C   UNL     1      -8.145  11.939  66.972  1.00  0.00    -0.167 C  
HETATM    5  C   UNL     1      -7.710  14.445  67.122  1.00  0.00    -0.034 C  
HETATM    6  N   UNL     2     -11.157  13.841  67.929  1.00  0.00    -0.257 N  
HETATM    7  C   UNL     2     -12.187  11.435  70.499  1.00  0.00    -0.386 C  
HETATM    8  O   UNL     2     -10.795  11.577  68.224  1.00  0.00    -0.193 OA 
HETATM    9  C   UNL     2     -11.147  14.991  68.674  1.00  0.00    -0.264 A  
HETATM   10  N   UNL     2     -10.486  16.135  68.415  1.00  0.00    -0.261 NA 
HETATM   11  C   UNL     2     -11.642  15.027  69.948  1.00  0.00    -0.293 A  
HETATM   12  C   UNL     2     -11.273  12.642  68.628  1.00  0.00    -0.282 C  
HETATM   13  N   UNL     2     -11.297  16.230  70.478  1.00  0.00    -0.473 NA 
HETATM   14  C   UNL     2     -12.309  13.890  70.527  1.00  0.00    -0.369 C  
HETATM   15  N   UNL     2     -11.932  12.707  69.863  1.00  0.00    -0.323 N  
HETATM   16  H   UNL     2     -11.509  16.561  71.420  1.00  0.00     0.000 HD 
HETATM   17  C   UNL     2     -10.620  16.905  69.520  1.00  0.00    -0.239 A  
HETATM   18  O   UNL     2     -13.083  13.835  71.484  1.00  0.00    -0.339 OA 
ENDROOT
BRANCH   2  19
HETATM   19  C   UNL     1      -7.500  13.140  69.152  1.00  0.00     0.189 C  
BRANCH  19  20
HETATM   20  C   UNL     1      -6.209  13.098  69.978  1.00  0.00    -0.073 C  
HETATM   21  O   UNL     1      -6.389  13.678  71.268  1.00  0.00    -0.524 OA 
HETATM   22  H   UNL     1      -5.590  13.652  71.780  1.00  0.00     0.000 HD 
ENDBRANCH  19  20
ENDBRANCH   2  19
TORSDOF 2
ENDMDL
MODEL       61
REMARK 921   NORMALIZED FREE ENERGY PREDICTED BY IDOCK:   -3.75 KCAL/MOL
REMARK 922        TOTAL FREE ENERGY PREDICTED BY IDOCK:   -4.70 KCAL/MOL
REMARK 923 INTER-LIGAND FREE ENERGY PREDICTED BY IDOCK:   -4.55 KCAL/MOL
REMARK 924 INTRA-LIGAND FREE ENERGY PREDICTED BY IDOCK:   -0.15 KCAL/MOL
REMARK 927      BINDING AFFINITY PREDICTED BY RF-SCORE:    0.00 PKD
ROOT
HETATM    1  C   UNL     1      -8.194   8.646  71.434  1.00  0.00    -0.160 C  
HETATM    2  N   UNL     1      -8.712   9.077  70.083  1.00  0.00    -0.157 N  
HETATM    3  C   UNL     2     -10.746   7.984  66.914  1.00  0.00    -0.131 C  
HETATM    4  C   UNL     1     -10.220   9.000  70.215  1.00  0.00    -0.201 C  
HETATM    5  C   UNL     1      -8.135   8.104  69.057  1.00  0.00    -0.115 C  
HETATM    6  N   UNL     2     -10.384   9.346  66.547  1.00  0.00    -0.232 N  
HETATM    7  C   UNL     2     -11.789  12.733  66.660  1.00  0.00    -0.393 C  
HETATM    8  O   UNL     2     -11.651  10.491  68.106  1.00  0.00    -0.402 OA 
HETATM    9  C   UNL     2      -9.301   9.568  65.737  1.00  0.00    -0.233 A  
HETATM   10  N   UNL     2      -8.183   8.824  65.634  1.00  0.00    -0.114 NA 
HETATM   11  C   UNL     2      -9.122  10.756  65.084  1.00  0.00    -0.203 A  
HETATM   12  C   UNL     2     -11.048  10.472  67.027  1.00  0.00    -0.110 C  
HETATM   13  N   UNL     2      -7.874  10.734  64.547  1.00  0.00    -0.356 NA 
HETATM   14  C   UNL     2     -10.124  11.789  65.117  1.00  0.00    -0.259 C  
HETATM   15  N   UNL     2     -10.964  11.625  66.234  1.00  0.00    -0.288 N  
HETATM   16  H   UNL     2      -7.432  11.478  64.007  1.00  0.00     0.000 HD 
HETATM   17  C   UNL     2      -7.327   9.537  64.866  1.00  0.00    -0.111 A  
HETATM   18  O   UNL     2     -10.294  12.745  64.358  1.00  0.00    -0.353 OA 
ENDROOT
BRANCH   2  19
HETATM   19  C   UNL     1      -8.198  10.463  69.602  1.00  0.00    -0.084 C  
BRANCH  19  20
HETATM   20  C   UNL     1      -6.692  10.715  69.747  1.00  0.00    -0.130 C  
HETATM   21  O   UNL     1      -6.424  11.870  70.537  1.00  0.00    -0.519 OA 
HETATM   22  H   UNL     1      -5.492  12.027  70.627  1.00  0.00     0.000 HD 
ENDBRANCH  19  20
ENDBRANCH   2  19
TORSDOF 2
ENDMDL
MODEL       62
REMARK 921   NORMALIZED FREE ENERGY PREDICTED BY IDOCK:   -3.75 KCAL/MOL
REMARK 922        TOTAL FREE ENERGY PREDICTED BY IDOCK:   -4.70 KCAL/MOL
REMARK 923 INTER-LIGAND FREE ENERGY PREDICTED BY IDOCK:   -4.54 KCAL/MOL
REMARK 924 INTRA-LIGAND FREE ENERGY PREDICTED BY IDOCK:   -0.16 KCAL/MOL
REMARK 927      BINDING AFFINITY PREDICTED BY RF-SCORE:    0.00 PKD
ROOT
HETATM    1  C   UNL     1     -13.330   9.202  72.409  1.00  0.00    -0.463 C  
HETATM    2  N   UNL     1     -12.222   8.486  71.676  1.00  0.00    -0.306 N  
HETATM    3  C   UNL     2     -10.228   5.127  71.339  1.00  0.00    -0.213 C  
HETATM    4  C   UNL     1     -12.915   7.330  70.982  1.00  0.00    -0.175 C  
HETATM    5  C   UNL     1     -11.204   8.049  72.727  1.00  0.00    -0.382 C  
HETATM    6  N   UNL     2      -9.562   5.938  70.329  1.00  0.00    -0.160 N  
HETATM    7  C   UNL     2      -9.708   6.570  66.719  1.00  0.00    -0.164 C  
HETATM    8  O   UNL     2     -11.301   6.133  68.818  1.00  0.00    -0.344 OA 
HETATM    9  C   UNL     2      -8.385   6.571  70.632  1.00  0.00    -0.133 A  
HETATM   10  N   UNL     2      -7.980   7.029  71.832  1.00  0.00    -0.098 NA 
HETATM   11  C   UNL     2      -7.550   7.042  69.656  1.00  0.00    -0.104 A  
HETATM   12  C   UNL     2     -10.090   6.168  69.062  1.00  0.00    -0.173 C  
HETATM   13  N   UNL     2      -6.597   7.789  70.272  1.00  0.00    -0.038 NA 
HETATM   14  C   UNL     2      -7.807   6.790  68.262  1.00  0.00    -0.110 C  
HETATM   15  N   UNL     2      -9.168   6.494  68.058  1.00  0.00    -0.113 N  
HETATM   16  H   UNL     2      -5.831   8.288  69.819  1.00  0.00     0.000 HD 
HETATM   17  C   UNL     2      -6.856   7.745  71.600  1.00  0.00    -0.058 A  
HETATM   18  O   UNL     2      -7.038   6.834  67.300  1.00  0.00    -0.075 OA 
ENDROOT
BRANCH   2  19
HETATM   19  C   UNL     1     -11.392   9.383  70.714  1.00  0.00    -0.300 C  
BRANCH  19  20
HETATM   20  C   UNL     1     -12.055  10.690  70.265  1.00  0.00    -0.338 C  
HETATM   21  O   UNL     1     -12.433  10.646  68.891  1.00  0.00    -0.791 OA 
HETATM   22  H   UNL     1     -12.843  11.455  68.613  1.00  0.00     0.000 HD 
ENDBRANCH  19  20
ENDBRANCH   2  19
TORSDOF 2
ENDMDL
MODEL       63
REMARK 921   NORMALIZED FREE ENERGY PREDICTED BY IDOCK:   -3.74 KCAL/MOL
REMARK 922        TOTAL FREE ENERGY PREDICTED BY IDOCK:   -4.69 KCAL/MOL
REMARK 923 INTER-LIGAND FREE ENERGY PREDICTED BY IDOCK:   -4.41 KCAL/MOL
REMARK 924 INTRA-LIGAND FREE ENERGY PREDICTED BY IDOCK:   -0.28 KCAL/MOL
REMARK 927      BINDING AFFINITY PREDICTED BY RF-SCORE:    0.00 PKD
ROOT
HETATM    1  C   UNL     1     -10.508  14.237  67.344  1.00  0.00    -0.264 C  
HETATM    2  N   UNL     1      -9.777  15.556  67.410  1.00  0.00    -0.218 N  
HETATM    3  C   UNL     2      -9.741  19.283  66.193  1.00  0.00    -0.333 C  
HETATM    4  C   UNL     1     -10.772  16.507  68.045  1.00  0.00    -0.343 C  
HETATM    5  C   UNL     1      -9.402  15.928  65.976  1.00  0.00    -0.349 C  
HETATM    6  N   UNL     2      -8.539  19.256  67.016  1.00  0.00    -0.277 N  
HETATM    7  C   UNL     2      -7.486  20.041  70.440  1.00  0.00     0.750 C  
HETATM    8  O   UNL     2      -9.525  18.972  69.087  1.00  0.00    -0.295 OA 
HETATM    9  C   UNL     2      -7.314  19.084  66.426  1.00  0.00    -0.245 A  
HETATM   10  N   UNL     2      -7.031  18.407  65.296  1.00  0.00    -0.503 NA 
HETATM   11  C   UNL     2      -6.153  19.395  67.077  1.00  0.00    -0.181 A  
HETATM   12  C   UNL     2      -8.560  19.334  68.406  1.00  0.00    -0.354 C  
HETATM   13  N   UNL     2      -5.129  18.919  66.320  1.00  0.00    -0.140 NA 
HETATM   14  C   UNL     2      -6.163  20.032  68.368  1.00  0.00    -0.272 C  
HETATM   15  N   UNL     2      -7.392  19.812  69.016  1.00  0.00    -0.320 N  
HETATM   16  H   UNL     2      -4.134  18.980  66.537  1.00  0.00     0.000 HD 
HETATM   17  C   UNL     2      -5.681  18.347  65.224  1.00  0.00    -0.199 A  
HETATM   18  O   UNL     2      -5.275  20.668  68.939  1.00  0.00    -0.237 OA 
ENDROOT
BRANCH   2  19
HETATM   19  C   UNL     1      -8.407  15.505  68.144  1.00  0.00    -0.145 C  
BRANCH  19  20
HETATM   20  C   UNL     1      -7.162  15.448  67.251  1.00  0.00    -0.194 C  
HETATM   21  O   UNL     1      -6.336  14.331  67.568  1.00  0.00    -0.295 OA 
HETATM   22  H   UNL     1      -5.565  14.296  67.015  1.00  0.00     0.000 HD 
ENDBRANCH  19  20
ENDBRANCH   2  19
TORSDOF 2
ENDMDL
MODEL       64
REMARK 921   NORMALIZED FREE ENERGY PREDICTED BY IDOCK:   -3.69 KCAL/MOL
REMARK 922        TOTAL FREE ENERGY PREDICTED BY IDOCK:   -4.63 KCAL/MOL
REMARK 923 INTER-LIGAND FREE ENERGY PREDICTED BY IDOCK:   -4.12 KCAL/MOL
REMARK 924 INTRA-LIGAND FREE ENERGY PREDICTED BY IDOCK:   -0.51 KCAL/MOL
REMARK 927      BINDING AFFINITY PREDICTED BY RF-SCORE:    0.00 PKD
ROOT
HETATM    1  C   UNL     1      -7.543   4.299  65.456  1.00  0.00    -0.085 C  
HETATM    2  N   UNL     1      -7.990   5.357  66.434  1.00  0.00    -0.104 N  
HETATM    3  C   UNL     2      -7.211   7.129  69.844  1.00  0.00    -0.079 C  
HETATM    4  C   UNL     1      -6.850   6.356  66.456  1.00  0.00    -0.062 C  
HETATM    5  C   UNL     1      -8.219   4.657  67.772  1.00  0.00    -0.099 C  
HETATM    6  N   UNL     2      -8.428   7.826  69.449  1.00  0.00    -0.133 N  
HETATM    7  C   UNL     2      -9.447  10.902  67.731  1.00  0.00    -0.157 C  
HETATM    8  O   UNL     2      -7.612   8.966  67.611  1.00  0.00    -0.092 OA 
HETATM    9  C   UNL     2      -9.635   7.433  69.965  1.00  0.00    -0.168 A  
HETATM   10  N   UNL     2     -10.001   6.198  70.357  1.00  0.00    -0.177 NA 
HETATM   11  C   UNL     2     -10.736   8.243  69.916  1.00  0.00    -0.234 A  
HETATM   12  C   UNL     2      -8.452   8.854  68.510  1.00  0.00    -0.129 C  
HETATM   13  N   UNL     2     -11.800   7.495  70.309  1.00  0.00    -0.502 NA 
HETATM   14  C   UNL     2     -10.652   9.595  69.429  1.00  0.00    -0.225 C  
HETATM   15  N   UNL     2      -9.523   9.753  68.605  1.00  0.00    -0.148 N  
HETATM   16  H   UNL     2     -12.771   7.805  70.370  1.00  0.00     0.000 HD 
HETATM   17  C   UNL     2     -11.330   6.260  70.603  1.00  0.00    -0.343 A  
HETATM   18  O   UNL     2     -11.416  10.545  69.611  1.00  0.00    -0.247 OA 
ENDROOT
BRANCH   2  19
HETATM   19  C   UNL     1      -9.372   5.995  66.116  1.00  0.00    -0.118 C  
BRANCH  19  20
HETATM   20  C   UNL     1     -10.563   5.471  66.927  1.00  0.00    -0.278 C  
HETATM   21  O   UNL     1     -11.556   6.475  67.115  1.00  0.00    -0.743 OA 
HETATM   22  H   UNL     1     -12.294   6.151  67.618  1.00  0.00     0.000 HD 
ENDBRANCH  19  20
ENDBRANCH   2  19
TORSDOF 2
ENDMDL
MODEL       65
REMARK 921   NORMALIZED FREE ENERGY PREDICTED BY IDOCK:   -3.67 KCAL/MOL
REMARK 922        TOTAL FREE ENERGY PREDICTED BY IDOCK:   -4.60 KCAL/MOL
REMARK 923 INTER-LIGAND FREE ENERGY PREDICTED BY IDOCK:   -4.10 KCAL/MOL
REMARK 924 INTRA-LIGAND FREE ENERGY PREDICTED BY IDOCK:   -0.50 KCAL/MOL
REMARK 927      BINDING AFFINITY PREDICTED BY RF-SCORE:    0.00 PKD
ROOT
HETATM    1  C   UNL     1     -11.678  10.649  69.442  1.00  0.00    -0.273 C  
HETATM    2  N   UNL     1     -11.259  11.800  68.561  1.00  0.00    -0.229 N  
HETATM    3  C   UNL     2      -8.348  13.328  66.425  1.00  0.00     0.607 C  
HETATM    4  C   UNL     1     -10.970  11.160  67.217  1.00  0.00    -0.296 C  
HETATM    5  C   UNL     1     -10.033  12.436  69.214  1.00  0.00     0.547 C  
HETATM    6  N   UNL     2      -9.378  14.341  66.241  1.00  0.00    -0.249 N  
HETATM    7  C   UNL     2     -12.014  15.237  63.852  1.00  0.00     0.179 C  
HETATM    8  O   UNL     2     -10.883  13.104  64.996  1.00  0.00    -0.292 OA 
HETATM    9  C   UNL     2      -9.365  15.473  67.012  1.00  0.00    -0.224 A  
HETATM   10  N   UNL     2      -8.903  15.608  68.270  1.00  0.00    -0.177 NA 
HETATM   11  C   UNL     2     -10.069  16.591  66.661  1.00  0.00    -0.294 A  
HETATM   12  C   UNL     2     -10.439  14.202  65.350  1.00  0.00    -0.357 C  
HETATM   13  N   UNL     2     -10.021  17.444  67.718  1.00  0.00    -0.289 NA 
HETATM   14  C   UNL     2     -10.762  16.677  65.402  1.00  0.00    -0.215 C  
HETATM   15  N   UNL     2     -11.026  15.391  64.896  1.00  0.00    -0.437 N  
HETATM   16  H   UNL     2     -10.460  18.363  67.777  1.00  0.00     0.000 HD 
HETATM   17  C   UNL     2      -9.281  16.842  68.678  1.00  0.00    -0.257 A  
HETATM   18  O   UNL     2     -11.151  17.670  64.784  1.00  0.00    -0.915 OA 
ENDROOT
BRANCH   2  19
HETATM   19  C   UNL     1     -12.281  12.969  68.488  1.00  0.00    -0.001 C  
BRANCH  19  20
HETATM   20  C   UNL     1     -12.033  14.146  69.437  1.00  0.00    -0.337 C  
HETATM   21  O   UNL     1     -12.424  15.387  68.854  1.00  0.00    -0.594 OA 
HETATM   22  H   UNL     1     -12.270  16.116  69.442  1.00  0.00     0.000 HD 
ENDBRANCH  19  20
ENDBRANCH   2  19
TORSDOF 2
ENDMDL
MODEL       66
REMARK 921   NORMALIZED FREE ENERGY PREDICTED BY IDOCK:   -3.65 KCAL/MOL
REMARK 922        TOTAL FREE ENERGY PREDICTED BY IDOCK:   -4.58 KCAL/MOL
REMARK 923 INTER-LIGAND FREE ENERGY PREDICTED BY IDOCK:   -4.46 KCAL/MOL
REMARK 924 INTRA-LIGAND FREE ENERGY PREDICTED BY IDOCK:   -0.12 KCAL/MOL
REMARK 927      BINDING AFFINITY PREDICTED BY RF-SCORE:    0.00 PKD
ROOT
HETATM    1  C   UNL     1      -5.635  19.684  69.020  1.00  0.00    -0.206 C  
HETATM    2  N   UNL     1      -6.597  18.561  68.716  1.00  0.00    -0.245 N  
HETATM    3  C   UNL     2      -9.669  17.447  66.549  1.00  0.00    -0.293 C  
HETATM    4  C   UNL     1      -6.339  18.227  67.260  1.00  0.00    -0.177 C  
HETATM    5  C   UNL     1      -8.003  19.095  68.984  1.00  0.00    -0.245 C  
HETATM    6  N   UNL     2      -9.449  16.246  67.344  1.00  0.00    -0.226 N  
HETATM    7  C   UNL     2      -7.720  13.021  67.104  1.00  0.00    -0.039 C  
HETATM    8  O   UNL     2      -7.414  15.595  66.461  1.00  0.00    -0.077 OA 
HETATM    9  C   UNL     2     -10.202  16.027  68.468  1.00  0.00    -0.236 A  
HETATM   10  N   UNL     2     -10.745  16.946  69.289  1.00  0.00    -0.325 NA 
HETATM   11  C   UNL     2     -10.292  14.789  69.042  1.00  0.00    -0.243 A  
HETATM   12  C   UNL     2      -8.456  15.312  67.062  1.00  0.00    -0.228 C  
HETATM   13  N   UNL     2     -10.925  14.947  70.235  1.00  0.00    -0.435 NA 
HETATM   14  C   UNL     2      -9.699  13.630  68.427  1.00  0.00    -0.217 C  
HETATM   15  N   UNL     2      -8.675  14.013  67.541  1.00  0.00    -0.186 N  
HETATM   16  H   UNL     2     -11.137  14.212  70.911  1.00  0.00     0.000 HD 
HETATM   17  C   UNL     2     -11.221  16.262  70.355  1.00  0.00    -0.324 A  
HETATM   18  O   UNL     2      -9.945  12.435  68.601  1.00  0.00    -0.196 OA 
ENDROOT
BRANCH   2  19
HETATM   19  C   UNL     1      -6.486  17.335  69.667  1.00  0.00    -0.165 C  
BRANCH  19  20
HETATM   20  C   UNL     1      -5.408  17.415  70.753  1.00  0.00    -0.216 C  
HETATM   21  O   UNL     1      -5.151  16.141  71.337  1.00  0.00    -0.180 OA 
HETATM   22  H   UNL     1      -4.483  16.191  72.011  1.00  0.00     0.000 HD 
ENDBRANCH  19  20
ENDBRANCH   2  19
TORSDOF 2
ENDMDL
MODEL       67
REMARK 921   NORMALIZED FREE ENERGY PREDICTED BY IDOCK:   -3.64 KCAL/MOL
REMARK 922        TOTAL FREE ENERGY PREDICTED BY IDOCK:   -4.58 KCAL/MOL
REMARK 923 INTER-LIGAND FREE ENERGY PREDICTED BY IDOCK:   -4.30 KCAL/MOL
REMARK 924 INTRA-LIGAND FREE ENERGY PREDICTED BY IDOCK:   -0.28 KCAL/MOL
REMARK 927      BINDING AFFINITY PREDICTED BY RF-SCORE:    0.00 PKD
ROOT
HETATM    1  C   UNL     1      -9.882  11.070  66.536  1.00  0.00    -0.203 C  
HETATM    2  N   UNL     1      -9.515  12.456  67.009  1.00  0.00    -0.205 N  
HETATM    3  C   UNL     2      -7.486  14.529  69.646  1.00  0.00     0.035 C  
HETATM    4  C   UNL     1      -8.011  12.529  66.831  1.00  0.00    -0.008 C  
HETATM    5  C   UNL     1      -9.967  12.563  68.464  1.00  0.00    -0.165 C  
HETATM    6  N   UNL     2      -8.095  15.601  68.870  1.00  0.00    -0.179 N  
HETATM    7  C   UNL     2      -7.289  17.812  66.057  1.00  0.00    -0.272 C  
HETATM    8  O   UNL     2      -6.966  15.290  66.876  1.00  0.00    -0.181 OA 
HETATM    9  C   UNL     2      -9.239  16.203  69.323  1.00  0.00    -0.223 A  
HETATM   10  N   UNL     2     -10.216  15.659  70.073  1.00  0.00    -0.303 NA 
HETATM   11  C   UNL     2      -9.651  17.416  68.843  1.00  0.00    -0.223 A  
HETATM   12  C   UNL     2      -7.610  16.023  67.635  1.00  0.00    -0.146 C  
HETATM   13  N   UNL     2     -10.903  17.632  69.326  1.00  0.00    -0.203 NA 
HETATM   14  C   UNL     2      -8.842  18.176  67.927  1.00  0.00    -0.268 C  
HETATM   15  N   UNL     2      -7.931  17.335  67.260  1.00  0.00    -0.183 N  
HETATM   16  H   UNL     2     -11.493  18.445  69.142  1.00  0.00     0.000 HD 
HETATM   17  C   UNL     2     -11.219  16.566  70.098  1.00  0.00    -0.138 A  
HETATM   18  O   UNL     2      -8.877  19.378  67.657  1.00  0.00    -0.296 OA 
ENDROOT
BRANCH   2  19
HETATM   19  C   UNL     1     -10.283  13.608  66.302  1.00  0.00    -0.296 C  
BRANCH  19  20
HETATM   20  C   UNL     1     -11.532  14.130  67.021  1.00  0.00    -0.352 C  
HETATM   21  O   UNL     1     -12.700  13.999  66.214  1.00  0.00    -0.488 OA 
HETATM   22  H   UNL     1     -13.474  14.323  66.659  1.00  0.00     0.000 HD 
ENDBRANCH  19  20
ENDBRANCH   2  19
TORSDOF 2
ENDMDL
MODEL       68
REMARK 921   NORMALIZED FREE ENERGY PREDICTED BY IDOCK:   -3.64 KCAL/MOL
REMARK 922        TOTAL FREE ENERGY PREDICTED BY IDOCK:   -4.57 KCAL/MOL
REMARK 923 INTER-LIGAND FREE ENERGY PREDICTED BY IDOCK:   -4.15 KCAL/MOL
REMARK 924 INTRA-LIGAND FREE ENERGY PREDICTED BY IDOCK:   -0.42 KCAL/MOL
REMARK 927      BINDING AFFINITY PREDICTED BY RF-SCORE:    0.00 PKD
ROOT
HETATM    1  C   UNL     1      -6.051   4.865  68.651  1.00  0.00    -0.030 C  
HETATM    2  N   UNL     1      -7.293   5.693  68.874  1.00  0.00    -0.080 N  
HETATM    3  C   UNL     2     -10.671   6.920  67.307  1.00  0.00    -0.351 C  
HETATM    4  C   UNL     1      -8.431   4.694  68.799  1.00  0.00    -0.084 C  
HETATM    5  C   UNL     1      -7.328   6.747  67.769  1.00  0.00    -0.096 C  
HETATM    6  N   UNL     2     -10.720   7.579  68.606  1.00  0.00    -0.132 N  
HETATM    7  C   UNL     2     -12.115   7.040  71.955  1.00  0.00    -0.323 C  
HETATM    8  O   UNL     2     -10.953   5.713  69.950  1.00  0.00    -0.339 OA 
HETATM    9  C   UNL     2     -10.333   8.888  68.719  1.00  0.00    -0.211 A  
HETATM   10  N   UNL     2      -9.417   9.544  67.982  1.00  0.00    -0.133 NA 
HETATM   11  C   UNL     2     -10.680   9.650  69.801  1.00  0.00    -0.245 A  
HETATM   12  C   UNL     2     -11.088   6.929  69.781  1.00  0.00    -0.271 C  
HETATM   13  N   UNL     2      -9.978  10.810  69.716  1.00  0.00    -0.423 NA 
HETATM   14  C   UNL     2     -11.570   9.150  70.817  1.00  0.00    -0.276 C  
HETATM   15  N   UNL     2     -11.588   7.743  70.807  1.00  0.00    -0.280 N  
HETATM   16  H   UNL     2     -10.004  11.585  70.379  1.00  0.00     0.000 HD 
HETATM   17  C   UNL     2      -9.236  10.742  68.586  1.00  0.00    -0.184 A  
HETATM   18  O   UNL     2     -12.239   9.765  71.649  1.00  0.00    -0.371 OA 
ENDROOT
BRANCH   2  19
HETATM   19  C   UNL     1      -7.288   6.535  70.182  1.00  0.00    -0.089 C  
BRANCH  19  20
HETATM   20  C   UNL     1      -7.480   5.757  71.489  1.00  0.00    -0.093 C  
HETATM   21  O   UNL     1      -8.776   5.970  72.043  1.00  0.00    -0.136 OA 
HETATM   22  H   UNL     1      -8.895   5.488  72.853  1.00  0.00     0.000 HD 
ENDBRANCH  19  20
ENDBRANCH   2  19
TORSDOF 2
ENDMDL
MODEL       69
REMARK 921   NORMALIZED FREE ENERGY PREDICTED BY IDOCK:   -3.59 KCAL/MOL
REMARK 922        TOTAL FREE ENERGY PREDICTED BY IDOCK:   -4.52 KCAL/MOL
REMARK 923 INTER-LIGAND FREE ENERGY PREDICTED BY IDOCK:   -4.26 KCAL/MOL
REMARK 924 INTRA-LIGAND FREE ENERGY PREDICTED BY IDOCK:   -0.25 KCAL/MOL
REMARK 927      BINDING AFFINITY PREDICTED BY RF-SCORE:    0.00 PKD
ROOT
HETATM    1  C   UNL     1      -5.892   6.134  69.051  1.00  0.00    -0.020 C  
HETATM    2  N   UNL     1      -7.048   6.602  69.902  1.00  0.00    -0.066 N  
HETATM    3  C   UNL     2      -8.106   8.014  73.403  1.00  0.00    -0.192 C  
HETATM    4  C   UNL     1      -6.738   8.058  70.189  1.00  0.00    -0.037 C  
HETATM    5  C   UNL     1      -7.066   5.721  71.149  1.00  0.00    -0.069 C  
HETATM    6  N   UNL     2      -9.400   7.940  72.739  1.00  0.00    -0.207 N  
HETATM    7  C   UNL     2     -11.688  10.087  70.839  1.00  0.00    -0.374 C  
HETATM    8  O   UNL     2      -9.083   9.580  71.142  1.00  0.00    -0.239 OA 
HETATM    9  C   UNL     2     -10.218   6.863  72.961  1.00  0.00    -0.218 A  
HETATM   10  N   UNL     2      -9.855   5.599  73.256  1.00  0.00    -0.165 NA 
HETATM   11  C   UNL     2     -11.551   6.898  72.661  1.00  0.00    -0.142 A  
HETATM   12  C   UNL     2      -9.847   8.887  71.822  1.00  0.00    -0.315 C  
HETATM   13  N   UNL     2     -12.026   5.632  72.795  1.00  0.00    -0.521 NA 
HETATM   14  C   UNL     2     -12.188   8.108  72.210  1.00  0.00    -0.346 C  
HETATM   15  N   UNL     2     -11.236   8.993  71.669  1.00  0.00    -0.337 N  
HETATM   16  H   UNL     2     -12.984   5.322  72.631  1.00  0.00     0.000 HD 
HETATM   17  C   UNL     2     -10.986   4.859  73.188  1.00  0.00    -0.306 A  
HETATM   18  O   UNL     2     -13.380   8.418  72.212  1.00  0.00    -0.317 OA 
ENDROOT
BRANCH   2  19
HETATM   19  C   UNL     1      -8.452   6.375  69.274  1.00  0.00    -0.126 C  
BRANCH  19  20
HETATM   20  C   UNL     1      -9.253   5.186  69.818  1.00  0.00    -0.119 C  
HETATM   21  O   UNL     1     -10.403   4.916  69.021  1.00  0.00    -0.148 OA 
HETATM   22  H   UNL     1     -10.899   4.179  69.358  1.00  0.00     0.000 HD 
ENDBRANCH  19  20
ENDBRANCH   2  19
TORSDOF 2
ENDMDL
MODEL       70
REMARK 921   NORMALIZED FREE ENERGY PREDICTED BY IDOCK:   -3.57 KCAL/MOL
REMARK 922        TOTAL FREE ENERGY PREDICTED BY IDOCK:   -4.49 KCAL/MOL
REMARK 923 INTER-LIGAND FREE ENERGY PREDICTED BY IDOCK:   -5.34 KCAL/MOL
REMARK 924 INTRA-LIGAND FREE ENERGY PREDICTED BY IDOCK:    0.85 KCAL/MOL
REMARK 927      BINDING AFFINITY PREDICTED BY RF-SCORE:    0.00 PKD
ROOT
HETATM    1  C   UNL     1      -5.559  13.582  69.908  1.00  0.00    -0.108 C  
HETATM    2  N   UNL     1      -6.770  14.012  69.117  1.00  0.00    -0.109 N  
HETATM    3  C   UNL     2     -10.688  14.066  68.998  1.00  0.00    -0.211 C  
HETATM    4  C   UNL     1      -7.481  14.998  70.022  1.00  0.00     0.096 C  
HETATM    5  C   UNL     1      -7.580  12.750  68.826  1.00  0.00    -0.025 C  
HETATM    6  N   UNL     2     -10.371  14.736  67.745  1.00  0.00    -0.243 N  
HETATM    7  C   UNL     2      -9.977  18.134  66.421  1.00  0.00    -0.376 C  
HETATM    8  O   UNL     2      -9.448  16.677  68.596  1.00  0.00    -0.232 OA 
HETATM    9  C   UNL     2     -10.376  14.026  66.573  1.00  0.00    -0.285 A  
HETATM   10  N   UNL     2     -10.100  12.720  66.399  1.00  0.00    -0.254 NA 
HETATM   11  C   UNL     2     -10.436  14.647  65.356  1.00  0.00    -0.380 A  
HETATM   12  C   UNL     2      -9.993  16.074  67.666  1.00  0.00    -0.239 C  
HETATM   13  N   UNL     2     -10.212  13.697  64.411  1.00  0.00    -0.712 NA 
HETATM   14  C   UNL     2     -10.618  16.072  65.248  1.00  0.00    -0.402 C  
HETATM   15  N   UNL     2     -10.223  16.710  66.438  1.00  0.00    -0.304 N  
HETATM   16  H   UNL     2     -10.180  13.842  63.401  1.00  0.00     0.000 HD 
HETATM   17  C   UNL     2     -10.040  12.523  65.062  1.00  0.00    -0.236 A  
HETATM   18  O   UNL     2     -11.015  16.744  64.295  1.00  0.00    -0.933 OA 
ENDROOT
BRANCH   2  19
HETATM   19  C   UNL     1      -6.455  14.577  67.703  1.00  0.00    -0.132 C  
BRANCH  19  20
HETATM   20  C   UNL     1      -5.730  15.927  67.659  1.00  0.00    -0.140 C  
HETATM   21  O   UNL     1      -5.457  16.422  68.967  1.00  0.00    -0.116 OA 
HETATM   22  H   UNL     1      -5.008  17.258  68.941  1.00  0.00     0.000 HD 
ENDBRANCH  19  20
ENDBRANCH   2  19
TORSDOF 2
ENDMDL
MODEL       71
REMARK 921   NORMALIZED FREE ENERGY PREDICTED BY IDOCK:   -3.56 KCAL/MOL
REMARK 922        TOTAL FREE ENERGY PREDICTED BY IDOCK:   -4.48 KCAL/MOL
REMARK 923 INTER-LIGAND FREE ENERGY PREDICTED BY IDOCK:   -4.20 KCAL/MOL
REMARK 924 INTRA-LIGAND FREE ENERGY PREDICTED BY IDOCK:   -0.28 KCAL/MOL
REMARK 927      BINDING AFFINITY PREDICTED BY RF-SCORE:    0.00 PKD
ROOT
HETATM    1  C   UNL     1     -11.066   5.685  72.449  1.00  0.00    -0.271 C  
HETATM    2  N   UNL     1     -10.495   6.689  71.477  1.00  0.00    -0.214 N  
HETATM    3  C   UNL     2      -8.270   7.178  68.286  1.00  0.00    -0.124 C  
HETATM    4  C   UNL     1     -11.099   6.305  70.140  1.00  0.00    -0.377 C  
HETATM    5  C   UNL     1      -8.975   6.542  71.529  1.00  0.00    -0.140 C  
HETATM    6  N   UNL     2      -8.632   8.558  68.577  1.00  0.00    -0.137 N  
HETATM    7  C   UNL     2     -11.135  11.052  67.590  1.00  0.00    -0.300 C  
HETATM    8  O   UNL     2     -10.894   8.444  68.114  1.00  0.00    -0.085 OA 
HETATM    9  C   UNL     2      -7.762   9.359  69.268  1.00  0.00    -0.083 A  
HETATM   10  N   UNL     2      -6.859   8.987  70.196  1.00  0.00    -0.041 NA 
HETATM   11  C   UNL     2      -7.881  10.721  69.265  1.00  0.00    -0.122 A  
HETATM   12  C   UNL     2      -9.864   9.114  68.241  1.00  0.00    -0.160 C  
HETATM   13  N   UNL     2      -7.016  11.201  70.198  1.00  0.00    -0.467 NA 
HETATM   14  C   UNL     2      -8.852  11.389  68.439  1.00  0.00    -0.167 C  
HETATM   15  N   UNL     2      -9.895  10.508  68.095  1.00  0.00    -0.150 N  
HETATM   16  H   UNL     2      -6.873  12.180  70.447  1.00  0.00     0.000 HD 
HETATM   17  C   UNL     2      -6.379  10.133  70.733  1.00  0.00    -0.052 A  
HETATM   18  O   UNL     2      -8.889  12.560  68.057  1.00  0.00    -0.174 OA 
ENDROOT
BRANCH   2  19
HETATM   19  C   UNL     1     -10.731   8.176  71.864  1.00  0.00    -0.265 C  
BRANCH  19  20
HETATM   20  C   UNL     1     -12.193   8.623  71.978  1.00  0.00    -0.373 C  
HETATM   21  O   UNL     1     -12.623   9.322  70.813  1.00  0.00    -0.497 OA 
HETATM   22  H   UNL     1     -13.529   9.599  70.883  1.00  0.00     0.000 HD 
ENDBRANCH  19  20
ENDBRANCH   2  19
TORSDOF 2
ENDMDL
MODEL       72
REMARK 921   NORMALIZED FREE ENERGY PREDICTED BY IDOCK:   -3.54 KCAL/MOL
REMARK 922        TOTAL FREE ENERGY PREDICTED BY IDOCK:   -4.46 KCAL/MOL
REMARK 923 INTER-LIGAND FREE ENERGY PREDICTED BY IDOCK:   -4.30 KCAL/MOL
REMARK 924 INTRA-LIGAND FREE ENERGY PREDICTED BY IDOCK:   -0.16 KCAL/MOL
REMARK 927      BINDING AFFINITY PREDICTED BY RF-SCORE:    0.00 PKD
ROOT
HETATM    1  C   UNL     1      -5.366  13.447  67.598  1.00  0.00    -0.014 C  
HETATM    2  N   UNL     1      -6.781  12.967  67.813  1.00  0.00    -0.124 N  
HETATM    3  C   UNL     2     -10.275  12.381  66.134  1.00  0.00    -0.242 C  
HETATM    4  C   UNL     1      -6.919  11.773  66.888  1.00  0.00    -0.101 C  
HETATM    5  C   UNL     1      -7.703  14.130  67.455  1.00  0.00    -0.185 C  
HETATM    6  N   UNL     2     -10.553  11.944  67.495  1.00  0.00    -0.213 N  
HETATM    7  C   UNL     2     -10.640   8.855  69.470  1.00  0.00    -0.228 C  
HETATM    8  O   UNL     2      -9.226  10.052  67.546  1.00  0.00    -0.137 OA 
HETATM    9  C   UNL     2     -11.155  12.804  68.376  1.00  0.00    -0.262 A  
HETATM   10  N   UNL     2     -11.069  14.148  68.405  1.00  0.00    -0.243 NA 
HETATM   11  C   UNL     2     -11.749  12.358  69.524  1.00  0.00    -0.322 A  
HETATM   12  C   UNL     2     -10.181  10.697  67.991  1.00  0.00    -0.175 C  
HETATM   13  N   UNL     2     -12.057  13.453  70.267  1.00  0.00    -0.391 NA 
HETATM   14  C   UNL     2     -11.878  10.952  69.805  1.00  0.00    -0.345 C  
HETATM   15  N   UNL     2     -10.930  10.214  69.073  1.00  0.00    -0.226 N  
HETATM   16  H   UNL     2     -12.500  13.458  71.187  1.00  0.00     0.000 HD 
HETATM   17  C   UNL     2     -11.663  14.536  69.557  1.00  0.00    -0.314 A  
HETATM   18  O   UNL     2     -12.642  10.371  70.579  1.00  0.00    -0.316 OA 
ENDROOT
BRANCH   2  19
HETATM   19  C   UNL     1      -7.143  12.655  69.293  1.00  0.00     0.097 C  
BRANCH  19  20
HETATM   20  C   UNL     1      -6.431  11.454  69.926  1.00  0.00    -0.118 C  
HETATM   21  O   UNL     1      -5.962  11.750  71.238  1.00  0.00    -0.438 OA 
HETATM   22  H   UNL     1      -5.521  11.006  71.631  1.00  0.00     0.000 HD 
ENDBRANCH  19  20
ENDBRANCH   2  19
TORSDOF 2
ENDMDL
MODEL       73
REMARK 921   NORMALIZED FREE ENERGY PREDICTED BY IDOCK:   -3.54 KCAL/MOL
REMARK 922        TOTAL FREE ENERGY PREDICTED BY IDOCK:   -4.46 KCAL/MOL
REMARK 923 INTER-LIGAND FREE ENERGY PREDICTED BY IDOCK:   -3.99 KCAL/MOL
REMARK 924 INTRA-LIGAND FREE ENERGY PREDICTED BY IDOCK:   -0.47 KCAL/MOL
REMARK 927      BINDING AFFINITY PREDICTED BY RF-SCORE:    0.00 PKD
ROOT
HETATM    1  C   UNL     1     -10.139   4.181  74.551  1.00  0.00    -0.200 C  
HETATM    2  N   UNL     1     -10.027   5.240  73.481  1.00  0.00    -0.161 N  
HETATM    3  C   UNL     2     -11.707   8.408  71.895  1.00  0.00    -0.334 C  
HETATM    4  C   UNL     1      -9.923   6.543  74.249  1.00  0.00    -0.339 C  
HETATM    5  C   UNL     1     -11.284   5.134  72.620  1.00  0.00    -0.209 C  
HETATM    6  N   UNL     2     -10.528   8.275  71.049  1.00  0.00    -0.199 N  
HETATM    7  C   UNL     2      -7.111   9.584  70.802  1.00  0.00    -0.097 C  
HETATM    8  O   UNL     2      -8.902   8.779  72.613  1.00  0.00    -0.394 OA 
HETATM    9  C   UNL     2     -10.630   7.651  69.834  1.00  0.00    -0.235 A  
HETATM   10  N   UNL     2     -11.478   6.666  69.481  1.00  0.00    -0.302 NA 
HETATM   11  C   UNL     2      -9.676   7.801  68.866  1.00  0.00    -0.160 A  
HETATM   12  C   UNL     2      -9.259   8.698  71.432  1.00  0.00    -0.235 C  
HETATM   13  N   UNL     2      -9.956   6.904  67.885  1.00  0.00    -0.142 NA 
HETATM   14  C   UNL     2      -8.578   8.719  69.030  1.00  0.00    -0.132 C  
HETATM   15  N   UNL     2      -8.365   8.993  70.394  1.00  0.00    -0.145 N  
HETATM   16  H   UNL     2      -9.423   6.757  67.026  1.00  0.00     0.000 HD 
HETATM   17  C   UNL     2     -11.075   6.242  68.261  1.00  0.00    -0.269 A  
HETATM   18  O   UNL     2      -7.841   9.223  68.181  1.00  0.00    -0.094 OA 
ENDROOT
BRANCH   2  19
HETATM   19  C   UNL     1      -8.870   5.019  72.467  1.00  0.00    -0.123 C  
BRANCH  19  20
HETATM   20  C   UNL     1      -9.180   4.108  71.273  1.00  0.00    -0.136 C  
HETATM   21  O   UNL     1      -8.780   4.699  70.040  1.00  0.00    -0.079 OA 
HETATM   22  H   UNL     1      -8.972   4.135  69.300  1.00  0.00     0.000 HD 
ENDBRANCH  19  20
ENDBRANCH   2  19
TORSDOF 2
ENDMDL
MODEL       74
REMARK 921   NORMALIZED FREE ENERGY PREDICTED BY IDOCK:   -3.51 KCAL/MOL
REMARK 922        TOTAL FREE ENERGY PREDICTED BY IDOCK:   -4.43 KCAL/MOL
REMARK 923 INTER-LIGAND FREE ENERGY PREDICTED BY IDOCK:   -3.93 KCAL/MOL
REMARK 924 INTRA-LIGAND FREE ENERGY PREDICTED BY IDOCK:   -0.50 KCAL/MOL
REMARK 927      BINDING AFFINITY PREDICTED BY RF-SCORE:    0.00 PKD
ROOT
HETATM    1  C   UNL     1     -12.609  14.080  65.875  1.00  0.00    -0.449 C  
HETATM    2  N   UNL     1     -11.500  13.057  65.898  1.00  0.00    -0.323 N  
HETATM    3  C   UNL     2     -10.602   9.293  66.530  1.00  0.00    -0.047 C  
HETATM    4  C   UNL     1     -11.888  12.058  64.825  1.00  0.00    -0.254 C  
HETATM    5  C   UNL     1     -11.470  12.466  67.306  1.00  0.00    -0.354 C  
HETATM    6  N   UNL     2      -9.289   9.833  66.205  1.00  0.00    -0.177 N  
HETATM    7  C   UNL     2      -7.062  10.197  63.313  1.00  0.00    -0.127 C  
HETATM    8  O   UNL     2      -9.646  10.333  63.976  1.00  0.00    -0.289 OA 
HETATM    9  C   UNL     2      -8.425  10.176  67.212  1.00  0.00    -0.125 A  
HETATM   10  N   UNL     2      -8.733  10.612  68.448  1.00  0.00    -0.134 NA 
HETATM   11  C   UNL     2      -7.088  10.348  66.985  1.00  0.00    -0.092 A  
HETATM   12  C   UNL     2      -8.866  10.087  64.903  1.00  0.00    -0.192 C  
HETATM   13  N   UNL     2      -6.555  10.882  68.115  1.00  0.00    -0.061 NA 
HETATM   14  C   UNL     2      -6.500  10.059  65.702  1.00  0.00    -0.099 C  
HETATM   15  N   UNL     2      -7.480  10.095  64.693  1.00  0.00    -0.143 N  
HETATM   16  H   UNL     2      -5.579  11.139  68.264  1.00  0.00     0.000 HD 
HETATM   17  C   UNL     2      -7.566  11.008  69.008  1.00  0.00    -0.134 A  
HETATM   18  O   UNL     2      -5.325   9.836  65.408  1.00  0.00    -0.045 OA 
ENDROOT
BRANCH   2  19
HETATM   19  C   UNL     1     -10.071  13.642  65.717  1.00  0.00    -0.298 C  
BRANCH  19  20
HETATM   20  C   UNL     1      -9.270  13.883  67.003  1.00  0.00    -0.250 C  
HETATM   21  O   UNL     1      -7.880  13.636  66.812  1.00  0.00    -0.332 OA 
HETATM   22  H   UNL     1      -7.384  13.785  67.608  1.00  0.00     0.000 HD 
ENDBRANCH  19  20
ENDBRANCH   2  19
TORSDOF 2
ENDMDL
MODEL       75
REMARK 921   NORMALIZED FREE ENERGY PREDICTED BY IDOCK:   -3.50 KCAL/MOL
REMARK 922        TOTAL FREE ENERGY PREDICTED BY IDOCK:   -4.41 KCAL/MOL
REMARK 923 INTER-LIGAND FREE ENERGY PREDICTED BY IDOCK:   -4.05 KCAL/MOL
REMARK 924 INTRA-LIGAND FREE ENERGY PREDICTED BY IDOCK:   -0.36 KCAL/MOL
REMARK 927      BINDING AFFINITY PREDICTED BY RF-SCORE:    0.00 PKD
ROOT
HETATM    1  C   UNL     1      -9.415  10.828  68.979  1.00  0.00    -0.166 C  
HETATM    2  N   UNL     1      -9.714   9.471  69.568  1.00  0.00    -0.179 N  
HETATM    3  C   UNL     2     -12.530   7.067  70.857  1.00  0.00    -0.272 C  
HETATM    4  C   UNL     1     -10.581   8.791  68.527  1.00  0.00    -0.129 C  
HETATM    5  C   UNL     1     -10.425   9.710  70.898  1.00  0.00    -0.289 C  
HETATM    6  N   UNL     2     -11.350   6.245  71.081  1.00  0.00    -0.305 N  
HETATM    7  C   UNL     2      -9.433   3.602  69.410  1.00  0.00    -0.179 C  
HETATM    8  O   UNL     2     -10.750   5.864  68.882  1.00  0.00    -0.263 OA 
HETATM    9  C   UNL     2     -10.781   6.196  72.327  1.00  0.00    -0.229 A  
HETATM   10  N   UNL     2     -10.771   7.161  73.267  1.00  0.00    -0.343 NA 
HETATM   11  C   UNL     2      -9.914   5.200  72.684  1.00  0.00    -0.165 A  
HETATM   12  C   UNL     2     -10.708   5.533  70.071  1.00  0.00    -0.286 C  
HETATM   13  N   UNL     2      -9.374   5.549  73.881  1.00  0.00    -0.132 NA 
HETATM   14  C   UNL     2      -9.649   4.087  71.810  1.00  0.00    -0.155 C  
HETATM   15  N   UNL     2      -9.957   4.422  70.478  1.00  0.00    -0.213 N  
HETATM   16  H   UNL     2      -8.681   5.021  74.411  1.00  0.00     0.000 HD 
HETATM   17  C   UNL     2      -9.930   6.731  74.236  1.00  0.00    -0.323 A  
HETATM   18  O   UNL     2      -9.187   2.975  72.071  1.00  0.00    -0.094 OA 
ENDROOT
BRANCH   2  19
HETATM   19  C   UNL     1      -8.459   8.645  69.969  1.00  0.00    -0.130 C  
BRANCH  19  20
HETATM   20  C   UNL     1      -7.779   7.856  68.844  1.00  0.00    -0.105 C  
HETATM   21  O   UNL     1      -7.578   6.492  69.203  1.00  0.00    -0.096 OA 
HETATM   22  H   UNL     1      -7.157   6.003  68.506  1.00  0.00     0.000 HD 
ENDBRANCH  19  20
ENDBRANCH   2  19
TORSDOF 2
ENDMDL
MODEL       76
REMARK 921   NORMALIZED FREE ENERGY PREDICTED BY IDOCK:   -3.46 KCAL/MOL
REMARK 922        TOTAL FREE ENERGY PREDICTED BY IDOCK:   -4.38 KCAL/MOL
REMARK 923 INTER-LIGAND FREE ENERGY PREDICTED BY IDOCK:   -4.21 KCAL/MOL
REMARK 924 INTRA-LIGAND FREE ENERGY PREDICTED BY IDOCK:   -0.17 KCAL/MOL
REMARK 927      BINDING AFFINITY PREDICTED BY RF-SCORE:    0.00 PKD
ROOT
HETATM    1  C   UNL     1      -8.683   4.867  69.619  1.00  0.00    -0.086 C  
HETATM    2  N   UNL     1      -8.784   6.168  68.861  1.00  0.00    -0.123 N  
HETATM    3  C   UNL     2      -7.325   9.785  68.460  1.00  0.00    -0.074 C  
HETATM    4  C   UNL     1      -7.443   6.306  68.169  1.00  0.00    -0.090 C  
HETATM    5  C   UNL     1      -9.059   7.262  69.891  1.00  0.00    -0.141 C  
HETATM    6  N   UNL     2      -8.371   9.801  67.447  1.00  0.00    -0.114 N  
HETATM    7  C   UNL     2      -8.774   9.233  63.846  1.00  0.00    -0.168 C  
HETATM    8  O   UNL     2      -7.465   8.273  65.967  1.00  0.00    -0.075 OA 
HETATM    9  C   UNL     2      -9.589  10.359  67.735  1.00  0.00    -0.152 A  
HETATM   10  N   UNL     2     -10.203  10.425  68.932  1.00  0.00    -0.193 NA 
HETATM   11  C   UNL     2     -10.467  10.717  66.750  1.00  0.00    -0.251 A  
HETATM   12  C   UNL     2      -8.230   9.219  66.190  1.00  0.00    -0.111 C  
HETATM   13  N   UNL     2     -11.642  11.033  67.357  1.00  0.00    -0.521 NA 
HETATM   14  C   UNL     2     -10.107  10.640  65.358  1.00  0.00    -0.291 C  
HETATM   15  N   UNL     2      -9.046   9.734  65.174  1.00  0.00    -0.205 N  
HETATM   16  H   UNL     2     -12.502  11.329  66.895  1.00  0.00     0.000 HD 
HETATM   17  C   UNL     2     -11.454  10.879  68.688  1.00  0.00    -0.311 A  
HETATM   18  O   UNL     2     -10.606  11.205  64.384  1.00  0.00    -0.335 OA 
ENDROOT
BRANCH   2  19
HETATM   19  C   UNL     1      -9.998   6.264  67.894  1.00  0.00    -0.133 C  
BRANCH  19  20
HETATM   20  C   UNL     1      -9.829   5.594  66.526  1.00  0.00    -0.168 C  
HETATM   21  O   UNL     1     -11.064   5.518  65.819  1.00  0.00    -0.667 OA 
HETATM   22  H   UNL     1     -10.960   5.102  64.971  1.00  0.00     0.000 HD 
ENDBRANCH  19  20
ENDBRANCH   2  19
TORSDOF 2
ENDMDL
MODEL       77
REMARK 921   NORMALIZED FREE ENERGY PREDICTED BY IDOCK:   -3.46 KCAL/MOL
REMARK 922        TOTAL FREE ENERGY PREDICTED BY IDOCK:   -4.37 KCAL/MOL
REMARK 923 INTER-LIGAND FREE ENERGY PREDICTED BY IDOCK:   -3.98 KCAL/MOL
REMARK 924 INTRA-LIGAND FREE ENERGY PREDICTED BY IDOCK:   -0.39 KCAL/MOL
REMARK 927      BINDING AFFINITY PREDICTED BY RF-SCORE:    0.00 PKD
ROOT
HETATM    1  C   UNL     1      -9.050   5.752  65.841  1.00  0.00    -0.137 C  
HETATM    2  N   UNL     1      -9.274   6.322  67.220  1.00  0.00    -0.118 N  
HETATM    3  C   UNL     2     -10.751   9.323  69.266  1.00  0.00    -0.196 C  
HETATM    4  C   UNL     1     -10.782   6.398  67.357  1.00  0.00    -0.336 C  
HETATM    5  C   UNL     1      -8.585   7.685  67.255  1.00  0.00    -0.121 C  
HETATM    6  N   UNL     2     -10.231   8.491  70.343  1.00  0.00    -0.191 N  
HETATM    7  C   UNL     2     -11.389   5.921  72.690  1.00  0.00    -0.292 C  
HETATM    8  O   UNL     2     -11.683   6.703  70.153  1.00  0.00    -0.394 OA 
HETATM    9  C   UNL     2      -9.003   8.768  70.884  1.00  0.00    -0.201 A  
HETATM   10  N   UNL     2      -7.941   9.328  70.274  1.00  0.00    -0.127 NA 
HETATM   11  C   UNL     2      -8.622   8.265  72.097  1.00  0.00    -0.188 A  
HETATM   12  C   UNL     2     -10.892   7.367  70.831  1.00  0.00    -0.240 C  
HETATM   13  N   UNL     2      -7.300   8.542  72.248  1.00  0.00    -0.233 NA 
HETATM   14  C   UNL     2      -9.536   7.520  72.922  1.00  0.00    -0.195 C  
HETATM   15  N   UNL     2     -10.580   6.987  72.143  1.00  0.00    -0.210 N  
HETATM   16  H   UNL     2      -6.713   8.288  73.044  1.00  0.00     0.000 HD 
HETATM   17  C   UNL     2      -6.908   9.217  71.141  1.00  0.00    -0.086 A  
HETATM   18  O   UNL     2      -9.493   7.286  74.131  1.00  0.00    -0.253 OA 
ENDROOT
BRANCH   2  19
HETATM   19  C   UNL     1      -8.582   5.535  68.369  1.00  0.00    -0.099 C  
BRANCH  19  20
HETATM   20  C   UNL     1      -9.246   4.216  68.782  1.00  0.00    -0.146 C  
HETATM   21  O   UNL     1      -9.855   4.312  70.066  1.00  0.00    -0.215 OA 
HETATM   22  H   UNL     1     -10.266   3.495  70.323  1.00  0.00     0.000 HD 
ENDBRANCH  19  20
ENDBRANCH   2  19
TORSDOF 2
ENDMDL
MODEL       78
REMARK 921   NORMALIZED FREE ENERGY PREDICTED BY IDOCK:   -3.45 KCAL/MOL
REMARK 922        TOTAL FREE ENERGY PREDICTED BY IDOCK:   -4.36 KCAL/MOL
REMARK 923 INTER-LIGAND FREE ENERGY PREDICTED BY IDOCK:   -4.23 KCAL/MOL
REMARK 924 INTRA-LIGAND FREE ENERGY PREDICTED BY IDOCK:   -0.13 KCAL/MOL
REMARK 927      BINDING AFFINITY PREDICTED BY RF-SCORE:    0.00 PKD
ROOT
HETATM    1  C   UNL     1      -9.875   5.718  74.467  1.00  0.00    -0.248 C  
HETATM    2  N   UNL     1     -10.005   6.545  73.211  1.00  0.00    -0.172 N  
HETATM    3  C   UNL     2     -11.178   6.559  69.470  1.00  0.00    -0.372 C  
HETATM    4  C   UNL     1     -11.497   6.600  72.948  1.00  0.00    -0.065 C  
HETATM    5  C   UNL     1      -9.216   5.822  72.121  1.00  0.00    -0.146 C  
HETATM    6  N   UNL     2     -10.682   7.922  69.603  1.00  0.00    -0.240 N  
HETATM    7  C   UNL     2     -11.941  11.289  70.331  1.00  0.00    -0.380 C  
HETATM    8  O   UNL     2     -12.269   8.743  71.069  1.00  0.00    -0.277 OA 
HETATM    9  C   UNL     2      -9.418   8.231  69.175  1.00  0.00    -0.155 A  
HETATM   10  N   UNL     2      -8.340   7.423  69.137  1.00  0.00    -0.131 NA 
HETATM   11  C   UNL     2      -9.030   9.522  68.948  1.00  0.00    -0.141 A  
HETATM   12  C   UNL     2     -11.407   8.945  70.208  1.00  0.00    -0.159 C  
HETATM   13  N   UNL     2      -7.687   9.507  68.745  1.00  0.00    -0.079 NA 
HETATM   14  C   UNL     2      -9.967  10.613  69.032  1.00  0.00    -0.213 C  
HETATM   15  N   UNL     2     -11.075  10.251  69.820  1.00  0.00    -0.268 N  
HETATM   16  H   UNL     2      -7.092  10.316  68.561  1.00  0.00     0.000 HD 
HETATM   17  C   UNL     2      -7.287   8.217  68.833  1.00  0.00    -0.090 A  
HETATM   18  O   UNL     2      -9.897  11.748  68.557  1.00  0.00    -0.203 OA 
ENDROOT
BRANCH   2  19
HETATM   19  C   UNL     1      -9.331   7.944  73.281  1.00  0.00    -0.286 C  
BRANCH  19  20
HETATM   20  C   UNL     1      -8.158   8.083  74.258  1.00  0.00    -0.258 C  
HETATM   21  O   UNL     1      -7.080   8.821  73.687  1.00  0.00    -0.351 OA 
HETATM   22  H   UNL     1      -6.353   8.906  74.292  1.00  0.00     0.000 HD 
ENDBRANCH  19  20
ENDBRANCH   2  19
TORSDOF 2
ENDMDL
MODEL       79
REMARK 921   NORMALIZED FREE ENERGY PREDICTED BY IDOCK:   -3.43 KCAL/MOL
REMARK 922        TOTAL FREE ENERGY PREDICTED BY IDOCK:   -4.34 KCAL/MOL
REMARK 923 INTER-LIGAND FREE ENERGY PREDICTED BY IDOCK:   -3.92 KCAL/MOL
REMARK 924 INTRA-LIGAND FREE ENERGY PREDICTED BY IDOCK:   -0.42 KCAL/MOL
REMARK 927      BINDING AFFINITY PREDICTED BY RF-SCORE:    0.00 PKD
ROOT
HETATM    1  C   UNL     1      -5.786  10.573  67.259  1.00  0.00    -0.049 C  
HETATM    2  N   UNL     1      -6.791   9.666  67.927  1.00  0.00    -0.073 N  
HETATM    3  C   UNL     2      -7.329   6.226  69.729  1.00  0.00    -0.079 C  
HETATM    4  C   UNL     1      -6.296   9.542  69.355  1.00  0.00    -0.043 C  
HETATM    5  C   UNL     1      -6.780   8.348  67.156  1.00  0.00    -0.063 C  
HETATM    6  N   UNL     2      -8.684   6.759  69.755  1.00  0.00    -0.140 N  
HETATM    7  C   UNL     2     -10.902   8.629  71.999  1.00  0.00    -0.360 C  
HETATM    8  O   UNL     2      -8.351   8.521  71.214  1.00  0.00    -0.127 OA 
HETATM    9  C   UNL     2      -9.588   6.367  68.803  1.00  0.00    -0.125 A  
HETATM   10  N   UNL     2      -9.339   5.993  67.533  1.00  0.00    -0.114 NA 
HETATM   11  C   UNL     2     -10.933   6.546  68.972  1.00  0.00    -0.321 A  
HETATM   12  C   UNL     2      -9.114   7.713  70.673  1.00  0.00    -0.158 C  
HETATM   13  N   UNL     2     -11.528   6.254  67.785  1.00  0.00    -0.537 NA 
HETATM   14  C   UNL     2     -11.475   7.045  70.209  1.00  0.00    -0.287 C  
HETATM   15  N   UNL     2     -10.492   7.748  70.929  1.00  0.00    -0.205 N  
HETATM   16  H   UNL     2     -12.526   6.301  67.579  1.00  0.00     0.000 HD 
HETATM   17  C   UNL     2     -10.545   5.890  66.929  1.00  0.00    -0.315 A  
HETATM   18  O   UNL     2     -12.620   6.962  70.657  1.00  0.00    -0.278 OA 
ENDROOT
BRANCH   2  19
HETATM   19  C   UNL     1      -8.268  10.140  67.818  1.00  0.00    -0.110 C  
BRANCH  19  20
HETATM   20  C   UNL     1      -8.662  11.337  68.691  1.00  0.00    -0.136 C  
HETATM   21  O   UNL     1      -9.637  10.981  69.667  1.00  0.00    -0.395 OA 
HETATM   22  H   UNL     1      -9.881  11.722  70.208  1.00  0.00     0.000 HD 
ENDBRANCH  19  20
ENDBRANCH   2  19
TORSDOF 2
ENDMDL
MODEL       80
REMARK 921   NORMALIZED FREE ENERGY PREDICTED BY IDOCK:   -3.41 KCAL/MOL
REMARK 922        TOTAL FREE ENERGY PREDICTED BY IDOCK:   -4.31 KCAL/MOL
REMARK 923 INTER-LIGAND FREE ENERGY PREDICTED BY IDOCK:   -4.08 KCAL/MOL
REMARK 924 INTRA-LIGAND FREE ENERGY PREDICTED BY IDOCK:   -0.23 KCAL/MOL
REMARK 927      BINDING AFFINITY PREDICTED BY RF-SCORE:    0.00 PKD
ROOT
HETATM    1  C   UNL     1      -5.190  20.256  70.211  1.00  0.00    -0.263 C  
HETATM    2  N   UNL     1      -6.024  19.449  69.244  1.00  0.00    -0.250 N  
HETATM    3  C   UNL     2      -6.301  18.107  65.571  1.00  0.00    -0.214 C  
HETATM    4  C   UNL     1      -5.133  18.285  68.858  1.00  0.00    -0.176 C  
HETATM    5  C   UNL     1      -6.368  20.373  68.078  1.00  0.00    -0.286 C  
HETATM    6  N   UNL     2      -7.530  17.576  66.146  1.00  0.00    -0.307 N  
HETATM    7  C   UNL     2      -8.781  14.495  67.694  1.00  0.00    -0.183 C  
HETATM    8  O   UNL     2      -6.610  16.049  67.618  1.00  0.00    -0.132 OA 
HETATM    9  C   UNL     2      -8.712  18.243  65.959  1.00  0.00     0.033 A  
HETATM   10  N   UNL     2      -8.895  19.567  65.798  1.00  0.00    -0.344 NA 
HETATM   11  C   UNL     2      -9.920  17.635  66.161  1.00  0.00    -0.272 A  
HETATM   12  C   UNL     2      -7.572  16.438  66.946  1.00  0.00    -0.240 C  
HETATM   13  N   UNL     2     -10.871  18.604  66.101  1.00  0.00    -0.179 NA 
HETATM   14  C   UNL     2     -10.013  16.230  66.463  1.00  0.00    -0.277 C  
HETATM   15  N   UNL     2      -8.797  15.759  66.993  1.00  0.00    -0.201 N  
HETATM   16  H   UNL     2     -11.876  18.476  66.223  1.00  0.00     0.000 HD 
HETATM   17  C   UNL     2     -10.232  19.770  65.848  1.00  0.00    -0.459 A  
HETATM   18  O   UNL     2     -10.971  15.463  66.350  1.00  0.00    -0.322 OA 
ENDROOT
BRANCH   2  19
HETATM   19  C   UNL     1      -7.414  19.016  69.789  1.00  0.00     0.357 C  
BRANCH  19  20
HETATM   20  C   UNL     1      -8.632  19.708  69.165  1.00  0.00    -0.017 C  
HETATM   21  O   UNL     1      -9.720  18.804  68.991  1.00  0.00    -0.350 OA 
HETATM   22  H   UNL     1     -10.474  19.232  68.604  1.00  0.00     0.000 HD 
ENDBRANCH  19  20
ENDBRANCH   2  19
TORSDOF 2
ENDMDL
MODEL       81
REMARK 921   NORMALIZED FREE ENERGY PREDICTED BY IDOCK:   -3.40 KCAL/MOL
REMARK 922        TOTAL FREE ENERGY PREDICTED BY IDOCK:   -4.31 KCAL/MOL
REMARK 923 INTER-LIGAND FREE ENERGY PREDICTED BY IDOCK:   -4.17 KCAL/MOL
REMARK 924 INTRA-LIGAND FREE ENERGY PREDICTED BY IDOCK:   -0.14 KCAL/MOL
REMARK 927      BINDING AFFINITY PREDICTED BY RF-SCORE:    0.00 PKD
ROOT
HETATM    1  C   UNL     1     -12.312   9.967  71.822  1.00  0.00    -0.345 C  
HETATM    2  N   UNL     1     -11.424   8.992  71.087  1.00  0.00    -0.287 N  
HETATM    3  C   UNL     2      -9.355   5.674  71.371  1.00  0.00    -0.147 C  
HETATM    4  C   UNL     1     -12.197   7.688  71.109  1.00  0.00    -0.285 C  
HETATM    5  C   UNL     1     -10.102   8.935  71.849  1.00  0.00    -0.322 C  
HETATM    6  N   UNL     2      -9.098   6.035  69.984  1.00  0.00    -0.145 N  
HETATM    7  C   UNL     2     -10.387   5.306  66.628  1.00  0.00    -0.283 C  
HETATM    8  O   UNL     2     -11.224   5.725  69.130  1.00  0.00    -0.270 OA 
HETATM    9  C   UNL     2      -7.942   6.691  69.654  1.00  0.00    -0.124 A  
HETATM   10  N   UNL     2      -7.230   7.542  70.418  1.00  0.00    -0.063 NA 
HETATM   11  C   UNL     2      -7.485   6.742  68.366  1.00  0.00    -0.095 A  
HETATM   12  C   UNL     2     -10.004   5.803  68.952  1.00  0.00    -0.161 C  
HETATM   13  N   UNL     2      -6.455   7.628  68.341  1.00  0.00    -0.051 NA 
HETATM   14  C   UNL     2      -8.132   6.006  67.311  1.00  0.00    -0.106 C  
HETATM   15  N   UNL     2      -9.461   5.706  67.663  1.00  0.00    -0.113 N  
HETATM   16  H   UNL     2      -5.907   7.898  67.524  1.00  0.00     0.000 HD 
HETATM   17  C   UNL     2      -6.293   8.083  69.606  1.00  0.00    -0.033 A  
HETATM   18  O   UNL     2      -7.699   5.667  66.208  1.00  0.00    -0.096 OA 
ENDROOT
BRANCH   2  19
HETATM   19  C   UNL     1     -11.003   9.444  69.660  1.00  0.00    -0.197 C  
BRANCH  19  20
HETATM   20  C   UNL     1     -11.501  10.823  69.212  1.00  0.00    -0.298 C  
HETATM   21  O   UNL     1     -12.005  10.795  67.879  1.00  0.00    -0.753 OA 
HETATM   22  H   UNL     1     -12.313  11.649  67.601  1.00  0.00     0.000 HD 
ENDBRANCH  19  20
ENDBRANCH   2  19
TORSDOF 2
ENDMDL
MODEL       82
REMARK 921   NORMALIZED FREE ENERGY PREDICTED BY IDOCK:   -3.36 KCAL/MOL
REMARK 922        TOTAL FREE ENERGY PREDICTED BY IDOCK:   -4.26 KCAL/MOL
REMARK 923 INTER-LIGAND FREE ENERGY PREDICTED BY IDOCK:   -4.04 KCAL/MOL
REMARK 924 INTRA-LIGAND FREE ENERGY PREDICTED BY IDOCK:   -0.23 KCAL/MOL
REMARK 927      BINDING AFFINITY PREDICTED BY RF-SCORE:    0.00 PKD
ROOT
HETATM    1  C   UNL     1     -13.863  13.644  72.156  1.00  0.00    -0.548 C  
HETATM    2  N   UNL     1     -12.839  14.111  71.150  1.00  0.00    -0.343 N  
HETATM    3  C   UNL     2     -11.847  14.184  67.358  1.00  0.00    -0.413 C  
HETATM    4  C   UNL     1     -13.602  15.061  70.248  1.00  0.00     0.407 C  
HETATM    5  C   UNL     1     -12.321  12.866  70.433  1.00  0.00    -0.258 C  
HETATM    6  N   UNL     2     -10.726  14.905  67.944  1.00  0.00    -0.260 N  
HETATM    7  C   UNL     2      -9.669  18.355  68.603  1.00  0.00    -0.361 C  
HETATM    8  O   UNL     2     -11.844  16.806  68.640  1.00  0.00     0.136 OA 
HETATM    9  C   UNL     2      -9.554  14.246  68.206  1.00  0.00    -0.221 A  
HETATM   10  N   UNL     2      -9.392  12.947  68.523  1.00  0.00    -0.133 NA 
HETATM   11  C   UNL     2      -8.382  14.918  68.417  1.00  0.00    -0.153 A  
HETATM   12  C   UNL     2     -10.790  16.244  68.322  1.00  0.00    -0.340 C  
HETATM   13  N   UNL     2      -7.472  14.008  68.853  1.00  0.00    -0.175 NA 
HETATM   14  C   UNL     2      -8.296  16.346  68.255  1.00  0.00    -0.189 C  
HETATM   15  N   UNL     2      -9.570  16.932  68.369  1.00  0.00    -0.246 N  
HETATM   16  H   UNL     2      -6.502  14.195  69.109  1.00  0.00     0.000 HD 
HETATM   17  C   UNL     2      -8.095  12.807  68.882  1.00  0.00     0.216 A  
HETATM   18  O   UNL     2      -7.307  17.059  68.077  1.00  0.00    -0.171 OA 
ENDROOT
BRANCH   2  19
HETATM   19  C   UNL     1     -11.557  14.735  71.770  1.00  0.00    -0.172 C  
BRANCH  19  20
HETATM   20  C   UNL     1     -11.591  16.248  72.018  1.00  0.00    -0.338 C  
HETATM   21  O   UNL     1     -12.017  16.556  73.342  1.00  0.00    -0.476 OA 
HETATM   22  H   UNL     1     -12.039  17.493  73.496  1.00  0.00     0.000 HD 
ENDBRANCH  19  20
ENDBRANCH   2  19
TORSDOF 2
ENDMDL
MODEL       83
REMARK 921   NORMALIZED FREE ENERGY PREDICTED BY IDOCK:   -3.36 KCAL/MOL
REMARK 922        TOTAL FREE ENERGY PREDICTED BY IDOCK:   -4.26 KCAL/MOL
REMARK 923 INTER-LIGAND FREE ENERGY PREDICTED BY IDOCK:   -4.09 KCAL/MOL
REMARK 924 INTRA-LIGAND FREE ENERGY PREDICTED BY IDOCK:   -0.17 KCAL/MOL
REMARK 927      BINDING AFFINITY PREDICTED BY RF-SCORE:    0.00 PKD
ROOT
HETATM    1  C   UNL     1     -13.429   7.122  71.487  1.00  0.00    -0.332 C  
HETATM    2  N   UNL     1     -11.932   7.296  71.397  1.00  0.00    -0.303 N  
HETATM    3  C   UNL     2      -8.486   5.448  71.107  1.00  0.00    -0.125 C  
HETATM    4  C   UNL     1     -11.566   6.712  70.047  1.00  0.00    -0.362 C  
HETATM    5  C   UNL     1     -11.326   6.540  72.578  1.00  0.00    -0.262 C  
HETATM    6  N   UNL     2      -8.047   6.836  71.143  1.00  0.00    -0.110 N  
HETATM    7  C   UNL     2      -7.141   9.537  68.833  1.00  0.00    -0.067 C  
HETATM    8  O   UNL     2      -8.890   7.537  69.109  1.00  0.00    -0.136 OA 
HETATM    9  C   UNL     2      -7.618   7.383  72.324  1.00  0.00    -0.088 A  
HETATM   10  N   UNL     2      -8.014   7.065  73.572  1.00  0.00    -0.105 NA 
HETATM   11  C   UNL     2      -6.880   8.534  72.358  1.00  0.00    -0.067 A  
HETATM   12  C   UNL     2      -8.091   7.684  70.040  1.00  0.00    -0.120 C  
HETATM   13  N   UNL     2      -6.800   8.920  73.659  1.00  0.00    -0.350 NA 
HETATM   14  C   UNL     2      -6.412   9.161  71.150  1.00  0.00    -0.084 C  
HETATM   15  N   UNL     2      -7.197   8.763  70.052  1.00  0.00    -0.050 N  
HETATM   16  H   UNL     2      -6.324   9.749  74.017  1.00  0.00     0.000 HD 
HETATM   17  C   UNL     2      -7.470   7.997  74.388  1.00  0.00    -0.193 A  
HETATM   18  O   UNL     2      -5.496   9.970  70.987  1.00  0.00    -0.067 OA 
ENDROOT
BRANCH   2  19
HETATM   19  C   UNL     1     -11.433   8.754  71.602  1.00  0.00    -0.316 C  
BRANCH  19  20
HETATM   20  C   UNL     1     -12.499   9.853  71.516  1.00  0.00    -0.411 C  
HETATM   21  O   UNL     1     -12.706  10.284  70.174  1.00  0.00    -0.542 OA 
HETATM   22  H   UNL     1     -13.365  10.965  70.121  1.00  0.00     0.000 HD 
ENDBRANCH  19  20
ENDBRANCH   2  19
TORSDOF 2
ENDMDL
MODEL       84
REMARK 921   NORMALIZED FREE ENERGY PREDICTED BY IDOCK:   -3.34 KCAL/MOL
REMARK 922        TOTAL FREE ENERGY PREDICTED BY IDOCK:   -4.24 KCAL/MOL
REMARK 923 INTER-LIGAND FREE ENERGY PREDICTED BY IDOCK:   -4.12 KCAL/MOL
REMARK 924 INTRA-LIGAND FREE ENERGY PREDICTED BY IDOCK:   -0.12 KCAL/MOL
REMARK 927      BINDING AFFINITY PREDICTED BY RF-SCORE:    0.00 PKD
ROOT
HETATM    1  C   UNL     1     -13.350  14.786  72.596  1.00  0.00    -0.464 C  
HETATM    2  N   UNL     1     -12.475  14.723  71.369  1.00  0.00    -0.315 N  
HETATM    3  C   UNL     2     -10.796  16.802  68.499  1.00  0.00    -0.345 C  
HETATM    4  C   UNL     1     -11.260  15.555  71.729  1.00  0.00    -0.297 C  
HETATM    5  C   UNL     1     -13.291  15.298  70.212  1.00  0.00     0.087 C  
HETATM    6  N   UNL     2     -10.350  15.459  68.156  1.00  0.00    -0.236 N  
HETATM    7  C   UNL     2      -7.459  13.262  68.675  1.00  0.00    -0.099 C  
HETATM    8  O   UNL     2      -8.950  15.072  69.954  1.00  0.00    -0.007 OA 
HETATM    9  C   UNL     2     -11.022  14.742  67.201  1.00  0.00    -0.320 A  
HETATM   10  N   UNL     2     -12.329  14.814  66.884  1.00  0.00     0.005 NA 
HETATM   11  C   UNL     2     -10.463  13.651  66.595  1.00  0.00    -0.272 A  
HETATM   12  C   UNL     2      -9.294  14.815  68.796  1.00  0.00    -0.198 C  
HETATM   13  N   UNL     2     -11.443  13.050  65.870  1.00  0.00    -0.323 NA 
HETATM   14  C   UNL     2      -9.096  13.273  66.841  1.00  0.00    -0.232 C  
HETATM   15  N   UNL     2      -8.650  13.807  68.065  1.00  0.00    -0.167 N  
HETATM   16  H   UNL     2     -11.350  12.202  65.310  1.00  0.00     0.000 HD 
HETATM   17  C   UNL     2     -12.566  13.789  66.033  1.00  0.00    -0.408 A  
HETATM   18  O   UNL     2      -8.343  12.563  66.172  1.00  0.00     0.276 OA 
ENDROOT
BRANCH   2  19
HETATM   19  C   UNL     1     -12.127  13.285  70.891  1.00  0.00    -0.154 C  
BRANCH  19  20
HETATM   20  C   UNL     1     -12.973  12.152  71.481  1.00  0.00    -0.295 C  
HETATM   21  O   UNL     1     -12.545  10.875  71.016  1.00  0.00    -0.354 OA 
HETATM   22  H   UNL     1     -13.069  10.172  71.381  1.00  0.00     0.000 HD 
ENDBRANCH  19  20
ENDBRANCH   2  19
TORSDOF 2
ENDMDL
MODEL       85
REMARK 921   NORMALIZED FREE ENERGY PREDICTED BY IDOCK:   -3.34 KCAL/MOL
REMARK 922        TOTAL FREE ENERGY PREDICTED BY IDOCK:   -4.24 KCAL/MOL
REMARK 923 INTER-LIGAND FREE ENERGY PREDICTED BY IDOCK:   -3.99 KCAL/MOL
REMARK 924 INTRA-LIGAND FREE ENERGY PREDICTED BY IDOCK:   -0.24 KCAL/MOL
REMARK 927      BINDING AFFINITY PREDICTED BY RF-SCORE:    0.00 PKD
ROOT
HETATM    1  C   UNL     1     -10.152  19.478  66.939  1.00  0.00    -0.401 C  
HETATM    2  N   UNL     1      -9.805  18.031  67.192  1.00  0.00    -0.304 N  
HETATM    3  C   UNL     2      -9.913  15.097  69.791  1.00  0.00    -0.135 C  
HETATM    4  C   UNL     1     -11.143  17.358  67.428  1.00  0.00     0.093 C  
HETATM    5  C   UNL     1      -8.879  18.002  68.406  1.00  0.00    -0.292 C  
HETATM    6  N   UNL     2      -9.258  14.440  68.668  1.00  0.00    -0.197 N  
HETATM    7  C   UNL     2     -10.107  12.330  65.790  1.00  0.00    -0.252 C  
HETATM    8  O   UNL     2     -11.027  14.417  67.180  1.00  0.00    -0.291 OA 
HETATM    9  C   UNL     2      -7.892  14.329  68.646  1.00  0.00    -0.140 A  
HETATM   10  N   UNL     2      -6.989  15.166  69.192  1.00  0.00    -0.134 NA 
HETATM   11  C   UNL     2      -7.256  13.439  67.826  1.00  0.00    -0.154 A  
HETATM   12  C   UNL     2      -9.943  13.957  67.557  1.00  0.00    -0.240 C  
HETATM   13  N   UNL     2      -5.927  13.720  67.885  1.00  0.00    -0.145 NA 
HETATM   14  C   UNL     2      -7.992  12.489  67.033  1.00  0.00    -0.085 C  
HETATM   15  N   UNL     2      -9.314  12.930  66.840  1.00  0.00    -0.234 N  
HETATM   16  H   UNL     2      -5.183  13.242  67.377  1.00  0.00     0.000 HD 
HETATM   17  C   UNL     2      -5.779  14.755  68.745  1.00  0.00    -0.086 A  
HETATM   18  O   UNL     2      -7.615  11.436  66.517  1.00  0.00    -0.142 OA 
ENDROOT
BRANCH   2  19
HETATM   19  C   UNL     1      -8.959  17.360  66.072  1.00  0.00    -0.051 C  
BRANCH  19  20
HETATM   20  C   UNL     1      -7.445  17.593  66.137  1.00  0.00    -0.299 C  
HETATM   21  O   UNL     1      -7.052  18.728  65.370  1.00  0.00    -0.505 OA 
HETATM   22  H   UNL     1      -6.114  18.872  65.410  1.00  0.00     0.000 HD 
ENDBRANCH  19  20
ENDBRANCH   2  19
TORSDOF 2
ENDMDL
MODEL       86
REMARK 921   NORMALIZED FREE ENERGY PREDICTED BY IDOCK:   -3.31 KCAL/MOL
REMARK 922        TOTAL FREE ENERGY PREDICTED BY IDOCK:   -4.21 KCAL/MOL
REMARK 923 INTER-LIGAND FREE ENERGY PREDICTED BY IDOCK:   -3.83 KCAL/MOL
REMARK 924 INTRA-LIGAND FREE ENERGY PREDICTED BY IDOCK:   -0.37 KCAL/MOL
REMARK 927      BINDING AFFINITY PREDICTED BY RF-SCORE:    0.00 PKD
ROOT
HETATM    1  C   UNL     1     -12.234  10.162  71.571  1.00  0.00    -0.380 C  
HETATM    2  N   UNL     1     -11.448   8.973  71.072  1.00  0.00    -0.280 N  
HETATM    3  C   UNL     2      -7.924   7.692  69.927  1.00  0.00    -0.115 C  
HETATM    4  C   UNL     1     -10.412   8.727  72.150  1.00  0.00    -0.314 C  
HETATM    5  C   UNL     1     -10.849   9.372  69.724  1.00  0.00    -0.232 C  
HETATM    6  N   UNL     2      -8.718   6.482  69.764  1.00  0.00    -0.141 N  
HETATM    7  C   UNL     2      -9.565   3.432  71.617  1.00  0.00    -0.159 C  
HETATM    8  O   UNL     2      -9.178   6.048  71.988  1.00  0.00    -0.147 OA 
HETATM    9  C   UNL     2      -9.205   6.149  68.528  1.00  0.00    -0.115 A  
HETATM   10  N   UNL     2      -9.550   6.981  67.526  1.00  0.00    -0.128 NA 
HETATM   11  C   UNL     2      -9.641   4.885  68.243  1.00  0.00    -0.145 A  
HETATM   12  C   UNL     2      -9.073   5.650  70.823  1.00  0.00    -0.147 C  
HETATM   13  N   UNL     2     -10.249   4.935  67.028  1.00  0.00    -0.204 NA 
HETATM   14  C   UNL     2      -9.497   3.809  69.189  1.00  0.00    -0.172 C  
HETATM   15  N   UNL     2      -9.358   4.317  70.494  1.00  0.00    -0.130 N  
HETATM   16  H   UNL     2     -10.691   4.156  66.538  1.00  0.00     0.000 HD 
HETATM   17  C   UNL     2     -10.157   6.213  66.592  1.00  0.00    -0.162 A  
HETATM   18  O   UNL     2      -9.515   2.591  69.005  1.00  0.00    -0.150 OA 
ENDROOT
BRANCH   2  19
HETATM   19  C   UNL     1     -12.306   7.722  70.733  1.00  0.00    -0.007 C  
BRANCH  19  20
HETATM   20  C   UNL     1     -13.029   7.058  71.911  1.00  0.00    -0.240 C  
HETATM   21  O   UNL     1     -12.306   5.935  72.409  1.00  0.00    -0.466 OA 
HETATM   22  H   UNL     1     -12.753   5.523  73.138  1.00  0.00     0.000 HD 
ENDBRANCH  19  20
ENDBRANCH   2  19
TORSDOF 2
ENDMDL
MODEL       87
REMARK 921   NORMALIZED FREE ENERGY PREDICTED BY IDOCK:   -3.30 KCAL/MOL
REMARK 922        TOTAL FREE ENERGY PREDICTED BY IDOCK:   -4.19 KCAL/MOL
REMARK 923 INTER-LIGAND FREE ENERGY PREDICTED BY IDOCK:   -4.07 KCAL/MOL
REMARK 924 INTRA-LIGAND FREE ENERGY PREDICTED BY IDOCK:   -0.13 KCAL/MOL
REMARK 927      BINDING AFFINITY PREDICTED BY RF-SCORE:    0.00 PKD
ROOT
HETATM    1  C   UNL     1      -9.413   6.146  68.088  1.00  0.00    -0.113 C  
HETATM    2  N   UNL     1      -9.277   7.595  67.686  1.00  0.00    -0.135 N  
HETATM    3  C   UNL     2      -7.430  10.125  65.329  1.00  0.00    -0.145 C  
HETATM    4  C   UNL     1      -9.695   7.622  66.229  1.00  0.00    -0.056 C  
HETATM    5  C   UNL     1      -7.818   7.984  67.914  1.00  0.00    -0.126 C  
HETATM    6  N   UNL     2      -8.294  11.031  66.073  1.00  0.00    -0.166 N  
HETATM    7  C   UNL     2     -11.568  12.652  65.757  1.00  0.00    -0.387 C  
HETATM    8  O   UNL     2     -10.340  10.334  65.255  1.00  0.00    -0.278 OA 
HETATM    9  C   UNL     2      -7.794  11.717  67.149  1.00  0.00    -0.163 A  
HETATM   10  N   UNL     2      -6.813  11.333  67.988  1.00  0.00    -0.066 NA 
HETATM   11  C   UNL     2      -8.428  12.816  67.658  1.00  0.00    -0.178 A  
HETATM   12  C   UNL     2      -9.646  11.204  65.792  1.00  0.00    -0.221 C  
HETATM   13  N   UNL     2      -7.809  13.130  68.827  1.00  0.00    -0.315 NA 
HETATM   14  C   UNL     2      -9.586  13.380  67.016  1.00  0.00    -0.244 C  
HETATM   15  N   UNL     2     -10.211  12.421  66.197  1.00  0.00    -0.237 N  
HETATM   16  H   UNL     2      -8.052  13.896  69.456  1.00  0.00     0.000 HD 
HETATM   17  C   UNL     2      -6.808  12.235  68.997  1.00  0.00    -0.094 A  
HETATM   18  O   UNL     2     -10.073  14.508  67.119  1.00  0.00    -0.248 OA 
ENDROOT
BRANCH   2  19
HETATM   19  C   UNL     1     -10.065   8.594  68.580  1.00  0.00    -0.190 C  
BRANCH  19  20
HETATM   20  C   UNL     1     -10.765   7.999  69.807  1.00  0.00    -0.231 C  
HETATM   21  O   UNL     1     -11.877   8.791  70.217  1.00  0.00    -0.476 OA 
HETATM   22  H   UNL     1     -12.311   8.423  70.977  1.00  0.00     0.000 HD 
ENDBRANCH  19  20
ENDBRANCH   2  19
TORSDOF 2
ENDMDL
MODEL       88
REMARK 921   NORMALIZED FREE ENERGY PREDICTED BY IDOCK:   -3.29 KCAL/MOL
REMARK 922        TOTAL FREE ENERGY PREDICTED BY IDOCK:   -4.18 KCAL/MOL
REMARK 923 INTER-LIGAND FREE ENERGY PREDICTED BY IDOCK:   -3.68 KCAL/MOL
REMARK 924 INTRA-LIGAND FREE ENERGY PREDICTED BY IDOCK:   -0.50 KCAL/MOL
REMARK 927      BINDING AFFINITY PREDICTED BY RF-SCORE:    0.00 PKD
ROOT
HETATM    1  C   UNL     1     -13.524   8.895  72.440  1.00  0.00    -0.450 C  
HETATM    2  N   UNL     1     -12.235   8.482  71.772  1.00  0.00    -0.313 N  
HETATM    3  C   UNL     2     -10.332   8.169  68.359  1.00  0.00    -0.199 C  
HETATM    4  C   UNL     1     -11.708   9.759  71.148  1.00  0.00    -0.385 C  
HETATM    5  C   UNL     1     -12.590   7.401  70.753  1.00  0.00    -0.056 C  
HETATM    6  N   UNL     2      -9.325   7.655  69.278  1.00  0.00    -0.148 N  
HETATM    7  C   UNL     2      -6.400   8.831  71.152  1.00  0.00    -0.054 C  
HETATM    8  O   UNL     2      -8.849   9.606  70.422  1.00  0.00    -0.235 OA 
HETATM    9  C   UNL     2      -9.184   6.302  69.445  1.00  0.00    -0.138 A  
HETATM   10  N   UNL     2     -10.134   5.354  69.335  1.00  0.00    -0.212 NA 
HETATM   11  C   UNL     2      -8.059   5.760  70.002  1.00  0.00    -0.108 A  
HETATM   12  C   UNL     2      -8.516   8.471  70.063  1.00  0.00    -0.125 C  
HETATM   13  N   UNL     2      -8.314   4.443  70.219  1.00  0.00    -0.072 NA 
HETATM   14  C   UNL     2      -6.916   6.573  70.329  1.00  0.00    -0.066 C  
HETATM   15  N   UNL     2      -7.296   7.920  70.477  1.00  0.00    -0.066 N  
HETATM   16  H   UNL     2      -7.678   3.762  70.636  1.00  0.00     0.000 HD 
HETATM   17  C   UNL     2      -9.572   4.206  69.779  1.00  0.00    -0.211 A  
HETATM   18  O   UNL     2      -5.743   6.243  70.513  1.00  0.00    -0.017 OA 
ENDROOT
BRANCH   2  19
HETATM   19  C   UNL     1     -11.213   7.778  72.710  1.00  0.00    -0.398 C  
BRANCH  19  20
HETATM   20  C   UNL     1     -11.208   6.246  72.676  1.00  0.00    -0.267 C  
HETATM   21  O   UNL     1      -9.886   5.720  72.765  1.00  0.00    -0.159 OA 
HETATM   22  H   UNL     1      -9.882   4.771  72.744  1.00  0.00     0.000 HD 
ENDBRANCH  19  20
ENDBRANCH   2  19
TORSDOF 2
ENDMDL
MODEL       89
REMARK 921   NORMALIZED FREE ENERGY PREDICTED BY IDOCK:   -3.27 KCAL/MOL
REMARK 922        TOTAL FREE ENERGY PREDICTED BY IDOCK:   -4.16 KCAL/MOL
REMARK 923 INTER-LIGAND FREE ENERGY PREDICTED BY IDOCK:   -3.96 KCAL/MOL
REMARK 924 INTRA-LIGAND FREE ENERGY PREDICTED BY IDOCK:   -0.20 KCAL/MOL
REMARK 927      BINDING AFFINITY PREDICTED BY RF-SCORE:    0.00 PKD
ROOT
HETATM    1  C   UNL     1      -7.620   7.074  66.061  1.00  0.00    -0.096 C  
HETATM    2  N   UNL     1      -7.955   7.376  67.501  1.00  0.00    -0.112 N  
HETATM    3  C   UNL     2      -6.752   9.144  70.787  1.00  0.00    -0.082 C  
HETATM    4  C   UNL     1      -8.055   8.888  67.556  1.00  0.00    -0.109 C  
HETATM    5  C   UNL     1      -6.821   6.804  68.350  1.00  0.00    -0.074 C  
HETATM    6  N   UNL     2      -8.020   8.582  71.231  1.00  0.00    -0.120 N  
HETATM    7  C   UNL     2     -11.529   9.575  71.616  1.00  0.00    -0.363 C  
HETATM    8  O   UNL     2      -9.454   9.875  69.962  1.00  0.00    -0.231 OA 
HETATM    9  C   UNL     2      -8.035   7.393  71.914  1.00  0.00    -0.090 A  
HETATM   10  N   UNL     2      -7.169   6.368  71.803  1.00  0.00    -0.085 NA 
HETATM   11  C   UNL     2      -9.120   6.999  72.648  1.00  0.00    -0.134 A  
HETATM   12  C   UNL     2      -9.255   9.158  70.948  1.00  0.00    -0.261 C  
HETATM   13  N   UNL     2      -8.907   5.709  73.016  1.00  0.00    -0.124 NA 
HETATM   14  C   UNL     2     -10.252   7.868  72.839  1.00  0.00    -0.330 C  
HETATM   15  N   UNL     2     -10.300   8.845  71.828  1.00  0.00    -0.338 N  
HETATM   16  H   UNL     2      -9.537   5.122  73.563  1.00  0.00     0.000 HD 
HETATM   17  C   UNL     2      -7.700   5.349  72.519  1.00  0.00    -0.102 A  
HETATM   18  O   UNL     2     -11.133   7.833  73.700  1.00  0.00    -0.197 OA 
ENDROOT
BRANCH   2  19
HETATM   19  C   UNL     1      -9.218   6.647  68.041  1.00  0.00    -0.112 C  
BRANCH  19  20
HETATM   20  C   UNL     1     -10.570   7.189  67.560  1.00  0.00    -0.278 C  
HETATM   21  O   UNL     1     -11.218   6.280  66.675  1.00  0.00    -0.724 OA 
HETATM   22  H   UNL     1     -12.055   6.615  66.377  1.00  0.00     0.000 HD 
ENDBRANCH  19  20
ENDBRANCH   2  19
TORSDOF 2
ENDMDL
MODEL       90
REMARK 921   NORMALIZED FREE ENERGY PREDICTED BY IDOCK:   -3.27 KCAL/MOL
REMARK 922        TOTAL FREE ENERGY PREDICTED BY IDOCK:   -4.16 KCAL/MOL
REMARK 923 INTER-LIGAND FREE ENERGY PREDICTED BY IDOCK:   -3.88 KCAL/MOL
REMARK 924 INTRA-LIGAND FREE ENERGY PREDICTED BY IDOCK:   -0.27 KCAL/MOL
REMARK 927      BINDING AFFINITY PREDICTED BY RF-SCORE:    0.00 PKD
ROOT
HETATM    1  C   UNL     1     -10.523  12.647  68.601  1.00  0.00    -0.205 C  
HETATM    2  N   UNL     1     -10.059  14.046  68.277  1.00  0.00    -0.240 N  
HETATM    3  C   UNL     2      -9.840  16.808  65.503  1.00  0.00     0.056 C  
HETATM    4  C   UNL     1     -11.332  14.796  67.938  1.00  0.00    -0.316 C  
HETATM    5  C   UNL     1      -9.084  13.931  67.107  1.00  0.00    -0.239 C  
HETATM    6  N   UNL     2      -9.186  17.487  66.612  1.00  0.00    -0.255 N  
HETATM    7  C   UNL     2      -9.996  19.832  69.314  1.00  0.00    -0.235 C  
HETATM    8  O   UNL     2     -11.009  17.731  68.013  1.00  0.00    -0.297 OA 
HETATM    9  C   UNL     2      -7.818  17.501  66.690  1.00  0.00    -0.250 A  
HETATM   10  N   UNL     2      -6.957  16.569  66.239  1.00  0.00    -0.064 NA 
HETATM   11  C   UNL     2      -7.152  18.394  67.483  1.00  0.00    -0.205 A  
HETATM   12  C   UNL     2      -9.880  18.088  67.659  1.00  0.00    -0.305 C  
HETATM   13  N   UNL     2      -5.847  18.016  67.504  1.00  0.00    -0.145 NA 
HETATM   14  C   UNL     2      -7.849  19.443  68.183  1.00  0.00    -0.308 C  
HETATM   15  N   UNL     2      -9.207  19.111  68.341  1.00  0.00    -0.341 N  
HETATM   16  H   UNL     2      -5.091  18.472  68.016  1.00  0.00     0.000 HD 
HETATM   17  C   UNL     2      -5.740  16.920  66.716  1.00  0.00    -0.142 A  
HETATM   18  O   UNL     2      -7.417  20.498  68.651  1.00  0.00     0.014 OA 
ENDROOT
BRANCH   2  19
HETATM   19  C   UNL     1      -9.213  14.725  69.392  1.00  0.00     0.041 C  
BRANCH  19  20
HETATM   20  C   UNL     1      -7.691  14.645  69.230  1.00  0.00    -0.091 C  
HETATM   21  O   UNL     1      -7.062  14.126  70.400  1.00  0.00    -0.356 OA 
HETATM   22  H   UNL     1      -6.119  14.076  70.300  1.00  0.00     0.000 HD 
ENDBRANCH  19  20
ENDBRANCH   2  19
TORSDOF 2
ENDMDL
MODEL       91
REMARK 921   NORMALIZED FREE ENERGY PREDICTED BY IDOCK:   -3.26 KCAL/MOL
REMARK 922        TOTAL FREE ENERGY PREDICTED BY IDOCK:   -4.15 KCAL/MOL
REMARK 923 INTER-LIGAND FREE ENERGY PREDICTED BY IDOCK:   -4.03 KCAL/MOL
REMARK 924 INTRA-LIGAND FREE ENERGY PREDICTED BY IDOCK:   -0.12 KCAL/MOL
REMARK 927      BINDING AFFINITY PREDICTED BY RF-SCORE:    0.00 PKD
ROOT
HETATM    1  C   UNL     1      -7.201   3.466  66.420  1.00  0.00    -0.063 C  
HETATM    2  N   UNL     1      -7.566   4.928  66.325  1.00  0.00    -0.086 N  
HETATM    3  C   UNL     2      -6.435   8.592  67.143  1.00  0.00    -0.058 C  
HETATM    4  C   UNL     1      -6.479   5.532  65.458  1.00  0.00    -0.040 C  
HETATM    5  C   UNL     1      -7.589   5.474  67.751  1.00  0.00    -0.088 C  
HETATM    6  N   UNL     2      -7.723   8.841  66.510  1.00  0.00    -0.098 N  
HETATM    7  C   UNL     2      -9.092   9.673  63.210  1.00  0.00    -0.191 C  
HETATM    8  O   UNL     2      -7.202   8.175  64.358  1.00  0.00    -0.078 OA 
HETATM    9  C   UNL     2      -8.835   9.044  67.284  1.00  0.00    -0.117 A  
HETATM   10  N   UNL     2      -9.091   8.541  68.507  1.00  0.00    -0.136 NA 
HETATM   11  C   UNL     2      -9.968   9.619  66.779  1.00  0.00    -0.227 A  
HETATM   12  C   UNL     2      -7.914   8.827  65.131  1.00  0.00    -0.125 C  
HETATM   13  N   UNL     2     -10.939   9.486  67.721  1.00  0.00    -0.495 NA 
HETATM   14  C   UNL     2     -10.009  10.150  65.441  1.00  0.00    -0.307 C  
HETATM   15  N   UNL     2      -9.003   9.565  64.649  1.00  0.00    -0.224 N  
HETATM   16  H   UNL     2     -11.906   9.802  67.644  1.00  0.00     0.000 HD 
HETATM   17  C   UNL     2     -10.379   8.854  68.779  1.00  0.00    -0.211 A  
HETATM   18  O   UNL     2     -10.784  10.967  64.942  1.00  0.00    -0.276 OA 
ENDROOT
BRANCH   2  19
HETATM   19  C   UNL     1      -9.005   5.206  65.805  1.00  0.00    -0.152 C  
BRANCH  19  20
HETATM   20  C   UNL     1      -9.781   3.993  65.278  1.00  0.00    -0.197 C  
HETATM   21  O   UNL     1     -11.174   4.269  65.159  1.00  0.00    -0.859 OA 
HETATM   22  H   UNL     1     -11.655   3.517  64.833  1.00  0.00     0.000 HD 
ENDBRANCH  19  20
ENDBRANCH   2  19
TORSDOF 2
ENDMDL
MODEL       92
REMARK 921   NORMALIZED FREE ENERGY PREDICTED BY IDOCK:   -3.23 KCAL/MOL
REMARK 922        TOTAL FREE ENERGY PREDICTED BY IDOCK:   -4.11 KCAL/MOL
REMARK 923 INTER-LIGAND FREE ENERGY PREDICTED BY IDOCK:   -3.99 KCAL/MOL
REMARK 924 INTRA-LIGAND FREE ENERGY PREDICTED BY IDOCK:   -0.12 KCAL/MOL
REMARK 927      BINDING AFFINITY PREDICTED BY RF-SCORE:    0.00 PKD
ROOT
HETATM    1  C   UNL     1     -13.135  13.539  65.569  1.00  0.00    -0.021 C  
HETATM    2  N   UNL     1     -11.840  14.034  66.166  1.00  0.00    -0.387 N  
HETATM    3  C   UNL     2     -10.148  15.620  69.328  1.00  0.00    -0.258 C  
HETATM    4  C   UNL     1     -11.605  13.129  67.359  1.00  0.00    -0.356 C  
HETATM    5  C   UNL     1     -12.055  15.499  66.540  1.00  0.00     0.767 C  
HETATM    6  N   UNL     2      -9.004  15.513  68.434  1.00  0.00    -0.184 N  
HETATM    7  C   UNL     2      -6.229  13.222  67.720  1.00  0.00    -0.158 C  
HETATM    8  O   UNL     2      -8.824  13.209  68.352  1.00  0.00    -0.175 OA 
HETATM    9  C   UNL     2      -8.601  16.603  67.709  1.00  0.00    -0.192 A  
HETATM   10  N   UNL     2      -9.362  17.615  67.250  1.00  0.00    -0.246 NA 
HETATM   11  C   UNL     2      -7.359  16.671  67.141  1.00  0.00    -0.185 A  
HETATM   12  C   UNL     2      -8.310  14.325  68.217  1.00  0.00    -0.165 C  
HETATM   13  N   UNL     2      -7.348  17.761  66.330  1.00  0.00    -0.275 NA 
HETATM   14  C   UNL     2      -6.369  15.652  67.377  1.00  0.00    -0.109 C  
HETATM   15  N   UNL     2      -6.983  14.453  67.784  1.00  0.00    -0.163 N  
HETATM   16  H   UNL     2      -6.569  18.081  65.753  1.00  0.00     0.000 HD 
HETATM   17  C   UNL     2      -8.567  18.342  66.432  1.00  0.00    -0.247 A  
HETATM   18  O   UNL     2      -5.145  15.698  67.239  1.00  0.00    -0.331 OA 
ENDROOT
BRANCH   2  19
HETATM   19  C   UNL     1     -10.643  14.082  65.175  1.00  0.00    -0.386 C  
BRANCH  19  20
HETATM   20  C   UNL     1     -10.714  13.123  63.981  1.00  0.00    -0.302 C  
HETATM   21  O   UNL     1      -9.464  12.480  63.746  1.00  0.00    -0.614 OA 
HETATM   22  H   UNL     1      -9.507  11.886  63.006  1.00  0.00     0.000 HD 
ENDBRANCH  19  20
ENDBRANCH   2  19
TORSDOF 2
ENDMDL
MODEL       93
REMARK 921   NORMALIZED FREE ENERGY PREDICTED BY IDOCK:   -3.22 KCAL/MOL
REMARK 922        TOTAL FREE ENERGY PREDICTED BY IDOCK:   -4.11 KCAL/MOL
REMARK 923 INTER-LIGAND FREE ENERGY PREDICTED BY IDOCK:   -3.61 KCAL/MOL
REMARK 924 INTRA-LIGAND FREE ENERGY PREDICTED BY IDOCK:   -0.50 KCAL/MOL
REMARK 927      BINDING AFFINITY PREDICTED BY RF-SCORE:    0.00 PKD
ROOT
HETATM    1  C   UNL     1      -9.820  13.091  66.275  1.00  0.00    -0.278 C  
HETATM    2  N   UNL     1      -9.428  11.757  66.861  1.00  0.00    -0.188 N  
HETATM    3  C   UNL     2      -7.385   8.460  66.286  1.00  0.00    -0.086 C  
HETATM    4  C   UNL     1      -7.921  11.837  67.004  1.00  0.00    -0.164 C  
HETATM    5  C   UNL     1      -9.896  10.686  65.878  1.00  0.00    -0.243 C  
HETATM    6  N   UNL     2      -7.960   8.197  67.598  1.00  0.00    -0.121 N  
HETATM    7  C   UNL     2      -7.068   8.494  71.144  1.00  0.00    -0.073 C  
HETATM    8  O   UNL     2      -6.814   9.789  68.821  1.00  0.00    -0.051 OA 
HETATM    9  C   UNL     2      -9.096   7.438  67.704  1.00  0.00    -0.125 A  
HETATM   10  N   UNL     2     -10.095   7.320  66.808  1.00  0.00    -0.231 NA 
HETATM   11  C   UNL     2      -9.475   6.872  68.890  1.00  0.00    -0.136 A  
HETATM   12  C   UNL     2      -7.451   8.730  68.779  1.00  0.00    -0.084 C  
HETATM   13  N   UNL     2     -10.727   6.374  68.713  1.00  0.00    -0.256 NA 
HETATM   14  C   UNL     2      -8.637   6.943  70.058  1.00  0.00    -0.141 C  
HETATM   15  N   UNL     2      -7.737   8.020  69.953  1.00  0.00    -0.097 N  
HETATM   16  H   UNL     2     -11.296   5.899  69.415  1.00  0.00     0.000 HD 
HETATM   17  C   UNL     2     -11.077   6.628  67.431  1.00  0.00    -0.320 A  
HETATM   18  O   UNL     2      -8.641   6.246  71.074  1.00  0.00    -0.130 OA 
ENDROOT
BRANCH   2  19
HETATM   19  C   UNL     1     -10.161  11.386  68.181  1.00  0.00    -0.189 C  
BRANCH  19  20
HETATM   20  C   UNL     1     -11.391  10.482  68.042  1.00  0.00    -0.246 C  
HETATM   21  O   UNL     1     -11.459   9.518  69.090  1.00  0.00    -0.450 OA 
HETATM   22  H   UNL     1     -12.220   8.958  69.004  1.00  0.00     0.000 HD 
ENDBRANCH  19  20
ENDBRANCH   2  19
TORSDOF 2
ENDMDL
MODEL       94
REMARK 921   NORMALIZED FREE ENERGY PREDICTED BY IDOCK:   -3.21 KCAL/MOL
REMARK 922        TOTAL FREE ENERGY PREDICTED BY IDOCK:   -4.10 KCAL/MOL
REMARK 923 INTER-LIGAND FREE ENERGY PREDICTED BY IDOCK:   -3.92 KCAL/MOL
REMARK 924 INTRA-LIGAND FREE ENERGY PREDICTED BY IDOCK:   -0.18 KCAL/MOL
REMARK 927      BINDING AFFINITY PREDICTED BY RF-SCORE:    0.00 PKD
ROOT
HETATM    1  C   UNL     1     -10.161   6.838  71.925  1.00  0.00    -0.180 C  
HETATM    2  N   UNL     1      -9.828   7.869  70.873  1.00  0.00    -0.178 N  
HETATM    3  C   UNL     2      -7.805   8.588  67.592  1.00  0.00    -0.103 C  
HETATM    4  C   UNL     1     -10.359   7.276  69.583  1.00  0.00    -0.221 C  
HETATM    5  C   UNL     1      -8.311   8.045  70.890  1.00  0.00    -0.119 C  
HETATM    6  N   UNL     2      -8.444   9.879  67.804  1.00  0.00    -0.118 N  
HETATM    7  C   UNL     2     -11.429  11.723  66.734  1.00  0.00    -0.281 C  
HETATM    8  O   UNL     2     -10.639   9.265  67.418  1.00  0.00    -0.272 OA 
HETATM    9  C   UNL     2      -7.750  10.890  68.417  1.00  0.00    -0.116 A  
HETATM   10  N   UNL     2      -6.776  10.779  69.339  1.00  0.00    -0.083 NA 
HETATM   11  C   UNL     2      -8.152  12.194  68.329  1.00  0.00    -0.166 A  
HETATM   12  C   UNL     2      -9.770  10.142  67.471  1.00  0.00    -0.162 C  
HETATM   13  N   UNL     2      -7.393  12.906  69.203  1.00  0.00    -0.307 NA 
HETATM   14  C   UNL     2      -9.255  12.586  67.491  1.00  0.00    -0.188 C  
HETATM   15  N   UNL     2     -10.095  11.485  67.236  1.00  0.00    -0.197 N  
HETATM   16  H   UNL     2      -7.455  13.909  69.384  1.00  0.00     0.000 HD 
HETATM   17  C   UNL     2      -6.538  12.034  69.787  1.00  0.00     0.001 A  
HETATM   18  O   UNL     2      -9.543  13.694  67.036  1.00  0.00    -0.235 OA 
ENDROOT
BRANCH   2  19
HETATM   19  C   UNL     1     -10.364   9.298  71.171  1.00  0.00    -0.322 C  
BRANCH  19  20
HETATM   20  C   UNL     1     -11.773   9.613  70.655  1.00  0.00    -0.280 C  
HETATM   21  O   UNL     1     -12.558  10.284  71.638  1.00  0.00    -0.391 OA 
HETATM   22  H   UNL     1     -13.430  10.479  71.319  1.00  0.00     0.000 HD 
ENDBRANCH  19  20
ENDBRANCH   2  19
TORSDOF 2
ENDMDL
MODEL       95
REMARK 921   NORMALIZED FREE ENERGY PREDICTED BY IDOCK:   -3.18 KCAL/MOL
REMARK 922        TOTAL FREE ENERGY PREDICTED BY IDOCK:   -4.06 KCAL/MOL
REMARK 923 INTER-LIGAND FREE ENERGY PREDICTED BY IDOCK:   -3.88 KCAL/MOL
REMARK 924 INTRA-LIGAND FREE ENERGY PREDICTED BY IDOCK:   -0.18 KCAL/MOL
REMARK 927      BINDING AFFINITY PREDICTED BY RF-SCORE:    0.00 PKD
ROOT
HETATM    1  C   UNL     1      -6.069  11.915  66.993  1.00  0.00    -0.149 C  
HETATM    2  N   UNL     1      -7.225  11.015  67.354  1.00  0.00    -0.098 N  
HETATM    3  C   UNL     2     -11.123  10.754  67.690  1.00  0.00    -0.319 C  
HETATM    4  C   UNL     1      -8.030  10.903  66.073  1.00  0.00    -0.132 C  
HETATM    5  C   UNL     1      -7.978  11.695  68.495  1.00  0.00    -0.144 C  
HETATM    6  N   UNL     2     -10.726   9.415  68.103  1.00  0.00    -0.209 N  
HETATM    7  C   UNL     2     -10.317   6.062  66.674  1.00  0.00    -0.204 C  
HETATM    8  O   UNL     2      -9.921   8.636  66.081  1.00  0.00    -0.260 OA 
HETATM    9  C   UNL     2     -10.622   9.117  69.437  1.00  0.00    -0.223 A  
HETATM   10  N   UNL     2     -10.299   9.950  70.445  1.00  0.00    -0.282 NA 
HETATM   11  C   UNL     2     -10.602   7.825  69.885  1.00  0.00    -0.239 A  
HETATM   12  C   UNL     2     -10.377   8.408  67.207  1.00  0.00    -0.299 C  
HETATM   13  N   UNL     2     -10.281   7.865  71.205  1.00  0.00    -0.187 NA 
HETATM   14  C   UNL     2     -10.811   6.716  68.991  1.00  0.00    -0.277 C  
HETATM   15  N   UNL     2     -10.527   7.092  67.665  1.00  0.00    -0.215 N  
HETATM   16  H   UNL     2     -10.174   7.064  71.829  1.00  0.00     0.000 HD 
HETATM   17  C   UNL     2     -10.130   9.169  71.537  1.00  0.00    -0.311 A  
HETATM   18  O   UNL     2     -11.150   5.558  69.240  1.00  0.00    -0.183 OA 
ENDROOT
BRANCH   2  19
HETATM   19  C   UNL     1      -6.816   9.640  67.955  1.00  0.00    -0.074 C  
BRANCH  19  20
HETATM   20  C   UNL     1      -5.354   9.502  68.395  1.00  0.00    -0.036 C  
HETATM   21  O   UNL     1      -5.186   9.814  69.775  1.00  0.00    -0.034 OA 
HETATM   22  H   UNL     1      -4.281   9.729  70.048  1.00  0.00     0.000 HD 
ENDBRANCH  19  20
ENDBRANCH   2  19
TORSDOF 2
ENDMDL
MODEL       96
REMARK 921   NORMALIZED FREE ENERGY PREDICTED BY IDOCK:   -3.17 KCAL/MOL
REMARK 922        TOTAL FREE ENERGY PREDICTED BY IDOCK:   -4.05 KCAL/MOL
REMARK 923 INTER-LIGAND FREE ENERGY PREDICTED BY IDOCK:   -3.61 KCAL/MOL
REMARK 924 INTRA-LIGAND FREE ENERGY PREDICTED BY IDOCK:   -0.44 KCAL/MOL
REMARK 927      BINDING AFFINITY PREDICTED BY RF-SCORE:    0.00 PKD
ROOT
HETATM    1  C   UNL     1      -9.450  10.786  65.092  1.00  0.00    -0.226 C  
HETATM    2  N   UNL     1      -9.182  10.114  66.417  1.00  0.00    -0.155 N  
HETATM    3  C   UNL     2      -8.464   6.703  68.212  1.00  0.00    -0.120 C  
HETATM    4  C   UNL     1      -7.793   9.526  66.267  1.00  0.00    -0.100 C  
HETATM    5  C   UNL     1     -10.275   9.065  66.612  1.00  0.00    -0.263 C  
HETATM    6  N   UNL     2      -8.459   7.613  69.349  1.00  0.00    -0.131 N  
HETATM    7  C   UNL     2      -6.078   9.532  71.375  1.00  0.00    -0.034 C  
HETATM    8  O   UNL     2      -6.546   8.810  68.846  1.00  0.00    -0.051 OA 
HETATM    9  C   UNL     2      -9.584   7.746  70.119  1.00  0.00    -0.168 A  
HETATM   10  N   UNL     2     -10.868   7.606  69.735  1.00  0.00    -0.242 NA 
HETATM   11  C   UNL     2      -9.538   8.293  71.371  1.00  0.00    -0.177 A  
HETATM   12  C   UNL     2      -7.375   8.424  69.677  1.00  0.00    -0.072 C  
HETATM   13  N   UNL     2     -10.823   8.475  71.776  1.00  0.00    -0.279 NA 
HETATM   14  C   UNL     2      -8.288   8.647  71.991  1.00  0.00    -0.102 C  
HETATM   15  N   UNL     2      -7.289   8.829  71.016  1.00  0.00    -0.082 N  
HETATM   16  H   UNL     2     -11.129   8.877  72.663  1.00  0.00     0.000 HD 
HETATM   17  C   UNL     2     -11.620   8.023  70.779  1.00  0.00    -0.242 A  
HETATM   18  O   UNL     2      -8.023   8.828  73.180  1.00  0.00    -0.405 OA 
ENDROOT
BRANCH   2  19
HETATM   19  C   UNL     1      -9.337  11.038  67.658  1.00  0.00    -0.157 C  
BRANCH  19  20
HETATM   20  C   UNL     1     -10.727  11.077  68.303  1.00  0.00    -0.196 C  
HETATM   21  O   UNL     1     -10.660  10.888  69.714  1.00  0.00    -0.407 OA 
HETATM   22  H   UNL     1     -11.521  10.912  70.114  1.00  0.00     0.000 HD 
ENDBRANCH  19  20
ENDBRANCH   2  19
TORSDOF 2
ENDMDL
MODEL       97
REMARK 921   NORMALIZED FREE ENERGY PREDICTED BY IDOCK:   -3.17 KCAL/MOL
REMARK 922        TOTAL FREE ENERGY PREDICTED BY IDOCK:   -4.05 KCAL/MOL
REMARK 923 INTER-LIGAND FREE ENERGY PREDICTED BY IDOCK:   -3.87 KCAL/MOL
REMARK 924 INTRA-LIGAND FREE ENERGY PREDICTED BY IDOCK:   -0.18 KCAL/MOL
REMARK 927      BINDING AFFINITY PREDICTED BY RF-SCORE:    0.00 PKD
ROOT
HETATM    1  C   UNL     1      -8.684  10.616  65.785  1.00  0.00    -0.182 C  
HETATM    2  N   UNL     1      -8.742   9.678  66.967  1.00  0.00    -0.128 N  
HETATM    3  C   UNL     2      -6.632   7.586  69.525  1.00  0.00    -0.036 C  
HETATM    4  C   UNL     1      -8.049  10.435  68.083  1.00  0.00    -0.111 C  
HETATM    5  C   UNL     1      -8.019   8.397  66.552  1.00  0.00    -0.096 C  
HETATM    6  N   UNL     2      -7.984   7.260  69.959  1.00  0.00    -0.115 N  
HETATM    7  C   UNL     2     -10.461   8.358  72.430  1.00  0.00    -0.332 C  
HETATM    8  O   UNL     2      -8.616   9.333  70.763  1.00  0.00    -0.204 OA 
HETATM    9  C   UNL     2      -8.571   6.095  69.538  1.00  0.00    -0.127 A  
HETATM   10  N   UNL     2      -8.360   5.436  68.383  1.00  0.00    -0.094 NA 
HETATM   11  C   UNL     2      -9.664   5.571  70.172  1.00  0.00    -0.182 A  
HETATM   12  C   UNL     2      -8.761   8.106  70.745  1.00  0.00    -0.139 C  
HETATM   13  N   UNL     2     -10.124   4.552  69.399  1.00  0.00    -0.146 NA 
HETATM   14  C   UNL     2     -10.179   6.152  71.384  1.00  0.00    -0.205 C  
HETATM   15  N   UNL     2      -9.771   7.494  71.500  1.00  0.00    -0.166 N  
HETATM   16  H   UNL     2     -10.936   3.965  69.590  1.00  0.00     0.000 HD 
HETATM   17  C   UNL     2      -9.300   4.464  68.328  1.00  0.00    -0.147 A  
HETATM   18  O   UNL     2     -10.906   5.656  72.247  1.00  0.00    -0.223 OA 
ENDROOT
BRANCH   2  19
HETATM   19  C   UNL     1     -10.170   9.187  67.338  1.00  0.00    -0.247 C  
BRANCH  19  20
HETATM   20  C   UNL     1     -10.910  10.003  68.403  1.00  0.00    -0.235 C  
HETATM   21  O   UNL     1     -11.985  10.752  67.842  1.00  0.00    -0.753 OA 
HETATM   22  H   UNL     1     -12.444  11.258  68.501  1.00  0.00     0.000 HD 
ENDBRANCH  19  20
ENDBRANCH   2  19
TORSDOF 2
ENDMDL
MODEL       98
REMARK 921   NORMALIZED FREE ENERGY PREDICTED BY IDOCK:   -3.17 KCAL/MOL
REMARK 922        TOTAL FREE ENERGY PREDICTED BY IDOCK:   -4.05 KCAL/MOL
REMARK 923 INTER-LIGAND FREE ENERGY PREDICTED BY IDOCK:   -3.77 KCAL/MOL
REMARK 924 INTRA-LIGAND FREE ENERGY PREDICTED BY IDOCK:   -0.28 KCAL/MOL
REMARK 927      BINDING AFFINITY PREDICTED BY RF-SCORE:    0.00 PKD
ROOT
HETATM    1  C   UNL     1     -11.988   8.373  72.434  1.00  0.00    -0.384 C  
HETATM    2  N   UNL     1     -11.092   8.467  71.223  1.00  0.00    -0.249 N  
HETATM    3  C   UNL     2      -8.750   6.480  68.786  1.00  0.00    -0.123 C  
HETATM    4  C   UNL     1     -11.755   7.572  70.194  1.00  0.00     0.053 C  
HETATM    5  C   UNL     1      -9.709   7.986  71.655  1.00  0.00    -0.171 C  
HETATM    6  N   UNL     2      -8.643   7.821  68.229  1.00  0.00    -0.124 N  
HETATM    7  C   UNL     2     -10.155   9.876  65.594  1.00  0.00    -0.237 C  
HETATM    8  O   UNL     2     -10.803   8.060  67.441  1.00  0.00    -0.231 OA 
HETATM    9  C   UNL     2      -7.575   8.613  68.561  1.00  0.00    -0.095 A  
HETATM   10  N   UNL     2      -6.870   8.607  69.709  1.00  0.00    -0.042 NA 
HETATM   11  C   UNL     2      -7.237   9.712  67.821  1.00  0.00    -0.085 A  
HETATM   12  C   UNL     2      -9.613   8.390  67.408  1.00  0.00    -0.157 C  
HETATM   13  N   UNL     2      -6.286  10.387  68.519  1.00  0.00    -0.047 NA 
HETATM   14  C   UNL     2      -7.912  10.024  66.589  1.00  0.00    -0.115 C  
HETATM   15  N   UNL     2      -9.177   9.410  66.551  1.00  0.00    -0.151 N  
HETATM   16  H   UNL     2      -5.834  11.259  68.242  1.00  0.00     0.000 HD 
HETATM   17  C   UNL     2      -6.052   9.684  69.652  1.00  0.00    -0.043 A  
HETATM   18  O   UNL     2      -7.549  10.739  65.653  1.00  0.00    -0.131 OA 
ENDROOT
BRANCH   2  19
HETATM   19  C   UNL     1     -10.833   9.914  70.716  1.00  0.00    -0.317 C  
BRANCH  19  20
HETATM   20  C   UNL     1     -12.066  10.705  70.264  1.00  0.00    -0.338 C  
HETATM   21  O   UNL     1     -12.300  10.564  68.865  1.00  0.00    -0.779 OA 
HETATM   22  H   UNL     1     -13.063  11.054  68.585  1.00  0.00     0.000 HD 
ENDBRANCH  19  20
ENDBRANCH   2  19
TORSDOF 2
ENDMDL
MODEL       99
REMARK 921   NORMALIZED FREE ENERGY PREDICTED BY IDOCK:   -3.16 KCAL/MOL
REMARK 922        TOTAL FREE ENERGY PREDICTED BY IDOCK:   -4.04 KCAL/MOL
REMARK 923 INTER-LIGAND FREE ENERGY PREDICTED BY IDOCK:   -3.55 KCAL/MOL
REMARK 924 INTRA-LIGAND FREE ENERGY PREDICTED BY IDOCK:   -0.49 KCAL/MOL
REMARK 927      BINDING AFFINITY PREDICTED BY RF-SCORE:    0.00 PKD
ROOT
HETATM    1  C   UNL     1     -10.895   6.077  72.982  1.00  0.00    -0.260 C  
HETATM    2  N   UNL     1     -10.144   6.317  71.695  1.00  0.00    -0.187 N  
HETATM    3  C   UNL     2      -7.115   8.167  70.028  1.00  0.00    -0.048 C  
HETATM    4  C   UNL     1      -8.757   5.763  71.959  1.00  0.00    -0.137 C  
HETATM    5  C   UNL     1     -10.165   7.823  71.442  1.00  0.00    -0.182 C  
HETATM    6  N   UNL     2      -7.676   7.475  68.876  1.00  0.00    -0.112 N  
HETATM    7  C   UNL     2      -7.208   4.363  66.992  1.00  0.00    -0.069 C  
HETATM    8  O   UNL     2      -7.200   5.299  69.494  1.00  0.00    -0.058 OA 
HETATM    9  C   UNL     2      -8.514   8.143  68.022  1.00  0.00    -0.133 A  
HETATM   10  N   UNL     2      -9.349   9.159  68.314  1.00  0.00    -0.135 NA 
HETATM   11  C   UNL     2      -8.784   7.675  66.766  1.00  0.00    -0.133 A  
HETATM   12  C   UNL     2      -7.459   6.125  68.612  1.00  0.00    -0.087 C  
HETATM   13  N   UNL     2      -9.793   8.434  66.264  1.00  0.00    -0.418 NA 
HETATM   14  C   UNL     2      -8.107   6.521  66.234  1.00  0.00    -0.115 C  
HETATM   15  N   UNL     2      -7.594   5.726  67.275  1.00  0.00    -0.095 N  
HETATM   16  H   UNL     2     -10.233   8.330  65.349  1.00  0.00     0.000 HD 
HETATM   17  C   UNL     2     -10.104   9.353  67.208  1.00  0.00    -0.226 A  
HETATM   18  O   UNL     2      -7.967   6.162  65.063  1.00  0.00    -0.110 OA 
ENDROOT
BRANCH   2  19
HETATM   19  C   UNL     1     -10.821   5.724  70.427  1.00  0.00    -0.290 C  
BRANCH  19  20
HETATM   20  C   UNL     1     -11.627   6.705  69.568  1.00  0.00    -0.195 C  
HETATM   21  O   UNL     1     -11.528   6.396  68.180  1.00  0.00    -0.558 OA 
HETATM   22  H   UNL     1     -12.026   7.004  67.648  1.00  0.00     0.000 HD 
ENDBRANCH  19  20
ENDBRANCH   2  19
TORSDOF 2
ENDMDL
MODEL      100
REMARK 921   NORMALIZED FREE ENERGY PREDICTED BY IDOCK:   -3.15 KCAL/MOL
REMARK 922        TOTAL FREE ENERGY PREDICTED BY IDOCK:   -4.03 KCAL/MOL
REMARK 923 INTER-LIGAND FREE ENERGY PREDICTED BY IDOCK:   -3.54 KCAL/MOL
REMARK 924 INTRA-LIGAND FREE ENERGY PREDICTED BY IDOCK:   -0.49 KCAL/MOL
REMARK 927      BINDING AFFINITY PREDICTED BY RF-SCORE:    0.00 PKD
ROOT
HETATM    1  C   UNL     1      -9.311   3.205  71.756  1.00  0.00    -0.126 C  
HETATM    2  N   UNL     1      -9.181   4.687  71.506  1.00  0.00    -0.134 N  
HETATM    3  C   UNL     2      -8.724   8.208  73.170  1.00  0.00    -0.240 C  
HETATM    4  C   UNL     1      -7.802   5.038  72.028  1.00  0.00    -0.110 C  
HETATM    5  C   UNL     1     -10.317   5.368  72.267  1.00  0.00    -0.209 C  
HETATM    6  N   UNL     2      -8.793   8.581  71.764  1.00  0.00    -0.193 N  
HETATM    7  C   UNL     2      -6.547   9.279  68.950  1.00  0.00    -0.048 C  
HETATM    8  O   UNL     2      -6.810   7.639  71.041  1.00  0.00    -0.048 OA 
HETATM    9  C   UNL     2      -9.978   9.020  71.233  1.00  0.00    -0.311 A  
HETATM   10  N   UNL     2     -11.226   8.681  71.611  1.00  0.00    -0.285 NA 
HETATM   11  C   UNL     2     -10.027   9.702  70.050  1.00  0.00    -0.247 A  
HETATM   12  C   UNL     2      -7.720   8.460  70.885  1.00  0.00    -0.088 C  
HETATM   13  N   UNL     2     -11.337   9.805  69.701  1.00  0.00    -0.405 NA 
HETATM   14  C   UNL     2      -8.827  10.100  69.361  1.00  0.00    -0.185 C  
HETATM   15  N   UNL     2      -7.741   9.300  69.763  1.00  0.00    -0.086 N  
HETATM   16  H   UNL     2     -11.708  10.251  68.861  1.00  0.00     0.000 HD 
HETATM   17  C   UNL     2     -12.055   9.204  70.678  1.00  0.00    -0.068 A  
HETATM   18  O   UNL     2      -8.663  10.969  68.504  1.00  0.00    -0.146 OA 
ENDROOT
BRANCH   2  19
HETATM   19  C   UNL     1      -9.418   5.121  70.031  1.00  0.00    -0.160 C  
BRANCH  19  20
HETATM   20  C   UNL     1     -10.840   5.574  69.680  1.00  0.00    -0.209 C  
HETATM   21  O   UNL     1     -10.838   6.600  68.690  1.00  0.00    -0.240 OA 
HETATM   22  H   UNL     1     -11.718   6.881  68.472  1.00  0.00     0.000 HD 
ENDBRANCH  19  20
ENDBRANCH   2  19
TORSDOF 2
ENDMDL
MODEL      101
REMARK 921   NORMALIZED FREE ENERGY PREDICTED BY IDOCK:   -3.14 KCAL/MOL
REMARK 922        TOTAL FREE ENERGY PREDICTED BY IDOCK:   -4.01 KCAL/MOL
REMARK 923 INTER-LIGAND FREE ENERGY PREDICTED BY IDOCK:   -3.53 KCAL/MOL
REMARK 924 INTRA-LIGAND FREE ENERGY PREDICTED BY IDOCK:   -0.49 KCAL/MOL
REMARK 927      BINDING AFFINITY PREDICTED BY RF-SCORE:    0.00 PKD
ROOT
HETATM    1  C   UNL     1     -10.131  10.259  65.859  1.00  0.00    -0.251 C  
HETATM    2  N   UNL     1     -10.000   9.441  67.121  1.00  0.00    -0.190 N  
HETATM    3  C   UNL     2      -8.475   9.309  70.731  1.00  0.00    -0.195 C  
HETATM    4  C   UNL     1     -10.662  10.289  68.189  1.00  0.00    -0.246 C  
HETATM    5  C   UNL     1      -8.507   9.217  67.353  1.00  0.00    -0.122 C  
HETATM    6  N   UNL     2      -9.155   8.021  70.677  1.00  0.00    -0.151 N  
HETATM    7  C   UNL     2     -12.357   6.515  71.642  1.00  0.00    -0.260 C  
HETATM    8  O   UNL     2     -11.342   8.768  70.628  1.00  0.00    -0.262 OA 
HETATM    9  C   UNL     2      -8.445   6.890  70.369  1.00  0.00    -0.134 A  
HETATM   10  N   UNL     2      -7.352   6.789  69.589  1.00  0.00    -0.084 NA 
HETATM   11  C   UNL     2      -8.930   5.641  70.642  1.00  0.00    -0.146 A  
HETATM   12  C   UNL     2     -10.526   7.870  70.863  1.00  0.00    -0.203 C  
HETATM   13  N   UNL     2      -8.104   4.749  70.034  1.00  0.00    -0.068 NA 
HETATM   14  C   UNL     2     -10.155   5.454  71.375  1.00  0.00    -0.202 C  
HETATM   15  N   UNL     2     -10.956   6.609  71.298  1.00  0.00    -0.244 N  
HETATM   16  H   UNL     2      -8.200   3.733  70.038  1.00  0.00     0.000 HD 
HETATM   17  C   UNL     2      -7.131   5.464  69.423  1.00  0.00    -0.063 A  
HETATM   18  O   UNL     2     -10.564   4.465  71.985  1.00  0.00    -0.117 OA 
ENDROOT
BRANCH   2  19
HETATM   19  C   UNL     1     -10.575   8.000  67.024  1.00  0.00    -0.294 C  
BRANCH  19  20
HETATM   20  C   UNL     1      -9.550   6.873  66.851  1.00  0.00    -0.162 C  
HETATM   21  O   UNL     1     -10.029   5.638  67.378  1.00  0.00    -0.133 OA 
HETATM   22  H   UNL     1      -9.394   4.940  67.271  1.00  0.00     0.000 HD 
ENDBRANCH  19  20
ENDBRANCH   2  19
TORSDOF 2
ENDMDL
MODEL      102
REMARK 921   NORMALIZED FREE ENERGY PREDICTED BY IDOCK:   -3.13 KCAL/MOL
REMARK 922        TOTAL FREE ENERGY PREDICTED BY IDOCK:   -4.01 KCAL/MOL
REMARK 923 INTER-LIGAND FREE ENERGY PREDICTED BY IDOCK:   -3.61 KCAL/MOL
REMARK 924 INTRA-LIGAND FREE ENERGY PREDICTED BY IDOCK:   -0.40 KCAL/MOL
REMARK 927      BINDING AFFINITY PREDICTED BY RF-SCORE:    0.00 PKD
ROOT
HETATM    1  C   UNL     1      -7.965  10.215  65.076  1.00  0.00    -0.146 C  
HETATM    2  N   UNL     1      -8.553   9.719  66.374  1.00  0.00    -0.123 N  
HETATM    3  C   UNL     2      -7.777   8.678  70.073  1.00  0.00    -0.080 C  
HETATM    4  C   UNL     1      -8.269  10.830  67.366  1.00  0.00    -0.116 C  
HETATM    5  C   UNL     1      -7.850   8.404  66.706  1.00  0.00    -0.094 C  
HETATM    6  N   UNL     2      -9.216   8.458  70.027  1.00  0.00    -0.157 N  
HETATM    7  C   UNL     2     -12.332  10.209  70.850  1.00  0.00    -0.363 C  
HETATM    8  O   UNL     2      -9.911  10.653  69.814  1.00  0.00    -0.107 OA 
HETATM    9  C   UNL     2      -9.705   7.197  69.808  1.00  0.00    -0.165 A  
HETATM   10  N   UNL     2      -9.134   6.203  69.101  1.00  0.00    -0.128 NA 
HETATM   11  C   UNL     2     -11.000   6.868  70.098  1.00  0.00    -0.281 A  
HETATM   12  C   UNL     2     -10.152   9.484  70.134  1.00  0.00    -0.249 C  
HETATM   13  N   UNL     2     -11.226   5.633  69.577  1.00  0.00    -0.092 NA 
HETATM   14  C   UNL     2     -11.881   7.795  70.761  1.00  0.00    -0.187 C  
HETATM   15  N   UNL     2     -11.425   9.115  70.590  1.00  0.00    -0.269 N  
HETATM   16  H   UNL     2     -12.101   5.109  69.614  1.00  0.00     0.000 HD 
HETATM   17  C   UNL     2     -10.069   5.230  69.000  1.00  0.00    -0.202 A  
HETATM   18  O   UNL     2     -12.924   7.582  71.381  1.00  0.00    -0.351 OA 
ENDROOT
BRANCH   2  19
HETATM   19  C   UNL     1     -10.055   9.321  66.297  1.00  0.00    -0.252 C  
BRANCH  19  20
HETATM   20  C   UNL     1     -11.052  10.471  66.118  1.00  0.00     0.262 C  
HETATM   21  O   UNL     1     -11.626  10.870  67.359  1.00  0.00    -0.509 OA 
HETATM   22  H   UNL     1     -12.245  11.583  67.248  1.00  0.00     0.000 HD 
ENDBRANCH  19  20
ENDBRANCH   2  19
TORSDOF 2
ENDMDL
MODEL      103
REMARK 921   NORMALIZED FREE ENERGY PREDICTED BY IDOCK:   -3.13 KCAL/MOL
REMARK 922        TOTAL FREE ENERGY PREDICTED BY IDOCK:   -4.00 KCAL/MOL
REMARK 923 INTER-LIGAND FREE ENERGY PREDICTED BY IDOCK:   -3.58 KCAL/MOL
REMARK 924 INTRA-LIGAND FREE ENERGY PREDICTED BY IDOCK:   -0.42 KCAL/MOL
REMARK 927      BINDING AFFINITY PREDICTED BY RF-SCORE:    0.00 PKD
ROOT
HETATM    1  C   UNL     1      -8.851  10.820  68.751  1.00  0.00    -0.163 C  
HETATM    2  N   UNL     1      -9.151   9.344  68.654  1.00  0.00    -0.131 N  
HETATM    3  C   UNL     2     -11.532   6.457  69.824  1.00  0.00    -0.399 C  
HETATM    4  C   UNL     1     -10.530   9.280  68.027  1.00  0.00    -0.223 C  
HETATM    5  C   UNL     1      -9.096   8.786  70.075  1.00  0.00    -0.160 C  
HETATM    6  N   UNL     2     -10.606   5.717  68.978  1.00  0.00    -0.270 N  
HETATM    7  C   UNL     2     -10.338   4.513  65.524  1.00  0.00    -0.229 C  
HETATM    8  O   UNL     2     -11.188   6.618  66.930  1.00  0.00    -0.391 OA 
HETATM    9  C   UNL     2      -9.558   5.041  69.545  1.00  0.00    -0.167 A  
HETATM   10  N   UNL     2      -8.896   5.346  70.677  1.00  0.00    -0.130 NA 
HETATM   11  C   UNL     2      -8.881   4.065  68.867  1.00  0.00    -0.105 A  
HETATM   12  C   UNL     2     -10.683   5.702  67.588  1.00  0.00    -0.176 C  
HETATM   13  N   UNL     2      -7.788   3.747  69.610  1.00  0.00    -0.051 NA 
HETATM   14  C   UNL     2      -9.311   3.616  67.569  1.00  0.00    -0.202 C  
HETATM   15  N   UNL     2     -10.109   4.595  66.948  1.00  0.00    -0.210 N  
HETATM   16  H   UNL     2      -7.072   3.060  69.372  1.00  0.00     0.000 HD 
HETATM   17  C   UNL     2      -7.829   4.515  70.724  1.00  0.00    -0.064 A  
HETATM   18  O   UNL     2      -9.051   2.569  66.973  1.00  0.00    -0.147 OA 
ENDROOT
BRANCH   2  19
HETATM   19  C   UNL     1      -8.081   8.511  67.893  1.00  0.00    -0.115 C  
BRANCH  19  20
HETATM   20  C   UNL     1      -7.983   8.752  66.382  1.00  0.00    -0.103 C  
HETATM   21  O   UNL     1      -8.648   7.732  65.641  1.00  0.00    -0.144 OA 
HETATM   22  H   UNL     1      -8.587   7.880  64.705  1.00  0.00     0.000 HD 
ENDBRANCH  19  20
ENDBRANCH   2  19
TORSDOF 2
ENDMDL
MODEL      104
REMARK 921   NORMALIZED FREE ENERGY PREDICTED BY IDOCK:   -3.10 KCAL/MOL
REMARK 922        TOTAL FREE ENERGY PREDICTED BY IDOCK:   -3.97 KCAL/MOL
REMARK 923 INTER-LIGAND FREE ENERGY PREDICTED BY IDOCK:   -3.55 KCAL/MOL
REMARK 924 INTRA-LIGAND FREE ENERGY PREDICTED BY IDOCK:   -0.42 KCAL/MOL
REMARK 927      BINDING AFFINITY PREDICTED BY RF-SCORE:    0.00 PKD
ROOT
HETATM    1  C   UNL     1      -6.807   9.433  67.531  1.00  0.00    -0.076 C  
HETATM    2  N   UNL     1      -7.511   8.793  68.702  1.00  0.00    -0.090 N  
HETATM    3  C   UNL     2      -7.292   7.952  72.525  1.00  0.00    -0.092 C  
HETATM    4  C   UNL     1      -7.727   9.931  69.680  1.00  0.00    -0.149 C  
HETATM    5  C   UNL     1      -6.588   7.697  69.230  1.00  0.00    -0.040 C  
HETATM    6  N   UNL     2      -8.588   7.375  72.196  1.00  0.00    -0.112 N  
HETATM    7  C   UNL     2     -12.144   8.272  72.283  1.00  0.00    -0.379 C  
HETATM    8  O   UNL     2      -9.748   9.323  71.746  1.00  0.00    -0.269 OA 
HETATM    9  C   UNL     2      -8.690   6.033  71.938  1.00  0.00    -0.137 A  
HETATM   10  N   UNL     2      -7.754   5.222  71.409  1.00  0.00    -0.103 NA 
HETATM   11  C   UNL     2      -9.893   5.383  71.972  1.00  0.00    -0.168 A  
HETATM   12  C   UNL     2      -9.751   8.129  72.062  1.00  0.00    -0.227 C  
HETATM   13  N   UNL     2      -9.688   4.136  71.472  1.00  0.00    -0.164 NA 
HETATM   14  C   UNL     2     -11.095   6.051  72.397  1.00  0.00    -0.277 C  
HETATM   15  N   UNL     2     -10.958   7.445  72.264  1.00  0.00    -0.240 N  
HETATM   16  H   UNL     2     -10.393   3.407  71.353  1.00  0.00     0.000 HD 
HETATM   17  C   UNL     2      -8.374   4.044  71.163  1.00  0.00    -0.072 A  
HETATM   18  O   UNL     2     -12.158   5.576  72.801  1.00  0.00    -0.192 OA 
ENDROOT
BRANCH   2  19
HETATM   19  C   UNL     1      -8.815   8.027  68.338  1.00  0.00    -0.134 C  
BRANCH  19  20
HETATM   20  C   UNL     1     -10.041   8.891  68.018  1.00  0.00    -0.195 C  
HETATM   21  O   UNL     1     -11.089   8.689  68.962  1.00  0.00    -0.433 OA 
HETATM   22  H   UNL     1     -11.849   9.224  68.764  1.00  0.00     0.000 HD 
ENDBRANCH  19  20
ENDBRANCH   2  19
TORSDOF 2
ENDMDL
MODEL      105
REMARK 921   NORMALIZED FREE ENERGY PREDICTED BY IDOCK:   -3.09 KCAL/MOL
REMARK 922        TOTAL FREE ENERGY PREDICTED BY IDOCK:   -3.96 KCAL/MOL
REMARK 923 INTER-LIGAND FREE ENERGY PREDICTED BY IDOCK:   -3.82 KCAL/MOL
REMARK 924 INTRA-LIGAND FREE ENERGY PREDICTED BY IDOCK:   -0.14 KCAL/MOL
REMARK 927      BINDING AFFINITY PREDICTED BY RF-SCORE:    0.00 PKD
ROOT
HETATM    1  C   UNL     1     -12.289  10.564  70.159  1.00  0.00    -0.265 C  
HETATM    2  N   UNL     1     -11.394  11.386  69.264  1.00  0.00    -0.264 N  
HETATM    3  C   UNL     2      -8.919  11.298  66.225  1.00  0.00    -0.197 C  
HETATM    4  C   UNL     1     -11.994  11.226  67.881  1.00  0.00    -0.002 C  
HETATM    5  C   UNL     1      -9.986  10.808  69.394  1.00  0.00    -0.110 C  
HETATM    6  N   UNL     2      -8.892  12.716  66.555  1.00  0.00    -0.125 N  
HETATM    7  C   UNL     2     -10.511  15.847  65.541  1.00  0.00    -0.404 C  
HETATM    8  O   UNL     2     -11.058  13.267  65.964  1.00  0.00    -0.282 OA 
HETATM    9  C   UNL     2      -7.876  13.216  67.327  1.00  0.00    -0.117 A  
HETATM   10  N   UNL     2      -7.179  12.577  68.286  1.00  0.00    -0.102 NA 
HETATM   11  C   UNL     2      -7.602  14.554  67.376  1.00  0.00    -0.184 A  
HETATM   12  C   UNL     2      -9.889  13.610  66.176  1.00  0.00    -0.293 C  
HETATM   13  N   UNL     2      -6.699  14.741  68.375  1.00  0.00    -0.095 NA 
HETATM   14  C   UNL     2      -8.287  15.493  66.527  1.00  0.00    -0.199 C  
HETATM   15  N   UNL     2      -9.512  14.958  66.089  1.00  0.00    -0.298 N  
HETATM   16  H   UNL     2      -6.299  15.632  68.673  1.00  0.00     0.000 HD 
HETATM   17  C   UNL     2      -6.429  13.522  68.898  1.00  0.00    -0.102 A  
HETATM   18  O   UNL     2      -7.964  16.635  66.195  1.00  0.00    -0.317 OA 
ENDROOT
BRANCH   2  19
HETATM   19  C   UNL     1     -11.221  12.868  69.702  1.00  0.00    -0.002 C  
BRANCH  19  20
HETATM   20  C   UNL     1     -12.503  13.706  69.776  1.00  0.00    -0.137 C  
HETATM   21  O   UNL     1     -13.010  13.779  71.105  1.00  0.00    -0.326 OA 
HETATM   22  H   UNL     1     -13.804  14.298  71.151  1.00  0.00     0.000 HD 
ENDBRANCH  19  20
ENDBRANCH   2  19
TORSDOF 2
ENDMDL
MODEL      106
REMARK 921   NORMALIZED FREE ENERGY PREDICTED BY IDOCK:   -3.09 KCAL/MOL
REMARK 922        TOTAL FREE ENERGY PREDICTED BY IDOCK:   -3.96 KCAL/MOL
REMARK 923 INTER-LIGAND FREE ENERGY PREDICTED BY IDOCK:   -3.80 KCAL/MOL
REMARK 924 INTRA-LIGAND FREE ENERGY PREDICTED BY IDOCK:   -0.16 KCAL/MOL
REMARK 927      BINDING AFFINITY PREDICTED BY RF-SCORE:    0.00 PKD
ROOT
HETATM    1  C   UNL     1     -10.393   5.782  74.113  1.00  0.00    -0.282 C  
HETATM    2  N   UNL     1      -9.979   6.156  72.710  1.00  0.00    -0.171 N  
HETATM    3  C   UNL     2      -7.272   5.681  69.914  1.00  0.00    -0.069 C  
HETATM    4  C   UNL     1      -9.982   4.842  71.953  1.00  0.00    -0.190 C  
HETATM    5  C   UNL     1      -8.600   6.803  72.812  1.00  0.00    -0.121 C  
HETATM    6  N   UNL     2      -8.188   6.597  69.250  1.00  0.00    -0.122 N  
HETATM    7  C   UNL     2     -11.034   6.508  66.938  1.00  0.00    -0.338 C  
HETATM    8  O   UNL     2     -10.006   5.189  69.021  1.00  0.00    -0.171 OA 
HETATM    9  C   UNL     2      -7.918   7.941  69.240  1.00  0.00    -0.117 A  
HETATM   10  N   UNL     2      -7.254   8.655  70.168  1.00  0.00    -0.049 NA 
HETATM   11  C   UNL     2      -8.528   8.790  68.358  1.00  0.00    -0.130 A  
HETATM   12  C   UNL     2      -9.383   6.193  68.662  1.00  0.00    -0.121 C  
HETATM   13  N   UNL     2      -8.214  10.056  68.739  1.00  0.00    -0.109 NA 
HETATM   14  C   UNL     2      -9.393   8.298  67.317  1.00  0.00    -0.147 C  
HETATM   15  N   UNL     2      -9.885   7.022  67.648  1.00  0.00    -0.142 N  
HETATM   16  H   UNL     2      -8.524  10.919  68.291  1.00  0.00     0.000 HD 
HETATM   17  C   UNL     2      -7.412   9.955  69.825  1.00  0.00    -0.140 A  
HETATM   18  O   UNL     2      -9.749   8.839  66.269  1.00  0.00    -0.247 OA 
ENDROOT
BRANCH   2  19
HETATM   19  C   UNL     1     -10.852   7.259  72.047  1.00  0.00    -0.233 C  
BRANCH  19  20
HETATM   20  C   UNL     1     -12.081   6.774  71.270  1.00  0.00    -0.370 C  
HETATM   21  O   UNL     1     -12.982   7.842  70.987  1.00  0.00    -0.532 OA 
HETATM   22  H   UNL     1     -13.743   7.542  70.506  1.00  0.00     0.000 HD 
ENDBRANCH  19  20
ENDBRANCH   2  19
TORSDOF 2
ENDMDL
MODEL      107
REMARK 921   NORMALIZED FREE ENERGY PREDICTED BY IDOCK:   -3.07 KCAL/MOL
REMARK 922        TOTAL FREE ENERGY PREDICTED BY IDOCK:   -3.94 KCAL/MOL
REMARK 923 INTER-LIGAND FREE ENERGY PREDICTED BY IDOCK:   -3.78 KCAL/MOL
REMARK 924 INTRA-LIGAND FREE ENERGY PREDICTED BY IDOCK:   -0.16 KCAL/MOL
REMARK 927      BINDING AFFINITY PREDICTED BY RF-SCORE:    0.00 PKD
ROOT
HETATM    1  C   UNL     1     -10.276  10.474  63.944  1.00  0.00    -0.129 C  
HETATM    2  N   UNL     1     -10.413  11.673  64.851  1.00  0.00    -0.274 N  
HETATM    3  C   UNL     2     -11.519  15.428  65.082  1.00  0.00    -0.208 C  
HETATM    4  C   UNL     1     -11.901  11.962  64.871  1.00  0.00    -0.167 C  
HETATM    5  C   UNL     1      -9.579  12.794  64.233  1.00  0.00     0.342 C  
HETATM    6  N   UNL     2     -11.076  15.192  66.449  1.00  0.00    -0.335 N  
HETATM    7  C   UNL     2     -12.469  14.261  69.711  1.00  0.00    -0.216 C  
HETATM    8  O   UNL     2     -12.718  13.705  67.111  1.00  0.00     0.031 OA 
HETATM    9  C   UNL     2      -9.816  15.572  66.831  1.00  0.00    -0.237 A  
HETATM   10  N   UNL     2      -8.709  15.643  66.067  1.00  0.00    -0.213 NA 
HETATM   11  C   UNL     2      -9.472  15.701  68.148  1.00  0.00    -0.195 A  
HETATM   12  C   UNL     2     -11.848  14.533  67.402  1.00  0.00    -0.388 C  
HETATM   13  N   UNL     2      -8.125  15.878  68.195  1.00  0.00    -0.143 NA 
HETATM   14  C   UNL     2     -10.449  15.563  69.197  1.00  0.00    -0.232 C  
HETATM   15  N   UNL     2     -11.557  14.824  68.742  1.00  0.00    -0.305 N  
HETATM   16  H   UNL     2      -7.557  15.994  69.035  1.00  0.00     0.000 HD 
HETATM   17  C   UNL     2      -7.680  15.870  66.916  1.00  0.00    -0.233 A  
HETATM   18  O   UNL     2     -10.412  15.957  70.363  1.00  0.00    -0.257 OA 
ENDROOT
BRANCH   2  19
HETATM   19  C   UNL     1      -9.793  11.493  66.265  1.00  0.00    -0.217 C  
BRANCH  19  20
HETATM   20  C   UNL     1      -9.604  10.049  66.743  1.00  0.00    -0.181 C  
HETATM   21  O   UNL     1     -10.830   9.475  67.186  1.00  0.00    -0.230 OA 
HETATM   22  H   UNL     1     -10.714   8.580  67.483  1.00  0.00     0.000 HD 
ENDBRANCH  19  20
ENDBRANCH   2  19
TORSDOF 2
ENDMDL
MODEL      108
REMARK 921   NORMALIZED FREE ENERGY PREDICTED BY IDOCK:   -3.03 KCAL/MOL
REMARK 922        TOTAL FREE ENERGY PREDICTED BY IDOCK:   -3.89 KCAL/MOL
REMARK 923 INTER-LIGAND FREE ENERGY PREDICTED BY IDOCK:   -3.66 KCAL/MOL
REMARK 924 INTRA-LIGAND FREE ENERGY PREDICTED BY IDOCK:   -0.23 KCAL/MOL
REMARK 927      BINDING AFFINITY PREDICTED BY RF-SCORE:    0.00 PKD
ROOT
HETATM    1  C   UNL     1     -11.288   5.356  72.742  1.00  0.00    -0.296 C  
HETATM    2  N   UNL     1     -10.695   6.026  71.526  1.00  0.00    -0.246 N  
HETATM    3  C   UNL     2     -10.915   6.412  67.631  1.00  0.00    -0.349 C  
HETATM    4  C   UNL     1     -11.826   6.870  70.972  1.00  0.00    -0.364 C  
HETATM    5  C   UNL     1     -10.240   4.914  70.584  1.00  0.00    -0.211 C  
HETATM    6  N   UNL     2      -9.789   7.287  67.926  1.00  0.00    -0.140 N  
HETATM    7  C   UNL     2      -9.101  10.836  68.547  1.00  0.00    -0.170 C  
HETATM    8  O   UNL     2     -10.911   8.946  69.081  1.00  0.00    -0.182 OA 
HETATM    9  C   UNL     2      -8.509   6.822  67.776  1.00  0.00    -0.122 A  
HETATM   10  N   UNL     2      -8.070   5.556  67.917  1.00  0.00    -0.100 NA 
HETATM   11  C   UNL     2      -7.440   7.671  67.694  1.00  0.00    -0.104 A  
HETATM   12  C   UNL     2      -9.932   8.580  68.421  1.00  0.00    -0.187 C  
HETATM   13  N   UNL     2      -6.317   6.908  67.765  1.00  0.00    -0.046 NA 
HETATM   14  C   UNL     2      -7.617   9.098  67.640  1.00  0.00    -0.085 C  
HETATM   15  N   UNL     2      -8.869   9.460  68.171  1.00  0.00    -0.125 N  
HETATM   16  H   UNL     2      -5.353   7.244  67.743  1.00  0.00     0.000 HD 
HETATM   17  C   UNL     2      -6.719   5.620  67.869  1.00  0.00    -0.055 A  
HETATM   18  O   UNL     2      -6.844   9.973  67.244  1.00  0.00    -0.080 OA 
ENDROOT
BRANCH   2  19
HETATM   19  C   UNL     1      -9.392   6.830  71.798  1.00  0.00    -0.147 C  
BRANCH  19  20
HETATM   20  C   UNL     1      -9.575   8.278  72.267  1.00  0.00    -0.285 C  
HETATM   21  O   UNL     1      -8.395   9.051  72.065  1.00  0.00    -0.366 OA 
HETATM   22  H   UNL     1      -8.507   9.948  72.356  1.00  0.00     0.000 HD 
ENDBRANCH  19  20
ENDBRANCH   2  19
TORSDOF 2
ENDMDL
MODEL      109
REMARK 921   NORMALIZED FREE ENERGY PREDICTED BY IDOCK:   -3.00 KCAL/MOL
REMARK 922        TOTAL FREE ENERGY PREDICTED BY IDOCK:   -3.86 KCAL/MOL
REMARK 923 INTER-LIGAND FREE ENERGY PREDICTED BY IDOCK:   -3.70 KCAL/MOL
REMARK 924 INTRA-LIGAND FREE ENERGY PREDICTED BY IDOCK:   -0.16 KCAL/MOL
REMARK 927      BINDING AFFINITY PREDICTED BY RF-SCORE:    0.00 PKD
ROOT
HETATM    1  C   UNL     1      -8.729  12.798  67.785  1.00  0.00    -0.184 C  
HETATM    2  N   UNL     1      -8.642  11.298  67.636  1.00  0.00    -0.122 N  
HETATM    3  C   UNL     2      -6.306   8.162  67.915  1.00  0.00    -0.052 C  
HETATM    4  C   UNL     1      -8.308  10.800  69.028  1.00  0.00    -0.136 C  
HETATM    5  C   UNL     1      -7.551  11.017  66.604  1.00  0.00    -0.146 C  
HETATM    6  N   UNL     2      -7.549   7.536  67.487  1.00  0.00    -0.110 N  
HETATM    7  C   UNL     2     -10.475   5.868  68.938  1.00  0.00    -0.259 C  
HETATM    8  O   UNL     2      -8.816   7.912  69.383  1.00  0.00    -0.143 OA 
HETATM    9  C   UNL     2      -7.740   7.237  66.163  1.00  0.00    -0.101 A  
HETATM   10  N   UNL     2      -7.236   7.879  65.092  1.00  0.00    -0.060 NA 
HETATM   11  C   UNL     2      -8.701   6.353  65.757  1.00  0.00    -0.127 A  
HETATM   12  C   UNL     2      -8.609   7.269  68.349  1.00  0.00    -0.124 C  
HETATM   13  N   UNL     2      -8.776   6.438  64.402  1.00  0.00    -0.302 NA 
HETATM   14  C   UNL     2      -9.480   5.602  66.706  1.00  0.00    -0.141 C  
HETATM   15  N   UNL     2      -9.479   6.241  67.960  1.00  0.00    -0.117 N  
HETATM   16  H   UNL     2      -9.406   5.913  63.795  1.00  0.00     0.000 HD 
HETATM   17  C   UNL     2      -7.854   7.349  64.011  1.00  0.00    -0.120 A  
HETATM   18  O   UNL     2     -10.124   4.563  66.548  1.00  0.00    -0.225 OA 
ENDROOT
BRANCH   2  19
HETATM   19  C   UNL     1      -9.906  10.632  67.021  1.00  0.00    -0.185 C  
BRANCH  19  20
HETATM   20  C   UNL     1     -11.176  11.489  66.990  1.00  0.00    -0.300 C  
HETATM   21  O   UNL     1     -12.118  11.074  67.975  1.00  0.00    -0.744 OA 
HETATM   22  H   UNL     1     -12.905  11.604  67.955  1.00  0.00     0.000 HD 
ENDBRANCH  19  20
ENDBRANCH   2  19
TORSDOF 2
ENDMDL
MODEL      110
REMARK 921   NORMALIZED FREE ENERGY PREDICTED BY IDOCK:   -3.00 KCAL/MOL
REMARK 922        TOTAL FREE ENERGY PREDICTED BY IDOCK:   -3.86 KCAL/MOL
REMARK 923 INTER-LIGAND FREE ENERGY PREDICTED BY IDOCK:   -3.65 KCAL/MOL
REMARK 924 INTRA-LIGAND FREE ENERGY PREDICTED BY IDOCK:   -0.22 KCAL/MOL
REMARK 927      BINDING AFFINITY PREDICTED BY RF-SCORE:    0.00 PKD
ROOT
HETATM    1  C   UNL     1     -10.503   8.708  67.013  1.00  0.00    -0.284 C  
HETATM    2  N   UNL     1     -10.185   7.771  68.153  1.00  0.00    -0.196 N  
HETATM    3  C   UNL     2      -7.813   7.091  71.200  1.00  0.00    -0.099 C  
HETATM    4  C   UNL     1     -10.393   8.608  69.399  1.00  0.00    -0.218 C  
HETATM    5  C   UNL     1      -8.742   7.309  67.958  1.00  0.00    -0.127 C  
HETATM    6  N   UNL     2      -8.687   5.929  71.273  1.00  0.00    -0.132 N  
HETATM    7  C   UNL     2     -11.730   4.833  73.004  1.00  0.00    -0.096 C  
HETATM    8  O   UNL     2     -10.655   6.992  71.857  1.00  0.00    -0.212 OA 
HETATM    9  C   UNL     2      -8.282   4.737  70.732  1.00  0.00    -0.086 A  
HETATM   10  N   UNL     2      -7.464   4.545  69.680  1.00  0.00    -0.051 NA 
HETATM   11  C   UNL     2      -8.880   3.554  71.068  1.00  0.00    -0.083 A  
HETATM   12  C   UNL     2      -9.967   5.966  71.819  1.00  0.00    -0.166 C  
HETATM   13  N   UNL     2      -8.402   2.608  70.217  1.00  0.00    -0.041 NA 
HETATM   14  C   UNL     2      -9.884   3.486  72.098  1.00  0.00    -0.168 C  
HETATM   15  N   UNL     2     -10.473   4.748  72.296  1.00  0.00    -0.204 N  
HETATM   16  H   UNL     2      -8.661   1.621  70.200  1.00  0.00     0.000 HD 
HETATM   17  C   UNL     2      -7.518   3.223  69.398  1.00  0.00    -0.048 A  
HETATM   18  O   UNL     2     -10.278   2.517  72.749  1.00  0.00    -0.138 OA 
ENDROOT
BRANCH   2  19
HETATM   19  C   UNL     1     -10.997   6.445  68.149  1.00  0.00    -0.307 C  
BRANCH  19  20
HETATM   20  C   UNL     1     -10.523   5.363  67.172  1.00  0.00    -0.235 C  
HETATM   21  O   UNL     1     -11.368   5.278  66.028  1.00  0.00    -0.758 OA 
HETATM   22  H   UNL     1     -11.075   4.608  65.422  1.00  0.00     0.000 HD 
ENDBRANCH  19  20
ENDBRANCH   2  19
TORSDOF 2
ENDMDL
MODEL      111
REMARK 921   NORMALIZED FREE ENERGY PREDICTED BY IDOCK:   -2.99 KCAL/MOL
REMARK 922        TOTAL FREE ENERGY PREDICTED BY IDOCK:   -3.85 KCAL/MOL
REMARK 923 INTER-LIGAND FREE ENERGY PREDICTED BY IDOCK:   -3.43 KCAL/MOL
REMARK 924 INTRA-LIGAND FREE ENERGY PREDICTED BY IDOCK:   -0.42 KCAL/MOL
REMARK 927      BINDING AFFINITY PREDICTED BY RF-SCORE:    0.00 PKD
ROOT
HETATM    1  C   UNL     1      -6.575  16.193  68.863  1.00  0.00    -0.138 C  
HETATM    2  N   UNL     1      -7.216  14.845  68.639  1.00  0.00    -0.111 N  
HETATM    3  C   UNL     2      -7.116  11.539  66.533  1.00  0.00    -0.009 C  
HETATM    4  C   UNL     1      -6.120  13.848  68.958  1.00  0.00    -0.089 C  
HETATM    5  C   UNL     1      -7.674  14.808  67.182  1.00  0.00    -0.116 C  
HETATM    6  N   UNL     2      -8.252  11.271  67.404  1.00  0.00    -0.130 N  
HETATM    7  C   UNL     2      -8.996   9.589  70.578  1.00  0.00    -0.211 C  
HETATM    8  O   UNL     2      -7.133  11.113  69.420  1.00  0.00    -0.117 OA 
HETATM    9  C   UNL     2      -9.526  11.486  66.947  1.00  0.00    -0.182 A  
HETATM   10  N   UNL     2      -9.934  12.394  66.040  1.00  0.00    -0.252 NA 
HETATM   11  C   UNL     2     -10.614  10.935  67.565  1.00  0.00    -0.230 A  
HETATM   12  C   UNL     2      -8.122  10.855  68.726  1.00  0.00    -0.145 C  
HETATM   13  N   UNL     2     -11.718  11.501  67.011  1.00  0.00    -0.550 NA 
HETATM   14  C   UNL     2     -10.469  10.004  68.653  1.00  0.00    -0.204 C  
HETATM   15  N   UNL     2      -9.210  10.153  69.264  1.00  0.00    -0.198 N  
HETATM   16  H   UNL     2     -12.689  11.311  67.262  1.00  0.00     0.000 HD 
HETATM   17  C   UNL     2     -11.286  12.366  66.062  1.00  0.00    -0.353 A  
HETATM   18  O   UNL     2     -11.271   9.180  69.097  1.00  0.00    -0.017 OA 
ENDROOT
BRANCH   2  19
HETATM   19  C   UNL     1      -8.528  14.608  69.440  1.00  0.00     0.103 C  
BRANCH  19  20
HETATM   20  C   UNL     1      -9.827  15.054  68.759  1.00  0.00    -0.233 C  
HETATM   21  O   UNL     1     -10.794  14.007  68.730  1.00  0.00    -0.250 OA 
HETATM   22  H   UNL     1     -11.599  14.282  68.308  1.00  0.00     0.000 HD 
ENDBRANCH  19  20
ENDBRANCH   2  19
TORSDOF 2
ENDMDL
MODEL      112
REMARK 921   NORMALIZED FREE ENERGY PREDICTED BY IDOCK:   -2.99 KCAL/MOL
REMARK 922        TOTAL FREE ENERGY PREDICTED BY IDOCK:   -3.84 KCAL/MOL
REMARK 923 INTER-LIGAND FREE ENERGY PREDICTED BY IDOCK:   -3.69 KCAL/MOL
REMARK 924 INTRA-LIGAND FREE ENERGY PREDICTED BY IDOCK:   -0.16 KCAL/MOL
REMARK 927      BINDING AFFINITY PREDICTED BY RF-SCORE:    0.00 PKD
ROOT
HETATM    1  C   UNL     1     -11.124   8.752  71.906  1.00  0.00    -0.364 C  
HETATM    2  N   UNL     1     -10.217   8.842  70.703  1.00  0.00    -0.193 N  
HETATM    3  C   UNL     2      -7.538  11.017  68.843  1.00  0.00    -0.134 C  
HETATM    4  C   UNL     1      -8.818   8.875  71.287  1.00  0.00    -0.231 C  
HETATM    5  C   UNL     1     -10.600  10.116  69.953  1.00  0.00    -0.285 C  
HETATM    6  N   UNL     2      -7.634   9.878  67.941  1.00  0.00    -0.089 N  
HETATM    7  C   UNL     2      -5.946   6.688  67.286  1.00  0.00    -0.017 C  
HETATM    8  O   UNL     2      -6.716   8.255  69.307  1.00  0.00    -0.042 OA 
HETATM    9  C   UNL     2      -8.427   9.957  66.826  1.00  0.00    -0.125 A  
HETATM   10  N   UNL     2      -9.551  10.682  66.664  1.00  0.00    -0.171 NA 
HETATM   11  C   UNL     2      -8.290   9.085  65.782  1.00  0.00    -0.128 A  
HETATM   12  C   UNL     2      -7.004   8.659  68.175  1.00  0.00    -0.074 C  
HETATM   13  N   UNL     2      -9.343   9.292  64.947  1.00  0.00    -0.448 NA 
HETATM   14  C   UNL     2      -7.227   8.115  65.748  1.00  0.00    -0.068 C  
HETATM   15  N   UNL     2      -6.743   7.870  67.047  1.00  0.00    -0.066 N  
HETATM   16  H   UNL     2      -9.537   8.790  64.080  1.00  0.00     0.000 HD 
HETATM   17  C   UNL     2     -10.084  10.289  65.484  1.00  0.00    -0.281 A  
HETATM   18  O   UNL     2      -6.754   7.500  64.792  1.00  0.00    -0.046 OA 
ENDROOT
BRANCH   2  19
HETATM   19  C   UNL     1     -10.426   7.720  69.646  1.00  0.00    -0.229 C  
BRANCH  19  20
HETATM   20  C   UNL     1     -11.358   6.573  70.052  1.00  0.00    -0.410 C  
HETATM   21  O   UNL     1     -10.649   5.347  70.213  1.00  0.00    -0.285 OA 
HETATM   22  H   UNL     1     -11.227   4.636  70.463  1.00  0.00     0.000 HD 
ENDBRANCH  19  20
ENDBRANCH   2  19
TORSDOF 2
ENDMDL
MODEL      113
REMARK 921   NORMALIZED FREE ENERGY PREDICTED BY IDOCK:   -2.98 KCAL/MOL
REMARK 922        TOTAL FREE ENERGY PREDICTED BY IDOCK:   -3.84 KCAL/MOL
REMARK 923 INTER-LIGAND FREE ENERGY PREDICTED BY IDOCK:   -3.66 KCAL/MOL
REMARK 924 INTRA-LIGAND FREE ENERGY PREDICTED BY IDOCK:   -0.18 KCAL/MOL
REMARK 927      BINDING AFFINITY PREDICTED BY RF-SCORE:    0.00 PKD
ROOT
HETATM    1  C   UNL     1     -11.610  13.997  66.807  1.00  0.00    -0.386 C  
HETATM    2  N   UNL     1     -10.748  12.806  67.152  1.00  0.00    -0.243 N  
HETATM    3  C   UNL     2      -9.860  10.163  69.909  1.00  0.00    -0.177 C  
HETATM    4  C   UNL     1     -11.737  11.680  67.383  1.00  0.00    -0.201 C  
HETATM    5  C   UNL     1      -9.946  13.184  68.396  1.00  0.00    -0.223 C  
HETATM    6  N   UNL     2      -8.946   9.764  68.847  1.00  0.00    -0.138 N  
HETATM    7  C   UNL     2      -8.773   7.377  66.068  1.00  0.00    -0.153 C  
HETATM    8  O   UNL     2     -10.492   9.004  67.306  1.00  0.00    -0.261 OA 
HETATM    9  C   UNL     2      -7.643  10.187  68.876  1.00  0.00    -0.090 A  
HETATM   10  N   UNL     2      -7.158  11.328  69.402  1.00  0.00    -0.114 NA 
HETATM   11  C   UNL     2      -6.673   9.578  68.129  1.00  0.00    -0.062 A  
HETATM   12  C   UNL     2      -9.336   9.011  67.743  1.00  0.00    -0.140 C  
HETATM   13  N   UNL     2      -5.558  10.351  68.214  1.00  0.00    -0.037 NA 
HETATM   14  C   UNL     2      -6.947   8.388  67.367  1.00  0.00    -0.071 C  
HETATM   15  N   UNL     2      -8.326   8.277  67.106  1.00  0.00    -0.122 N  
HETATM   16  H   UNL     2      -4.662  10.176  67.758  1.00  0.00     0.000 HD 
HETATM   17  C   UNL     2      -5.862  11.397  69.018  1.00  0.00    -0.048 A  
HETATM   18  O   UNL     2      -6.170   7.540  66.924  1.00  0.00    -0.045 OA 
ENDROOT
BRANCH   2  19
HETATM   19  C   UNL     1      -9.654  12.469  66.101  1.00  0.00    -0.228 C  
BRANCH  19  20
HETATM   20  C   UNL     1     -10.130  11.747  64.835  1.00  0.00    -0.259 C  
HETATM   21  O   UNL     1      -9.597  12.342  63.655  1.00  0.00    -0.659 OA 
HETATM   22  H   UNL     1      -9.892  11.895  62.871  1.00  0.00     0.000 HD 
ENDBRANCH  19  20
ENDBRANCH   2  19
TORSDOF 2
ENDMDL
MODEL      114
REMARK 921   NORMALIZED FREE ENERGY PREDICTED BY IDOCK:   -2.97 KCAL/MOL
REMARK 922        TOTAL FREE ENERGY PREDICTED BY IDOCK:   -3.83 KCAL/MOL
REMARK 923 INTER-LIGAND FREE ENERGY PREDICTED BY IDOCK:   -3.49 KCAL/MOL
REMARK 924 INTRA-LIGAND FREE ENERGY PREDICTED BY IDOCK:   -0.34 KCAL/MOL
REMARK 927      BINDING AFFINITY PREDICTED BY RF-SCORE:    0.00 PKD
ROOT
HETATM    1  C   UNL     1      -6.062   7.098  74.192  1.00  0.00    -0.073 C  
HETATM    2  N   UNL     1      -6.915   7.172  72.949  1.00  0.00    -0.068 N  
HETATM    3  C   UNL     2      -8.507   9.551  70.270  1.00  0.00    -0.207 C  
HETATM    4  C   UNL     1      -5.993   7.749  71.893  1.00  0.00    -0.035 C  
HETATM    5  C   UNL     1      -8.106   8.069  73.280  1.00  0.00    -0.186 C  
HETATM    6  N   UNL     2      -8.990   8.259  69.804  1.00  0.00    -0.145 N  
HETATM    7  C   UNL     2      -8.085   5.647  67.394  1.00  0.00    -0.102 C  
HETATM    8  O   UNL     2      -6.977   7.338  69.138  1.00  0.00    -0.069 OA 
HETATM    9  C   UNL     2     -10.252   7.843  70.139  1.00  0.00    -0.202 A  
HETATM   10  N   UNL     2     -10.953   8.146  71.249  1.00  0.00    -0.235 NA 
HETATM   11  C   UNL     2     -10.880   6.834  69.463  1.00  0.00    -0.273 A  
HETATM   12  C   UNL     2      -8.210   7.368  69.071  1.00  0.00    -0.128 C  
HETATM   13  N   UNL     2     -12.004   6.523  70.160  1.00  0.00    -0.549 NA 
HETATM   14  C   UNL     2     -10.296   6.240  68.288  1.00  0.00    -0.194 C  
HETATM   15  N   UNL     2      -8.905   6.453  68.268  1.00  0.00    -0.116 N  
HETATM   16  H   UNL     2     -12.686   5.801  69.923  1.00  0.00     0.000 HD 
HETATM   17  C   UNL     2     -12.049   7.353  71.229  1.00  0.00    -0.328 A  
HETATM   18  O   UNL     2     -10.829   5.588  67.389  1.00  0.00    -0.205 OA 
ENDROOT
BRANCH   2  19
HETATM   19  C   UNL     1      -7.576   5.827  72.533  1.00  0.00    -0.101 C  
BRANCH  19  20
HETATM   20  C   UNL     1      -8.806   5.398  73.340  1.00  0.00    -0.113 C  
HETATM   21  O   UNL     1      -9.986   5.388  72.540  1.00  0.00    -0.163 OA 
HETATM   22  H   UNL     1     -10.748   5.123  73.041  1.00  0.00     0.000 HD 
ENDBRANCH  19  20
ENDBRANCH   2  19
TORSDOF 2
ENDMDL
MODEL      115
REMARK 921   NORMALIZED FREE ENERGY PREDICTED BY IDOCK:   -2.94 KCAL/MOL
REMARK 922        TOTAL FREE ENERGY PREDICTED BY IDOCK:   -3.79 KCAL/MOL
REMARK 923 INTER-LIGAND FREE ENERGY PREDICTED BY IDOCK:   -3.32 KCAL/MOL
REMARK 924 INTRA-LIGAND FREE ENERGY PREDICTED BY IDOCK:   -0.48 KCAL/MOL
REMARK 927      BINDING AFFINITY PREDICTED BY RF-SCORE:    0.00 PKD
ROOT
HETATM    1  C   UNL     1      -8.833  10.405  68.164  1.00  0.00    -0.132 C  
HETATM    2  N   UNL     1      -8.672   8.906  68.076  1.00  0.00    -0.133 N  
HETATM    3  C   UNL     2      -6.169   5.972  67.369  1.00  0.00    -0.033 C  
HETATM    4  C   UNL     1      -7.666   8.571  69.160  1.00  0.00    -0.091 C  
HETATM    5  C   UNL     1      -8.179   8.596  66.664  1.00  0.00    -0.107 C  
HETATM    6  N   UNL     2      -7.393   5.227  67.629  1.00  0.00    -0.075 N  
HETATM    7  C   UNL     2      -9.087   3.524  70.401  1.00  0.00    -0.127 C  
HETATM    8  O   UNL     2      -7.639   5.706  69.876  1.00  0.00    -0.072 OA 
HETATM    9  C   UNL     2      -8.157   4.786  66.580  1.00  0.00    -0.107 A  
HETATM   10  N   UNL     2      -8.293   5.351  65.364  1.00  0.00    -0.133 NA 
HETATM   11  C   UNL     2      -9.098   3.806  66.737  1.00  0.00    -0.159 A  
HETATM   12  C   UNL     2      -7.882   4.978  68.908  1.00  0.00    -0.077 C  
HETATM   13  N   UNL     2      -9.815   3.751  65.584  1.00  0.00    -0.354 NA 
HETATM   14  C   UNL     2      -9.249   3.103  67.984  1.00  0.00    -0.198 C  
HETATM   15  N   UNL     2      -8.720   3.863  69.044  1.00  0.00    -0.087 N  
HETATM   16  H   UNL     2     -10.599   3.129  65.386  1.00  0.00     0.000 HD 
HETATM   17  C   UNL     2      -9.291   4.677  64.747  1.00  0.00    -0.105 A  
HETATM   18  O   UNL     2      -9.778   2.015  68.215  1.00  0.00    -0.167 OA 
ENDROOT
BRANCH   2  19
HETATM   19  C   UNL     1      -9.998   8.102  68.184  1.00  0.00    -0.186 C  
BRANCH  19  20
HETATM   20  C   UNL     1     -10.550   7.526  66.875  1.00  0.00    -0.297 C  
HETATM   21  O   UNL     1     -11.342   6.363  67.102  1.00  0.00    -0.677 OA 
HETATM   22  H   UNL     1     -11.684   6.006  66.291  1.00  0.00     0.000 HD 
ENDBRANCH  19  20
ENDBRANCH   2  19
TORSDOF 2
ENDMDL
MODEL      116
REMARK 921   NORMALIZED FREE ENERGY PREDICTED BY IDOCK:   -2.94 KCAL/MOL
REMARK 922        TOTAL FREE ENERGY PREDICTED BY IDOCK:   -3.79 KCAL/MOL
REMARK 923 INTER-LIGAND FREE ENERGY PREDICTED BY IDOCK:   -3.64 KCAL/MOL
REMARK 924 INTRA-LIGAND FREE ENERGY PREDICTED BY IDOCK:   -0.15 KCAL/MOL
REMARK 927      BINDING AFFINITY PREDICTED BY RF-SCORE:    0.00 PKD
ROOT
HETATM    1  C   UNL     1     -11.022  10.763  68.097  1.00  0.00    -0.257 C  
HETATM    2  N   UNL     1     -10.382   9.758  69.023  1.00  0.00    -0.199 N  
HETATM    3  C   UNL     2      -7.459   7.181  69.459  1.00  0.00    -0.095 C  
HETATM    4  C   UNL     1      -8.996  10.314  69.283  1.00  0.00    -0.179 C  
HETATM    5  C   UNL     1     -10.379   8.418  68.291  1.00  0.00    -0.199 C  
HETATM    6  N   UNL     2      -8.143   7.033  70.736  1.00  0.00    -0.112 N  
HETATM    7  C   UNL     2      -7.945   8.304  74.171  1.00  0.00    -0.222 C  
HETATM    8  O   UNL     2      -7.682   9.110  71.638  1.00  0.00    -0.338 OA 
HETATM    9  C   UNL     2      -9.033   6.006  70.916  1.00  0.00    -0.143 A  
HETATM   10  N   UNL     2      -9.806   5.413  69.986  1.00  0.00    -0.189 NA 
HETATM   11  C   UNL     2      -9.429   5.608  72.162  1.00  0.00    -0.149 A  
HETATM   12  C   UNL     2      -7.993   7.924  71.794  1.00  0.00    -0.104 C  
HETATM   13  N   UNL     2     -10.455   4.732  71.995  1.00  0.00    -0.187 NA 
HETATM   14  C   UNL     2      -8.840   6.166  73.352  1.00  0.00    -0.125 C  
HETATM   15  N   UNL     2      -8.260   7.417  73.073  1.00  0.00    -0.108 N  
HETATM   16  H   UNL     2     -10.979   4.263  72.735  1.00  0.00     0.000 HD 
HETATM   17  C   UNL     2     -10.651   4.602  70.662  1.00  0.00     0.245 A  
HETATM   18  O   UNL     2      -8.818   5.722  74.501  1.00  0.00    -0.120 OA 
ENDROOT
BRANCH   2  19
HETATM   19  C   UNL     1     -11.189   9.463  70.320  1.00  0.00    -0.246 C  
BRANCH  19  20
HETATM   20  C   UNL     1     -12.372  10.395  70.608  1.00  0.00    -0.346 C  
HETATM   21  O   UNL     1     -13.566   9.665  70.875  1.00  0.00    -0.570 OA 
HETATM   22  H   UNL     1     -14.299  10.241  71.053  1.00  0.00     0.000 HD 
ENDBRANCH  19  20
ENDBRANCH   2  19
TORSDOF 2
ENDMDL
MODEL      117
REMARK 921   NORMALIZED FREE ENERGY PREDICTED BY IDOCK:   -2.93 KCAL/MOL
REMARK 922        TOTAL FREE ENERGY PREDICTED BY IDOCK:   -3.77 KCAL/MOL
REMARK 923 INTER-LIGAND FREE ENERGY PREDICTED BY IDOCK:   -3.34 KCAL/MOL
REMARK 924 INTRA-LIGAND FREE ENERGY PREDICTED BY IDOCK:   -0.44 KCAL/MOL
REMARK 927      BINDING AFFINITY PREDICTED BY RF-SCORE:    0.00 PKD
ROOT
HETATM    1  C   UNL     1      -8.426  10.955  67.821  1.00  0.00    -0.124 C  
HETATM    2  N   UNL     1      -8.797   9.539  68.189  1.00  0.00    -0.124 N  
HETATM    3  C   UNL     2     -11.053   6.462  67.288  1.00  0.00    -0.330 C  
HETATM    4  C   UNL     1      -8.406   8.720  66.975  1.00  0.00    -0.103 C  
HETATM    5  C   UNL     1     -10.297   9.534  68.477  1.00  0.00    -0.207 C  
HETATM    6  N   UNL     2     -10.337   5.942  68.445  1.00  0.00    -0.189 N  
HETATM    7  C   UNL     2      -7.369   3.930  69.215  1.00  0.00    -0.053 C  
HETATM    8  O   UNL     2      -8.215   5.826  67.535  1.00  0.00    -0.102 OA 
HETATM    9  C   UNL     2     -10.927   5.974  69.681  1.00  0.00    -0.400 A  
HETATM   10  N   UNL     2     -11.825   6.866  70.144  1.00  0.00    -0.265 NA 
HETATM   11  C   UNL     2     -10.472   5.204  70.716  1.00  0.00    -0.193 A  
HETATM   12  C   UNL     2      -9.033   5.458  68.385  1.00  0.00    -0.108 C  
HETATM   13  N   UNL     2     -11.120   5.616  71.837  1.00  0.00    -0.243 NA 
HETATM   14  C   UNL     2      -9.427   4.232  70.525  1.00  0.00    -0.174 C  
HETATM   15  N   UNL     2      -8.666   4.545  69.383  1.00  0.00    -0.084 N  
HETATM   16  H   UNL     2     -10.995   5.247  72.780  1.00  0.00     0.000 HD 
HETATM   17  C   UNL     2     -11.963   6.608  71.465  1.00  0.00    -0.352 A  
HETATM   18  O   UNL     2      -9.126   3.255  71.213  1.00  0.00    -0.090 OA 
ENDROOT
BRANCH   2  19
HETATM   19  C   UNL     1      -8.169   9.026  69.516  1.00  0.00    -0.114 C  
BRANCH  19  20
HETATM   20  C   UNL     1      -6.662   8.744  69.487  1.00  0.00    -0.047 C  
HETATM   21  O   UNL     1      -6.386   7.347  69.535  1.00  0.00    -0.034 OA 
HETATM   22  H   UNL     1      -5.453   7.172  69.518  1.00  0.00     0.000 HD 
ENDBRANCH  19  20
ENDBRANCH   2  19
TORSDOF 2
ENDMDL
MODEL      118
REMARK 921   NORMALIZED FREE ENERGY PREDICTED BY IDOCK:   -2.92 KCAL/MOL
REMARK 922        TOTAL FREE ENERGY PREDICTED BY IDOCK:   -3.77 KCAL/MOL
REMARK 923 INTER-LIGAND FREE ENERGY PREDICTED BY IDOCK:   -3.64 KCAL/MOL
REMARK 924 INTRA-LIGAND FREE ENERGY PREDICTED BY IDOCK:   -0.13 KCAL/MOL
REMARK 927      BINDING AFFINITY PREDICTED BY RF-SCORE:    0.00 PKD
ROOT
HETATM    1  C   UNL     1      -8.318   4.310  68.218  1.00  0.00    -0.092 C  
HETATM    2  N   UNL     1      -8.411   5.803  68.422  1.00  0.00    -0.110 N  
HETATM    3  C   UNL     2      -7.151   8.850  70.543  1.00  0.00    -0.064 C  
HETATM    4  C   UNL     1      -7.009   6.309  68.149  1.00  0.00    -0.080 C  
HETATM    5  C   UNL     1      -8.876   6.026  69.859  1.00  0.00    -0.138 C  
HETATM    6  N   UNL     2      -8.068   9.518  69.629  1.00  0.00    -0.113 N  
HETATM    7  C   UNL     2      -8.003  11.320  66.435  1.00  0.00    -0.125 C  
HETATM    8  O   UNL     2      -6.896   9.219  67.658  1.00  0.00    -0.074 OA 
HETATM    9  C   UNL     2      -9.345   9.804  70.035  1.00  0.00    -0.235 A  
HETATM   10  N   UNL     2     -10.099   9.126  70.921  1.00  0.00    -0.263 NA 
HETATM   11  C   UNL     2     -10.121  10.717  69.377  1.00  0.00    -0.139 A  
HETATM   12  C   UNL     2      -7.741   9.839  68.314  1.00  0.00    -0.085 C  
HETATM   13  N   UNL     2     -11.377  10.615  69.885  1.00  0.00    -0.290 NA 
HETATM   14  C   UNL     2      -9.594  11.513  68.299  1.00  0.00    -0.189 C  
HETATM   15  N   UNL     2      -8.462  10.893  67.737  1.00  0.00    -0.122 N  
HETATM   16  H   UNL     2     -12.194  11.155  69.597  1.00  0.00     0.000 HD 
HETATM   17  C   UNL     2     -11.339   9.663  70.846  1.00  0.00    -0.360 A  
HETATM   18  O   UNL     2     -10.009  12.573  67.828  1.00  0.00    -0.200 OA 
ENDROOT
BRANCH   2  19
HETATM   19  C   UNL     1      -9.505   6.508  67.571  1.00  0.00    -0.125 C  
BRANCH  19  20
HETATM   20  C   UNL     1     -10.831   5.754  67.412  1.00  0.00    -0.185 C  
HETATM   21  O   UNL     1     -11.382   5.924  66.109  1.00  0.00    -0.656 OA 
HETATM   22  H   UNL     1     -12.203   5.458  66.011  1.00  0.00     0.000 HD 
ENDBRANCH  19  20
ENDBRANCH   2  19
TORSDOF 2
ENDMDL
MODEL      119
REMARK 921   NORMALIZED FREE ENERGY PREDICTED BY IDOCK:   -2.92 KCAL/MOL
REMARK 922        TOTAL FREE ENERGY PREDICTED BY IDOCK:   -3.77 KCAL/MOL
REMARK 923 INTER-LIGAND FREE ENERGY PREDICTED BY IDOCK:   -3.62 KCAL/MOL
REMARK 924 INTRA-LIGAND FREE ENERGY PREDICTED BY IDOCK:   -0.16 KCAL/MOL
REMARK 927      BINDING AFFINITY PREDICTED BY RF-SCORE:    0.00 PKD
ROOT
HETATM    1  C   UNL     1      -9.894   6.773  72.713  1.00  0.00    -0.166 C  
HETATM    2  N   UNL     1      -9.417   7.305  71.384  1.00  0.00    -0.160 N  
HETATM    3  C   UNL     2      -6.391   8.861  69.435  1.00  0.00    -0.044 C  
HETATM    4  C   UNL     1      -8.289   6.373  70.988  1.00  0.00    -0.123 C  
HETATM    5  C   UNL     1      -8.969   8.747  71.618  1.00  0.00    -0.231 C  
HETATM    6  N   UNL     2      -7.402   8.833  68.387  1.00  0.00    -0.085 N  
HETATM    7  C   UNL     2      -8.484   6.693  65.612  1.00  0.00    -0.144 C  
HETATM    8  O   UNL     2      -7.588   6.544  68.124  1.00  0.00    -0.099 OA 
HETATM    9  C   UNL     2      -8.123   9.964  68.107  1.00  0.00    -0.104 A  
HETATM   10  N   UNL     2      -8.463  10.956  68.953  1.00  0.00    -0.156 NA 
HETATM   11  C   UNL     2      -8.814  10.105  66.936  1.00  0.00    -0.132 A  
HETATM   12  C   UNL     2      -7.733   7.686  67.673  1.00  0.00    -0.122 C  
HETATM   13  N   UNL     2      -9.581  11.221  67.055  1.00  0.00    -0.177 NA 
HETATM   14  C   UNL     2      -8.720   9.124  65.886  1.00  0.00    -0.158 C  
HETATM   15  N   UNL     2      -8.296   7.887  66.405  1.00  0.00    -0.123 N  
HETATM   16  H   UNL     2     -10.223  11.594  66.355  1.00  0.00     0.000 HD 
HETATM   17  C   UNL     2      -9.332  11.744  68.278  1.00  0.00    -0.193 A  
HETATM   18  O   UNL     2      -8.982   9.229  64.686  1.00  0.00    -0.206 OA 
ENDROOT
BRANCH   2  19
HETATM   19  C   UNL     1     -10.525   7.439  70.301  1.00  0.00    -0.221 C  
BRANCH  19  20
HETATM   20  C   UNL     1     -11.711   6.476  70.423  1.00  0.00    -0.375 C  
HETATM   21  O   UNL     1     -12.939   7.173  70.614  1.00  0.00    -0.597 OA 
HETATM   22  H   UNL     1     -13.674   6.576  70.690  1.00  0.00     0.000 HD 
ENDBRANCH  19  20
ENDBRANCH   2  19
TORSDOF 2
ENDMDL
MODEL      120
REMARK 921   NORMALIZED FREE ENERGY PREDICTED BY IDOCK:   -2.92 KCAL/MOL
REMARK 922        TOTAL FREE ENERGY PREDICTED BY IDOCK:   -3.76 KCAL/MOL
REMARK 923 INTER-LIGAND FREE ENERGY PREDICTED BY IDOCK:   -3.43 KCAL/MOL
REMARK 924 INTRA-LIGAND FREE ENERGY PREDICTED BY IDOCK:   -0.34 KCAL/MOL
REMARK 927      BINDING AFFINITY PREDICTED BY RF-SCORE:    0.00 PKD
ROOT
HETATM    1  C   UNL     1      -5.563  10.297  67.244  1.00  0.00    -0.041 C  
HETATM    2  N   UNL     1      -6.847   9.744  67.812  1.00  0.00    -0.080 N  
HETATM    3  C   UNL     2     -10.433   8.407  66.961  1.00  0.00    -0.305 C  
HETATM    4  C   UNL     1      -6.950   8.351  67.222  1.00  0.00    -0.075 C  
HETATM    5  C   UNL     1      -7.968  10.682  67.370  1.00  0.00    -0.111 C  
HETATM    6  N   UNL     2     -10.440   8.295  68.413  1.00  0.00    -0.193 N  
HETATM    7  C   UNL     2      -9.794   5.799  71.021  1.00  0.00    -0.178 C  
HETATM    8  O   UNL     2      -8.866   6.620  68.655  1.00  0.00    -0.124 OA 
HETATM    9  C   UNL     2     -11.021   9.280  69.169  1.00  0.00    -0.060 A  
HETATM   10  N   UNL     2     -11.124  10.591  68.876  1.00  0.00    -0.245 NA 
HETATM   11  C   UNL     2     -11.368   9.074  70.475  1.00  0.00    -0.243 A  
HETATM   12  C   UNL     2      -9.827   7.254  69.105  1.00  0.00    -0.166 C  
HETATM   13  N   UNL     2     -11.714  10.282  70.993  1.00  0.00    -0.369 NA 
HETATM   14  C   UNL     2     -11.253   7.775  71.087  1.00  0.00    -0.264 C  
HETATM   15  N   UNL     2     -10.329   6.980  70.384  1.00  0.00    -0.200 N  
HETATM   16  H   UNL     2     -12.012  10.469  71.951  1.00  0.00     0.000 HD 
HETATM   17  C   UNL     2     -11.589  11.190  69.997  1.00  0.00    -0.338 A  
HETATM   18  O   UNL     2     -11.803   7.330  72.096  1.00  0.00    -0.288 OA 
ENDROOT
BRANCH   2  19
HETATM   19  C   UNL     1      -6.938   9.773  69.364  1.00  0.00    -0.059 C  
BRANCH  19  20
HETATM   20  C   UNL     1      -6.323   8.577  70.101  1.00  0.00    -0.038 C  
HETATM   21  O   UNL     1      -7.205   8.058  71.092  1.00  0.00    -0.052 OA 
HETATM   22  H   UNL     1      -6.824   7.317  71.549  1.00  0.00     0.000 HD 
ENDBRANCH  19  20
ENDBRANCH   2  19
TORSDOF 2
ENDMDL
MODEL      121
REMARK 921   NORMALIZED FREE ENERGY PREDICTED BY IDOCK:   -2.91 KCAL/MOL
REMARK 922        TOTAL FREE ENERGY PREDICTED BY IDOCK:   -3.76 KCAL/MOL
REMARK 923 INTER-LIGAND FREE ENERGY PREDICTED BY IDOCK:   -3.37 KCAL/MOL
REMARK 924 INTRA-LIGAND FREE ENERGY PREDICTED BY IDOCK:   -0.38 KCAL/MOL
REMARK 927      BINDING AFFINITY PREDICTED BY RF-SCORE:    0.00 PKD
ROOT
HETATM    1  C   UNL     1      -8.960  10.924  65.313  1.00  0.00    -0.186 C  
HETATM    2  N   UNL     1      -8.806   9.639  66.091  1.00  0.00    -0.145 N  
HETATM    3  C   UNL     2      -6.305   6.842  67.228  1.00  0.00    -0.048 C  
HETATM    4  C   UNL     1      -7.831   9.984  67.199  1.00  0.00    -0.099 C  
HETATM    5  C   UNL     1      -8.279   8.590  65.114  1.00  0.00    -0.152 C  
HETATM    6  N   UNL     2      -7.540   6.363  67.833  1.00  0.00    -0.100 N  
HETATM    7  C   UNL     2      -9.315   6.509  71.040  1.00  0.00    -0.160 C  
HETATM    8  O   UNL     2      -7.841   8.027  69.410  1.00  0.00    -0.108 OA 
HETATM    9  C   UNL     2      -8.280   5.400  67.199  1.00  0.00    -0.104 A  
HETATM   10  N   UNL     2      -8.380   5.177  65.874  1.00  0.00    -0.115 NA 
HETATM   11  C   UNL     2      -9.230   4.671  67.859  1.00  0.00    -0.127 A  
HETATM   12  C   UNL     2      -8.063   6.876  69.017  1.00  0.00    -0.117 C  
HETATM   13  N   UNL     2      -9.918   3.967  66.921  1.00  0.00    -0.308 NA 
HETATM   14  C   UNL     2      -9.418   4.795  69.281  1.00  0.00    -0.153 C  
HETATM   15  N   UNL     2      -8.911   6.025  69.739  1.00  0.00    -0.132 N  
HETATM   16  H   UNL     2     -10.701   3.335  67.090  1.00  0.00     0.000 HD 
HETATM   17  C   UNL     2      -9.367   4.264  65.721  1.00  0.00    -0.164 A  
HETATM   18  O   UNL     2      -9.960   4.022  70.073  1.00  0.00    -0.190 OA 
ENDROOT
BRANCH   2  19
HETATM   19  C   UNL     1     -10.140   9.024  66.602  1.00  0.00    -0.285 C  
BRANCH  19  20
HETATM   20  C   UNL     1     -10.760   9.686  67.839  1.00  0.00    -0.247 C  
HETATM   21  O   UNL     1     -11.004   8.740  68.877  1.00  0.00    -0.434 OA 
HETATM   22  H   UNL     1     -11.388   9.149  69.642  1.00  0.00     0.000 HD 
ENDBRANCH  19  20
ENDBRANCH   2  19
TORSDOF 2
ENDMDL
MODEL      122
REMARK 921   NORMALIZED FREE ENERGY PREDICTED BY IDOCK:   -2.88 KCAL/MOL
REMARK 922        TOTAL FREE ENERGY PREDICTED BY IDOCK:   -3.72 KCAL/MOL
REMARK 923 INTER-LIGAND FREE ENERGY PREDICTED BY IDOCK:   -3.45 KCAL/MOL
REMARK 924 INTRA-LIGAND FREE ENERGY PREDICTED BY IDOCK:   -0.27 KCAL/MOL
REMARK 927      BINDING AFFINITY PREDICTED BY RF-SCORE:    0.00 PKD
ROOT
HETATM    1  C   UNL     1     -11.123   6.125  71.853  1.00  0.00    -0.274 C  
HETATM    2  N   UNL     1     -10.388   6.636  70.639  1.00  0.00    -0.200 N  
HETATM    3  C   UNL     2      -8.684   5.644  67.249  1.00  0.00    -0.107 C  
HETATM    4  C   UNL     1     -11.297   6.294  69.475  1.00  0.00    -0.404 C  
HETATM    5  C   UNL     1      -9.042   5.915  70.599  1.00  0.00    -0.149 C  
HETATM    6  N   UNL     2      -8.461   7.084  67.253  1.00  0.00    -0.121 N  
HETATM    7  C   UNL     2      -9.995  10.146  65.940  1.00  0.00    -0.267 C  
HETATM    8  O   UNL     2     -10.650   7.789  67.012  1.00  0.00    -0.335 OA 
HETATM    9  C   UNL     2      -7.258   7.586  67.675  1.00  0.00    -0.090 A  
HETATM   10  N   UNL     2      -6.419   7.057  68.586  1.00  0.00    -0.035 NA 
HETATM   11  C   UNL     2      -6.867   8.861  67.377  1.00  0.00    -0.070 A  
HETATM   12  C   UNL     2      -9.439   8.011  66.903  1.00  0.00    -0.191 C  
HETATM   13  N   UNL     2      -5.748   9.117  68.106  1.00  0.00    -0.038 NA 
HETATM   14  C   UNL     2      -7.644   9.701  66.504  1.00  0.00    -0.098 C  
HETATM   15  N   UNL     2      -8.978   9.256  66.451  1.00  0.00    -0.147 N  
HETATM   16  H   UNL     2      -5.217   9.989  68.117  1.00  0.00     0.000 HD 
HETATM   17  C   UNL     2      -5.472   7.997  68.813  1.00  0.00    -0.027 A  
HETATM   18  O   UNL     2      -7.309  10.706  65.874  1.00  0.00    -0.144 OA 
ENDROOT
BRANCH   2  19
HETATM   19  C   UNL     1      -9.994   8.139  70.702  1.00  0.00    -0.189 C  
BRANCH  19  20
HETATM   20  C   UNL     1      -8.641   8.459  71.346  1.00  0.00    -0.164 C  
HETATM   21  O   UNL     1      -8.775   8.762  72.732  1.00  0.00    -0.398 OA 
HETATM   22  H   UNL     1      -7.937   8.961  73.132  1.00  0.00     0.000 HD 
ENDBRANCH  19  20
ENDBRANCH   2  19
TORSDOF 2
ENDMDL
MODEL      123
REMARK 921   NORMALIZED FREE ENERGY PREDICTED BY IDOCK:   -2.87 KCAL/MOL
REMARK 922        TOTAL FREE ENERGY PREDICTED BY IDOCK:   -3.72 KCAL/MOL
REMARK 923 INTER-LIGAND FREE ENERGY PREDICTED BY IDOCK:   -3.45 KCAL/MOL
REMARK 924 INTRA-LIGAND FREE ENERGY PREDICTED BY IDOCK:   -0.26 KCAL/MOL
REMARK 927      BINDING AFFINITY PREDICTED BY RF-SCORE:    0.00 PKD
ROOT
HETATM    1  C   UNL     1     -11.814  11.982  64.803  1.00  0.00    -0.254 C  
HETATM    2  N   UNL     1     -10.611  11.693  65.668  1.00  0.00    -0.267 N  
HETATM    3  C   UNL     2      -6.881  10.484  65.700  1.00  0.00    -0.112 C  
HETATM    4  C   UNL     1      -9.557  12.670  65.187  1.00  0.00     0.117 C  
HETATM    5  C   UNL     1     -10.241  10.229  65.438  1.00  0.00    -0.242 C  
HETATM    6  N   UNL     2      -7.105  10.709  67.122  1.00  0.00    -0.089 N  
HETATM    7  C   UNL     2      -6.601  13.323  69.645  1.00  0.00     0.002 C  
HETATM    8  O   UNL     2      -7.327  13.009  67.094  1.00  0.00    -0.096 OA 
HETATM    9  C   UNL     2      -7.422   9.653  67.936  1.00  0.00    -0.083 A  
HETATM   10  N   UNL     2      -8.088   8.529  67.608  1.00  0.00    -0.107 NA 
HETATM   11  C   UNL     2      -7.298   9.731  69.296  1.00  0.00    -0.082 A  
HETATM   12  C   UNL     2      -7.076  11.969  67.712  1.00  0.00    -0.108 C  
HETATM   13  N   UNL     2      -7.882   8.620  69.816  1.00  0.00    -0.091 NA 
HETATM   14  C   UNL     2      -6.715  10.884  69.932  1.00  0.00    -0.147 C  
HETATM   15  N   UNL     2      -6.787  12.004  69.083  1.00  0.00    -0.104 N  
HETATM   16  H   UNL     2      -7.966   8.385  70.805  1.00  0.00     0.000 HD 
HETATM   17  C   UNL     2      -8.330   7.883  68.772  1.00  0.00    -0.128 A  
HETATM   18  O   UNL     2      -6.229  10.999  71.058  1.00  0.00    -0.356 OA 
ENDROOT
BRANCH   2  19
HETATM   19  C   UNL     1     -10.878  11.766  67.198  1.00  0.00    -0.258 C  
BRANCH  19  20
HETATM   20  C   UNL     1     -11.217  10.441  67.891  1.00  0.00    -0.263 C  
HETATM   21  O   UNL     1     -12.389  10.550  68.695  1.00  0.00    -0.785 OA 
HETATM   22  H   UNL     1     -12.599   9.730  69.124  1.00  0.00     0.000 HD 
ENDBRANCH  19  20
ENDBRANCH   2  19
TORSDOF 2
ENDMDL
MODEL      124
REMARK 921   NORMALIZED FREE ENERGY PREDICTED BY IDOCK:   -2.85 KCAL/MOL
REMARK 922        TOTAL FREE ENERGY PREDICTED BY IDOCK:   -3.69 KCAL/MOL
REMARK 923 INTER-LIGAND FREE ENERGY PREDICTED BY IDOCK:   -3.52 KCAL/MOL
REMARK 924 INTRA-LIGAND FREE ENERGY PREDICTED BY IDOCK:   -0.18 KCAL/MOL
REMARK 927      BINDING AFFINITY PREDICTED BY RF-SCORE:    0.00 PKD
ROOT
HETATM    1  C   UNL     1     -11.348   7.856  72.724  1.00  0.00    -0.393 C  
HETATM    2  N   UNL     1     -10.729   7.904  71.349  1.00  0.00    -0.222 N  
HETATM    3  C   UNL     2     -10.904   9.542  67.791  1.00  0.00    -0.195 C  
HETATM    4  C   UNL     1     -10.226   9.327  71.211  1.00  0.00    -0.313 C  
HETATM    5  C   UNL     1     -11.829   7.543  70.353  1.00  0.00    -0.036 C  
HETATM    6  N   UNL     2      -9.777   8.636  67.616  1.00  0.00    -0.152 N  
HETATM    7  C   UNL     2      -6.114   8.675  67.790  1.00  0.00    -0.048 C  
HETATM    8  O   UNL     2      -8.264   9.663  69.029  1.00  0.00    -0.103 OA 
HETATM    9  C   UNL     2      -9.972   7.414  67.028  1.00  0.00    -0.231 A  
HETATM   10  N   UNL     2     -11.085   6.655  67.053  1.00  0.00    -0.403 NA 
HETATM   11  C   UNL     2      -8.931   6.683  66.525  1.00  0.00    -0.145 A  
HETATM   12  C   UNL     2      -8.492   8.914  68.073  1.00  0.00    -0.126 C  
HETATM   13  N   UNL     2      -9.419   5.454  66.213  1.00  0.00    -0.153 NA 
HETATM   14  C   UNL     2      -7.594   7.215  66.479  1.00  0.00    -0.092 C  
HETATM   15  N   UNL     2      -7.445   8.255  67.415  1.00  0.00    -0.092 N  
HETATM   16  H   UNL     2      -8.890   4.672  65.826  1.00  0.00     0.000 HD 
HETATM   17  C   UNL     2     -10.739   5.464  66.512  1.00  0.00    -0.240 A  
HETATM   18  O   UNL     2      -6.632   6.867  65.791  1.00  0.00    -0.049 OA 
ENDROOT
BRANCH   2  19
HETATM   19  C   UNL     1      -9.635   6.829  71.090  1.00  0.00    -0.173 C  
BRANCH  19  20
HETATM   20  C   UNL     1     -10.135   5.401  70.839  1.00  0.00    -0.219 C  
HETATM   21  O   UNL     1      -9.530   4.466  71.728  1.00  0.00    -0.133 OA 
HETATM   22  H   UNL     1      -9.839   3.582  71.573  1.00  0.00     0.000 HD 
ENDBRANCH  19  20
ENDBRANCH   2  19
TORSDOF 2
ENDMDL
MODEL      125
REMARK 921   NORMALIZED FREE ENERGY PREDICTED BY IDOCK:   -2.83 KCAL/MOL
REMARK 922        TOTAL FREE ENERGY PREDICTED BY IDOCK:   -3.67 KCAL/MOL
REMARK 923 INTER-LIGAND FREE ENERGY PREDICTED BY IDOCK:   -3.44 KCAL/MOL
REMARK 924 INTRA-LIGAND FREE ENERGY PREDICTED BY IDOCK:   -0.23 KCAL/MOL
REMARK 927      BINDING AFFINITY PREDICTED BY RF-SCORE:    0.00 PKD
ROOT
HETATM    1  C   UNL     1     -12.518   8.770  72.178  1.00  0.00    -0.393 C  
HETATM    2  N   UNL     1     -11.264   7.976  71.903  1.00  0.00    -0.264 N  
HETATM    3  C   UNL     2      -7.425   7.659  72.632  1.00  0.00    -0.085 C  
HETATM    4  C   UNL     1     -10.854   7.437  73.259  1.00  0.00    -0.368 C  
HETATM    5  C   UNL     1     -10.251   8.943  71.295  1.00  0.00    -0.291 C  
HETATM    6  N   UNL     2      -7.622   6.534  71.729  1.00  0.00    -0.093 N  
HETATM    7  C   UNL     2      -8.258   2.925  71.868  1.00  0.00    -0.058 C  
HETATM    8  O   UNL     2      -8.931   5.202  73.091  1.00  0.00    -0.119 OA 
HETATM    9  C   UNL     2      -7.326   6.670  70.398  1.00  0.00    -0.082 A  
HETATM   10  N   UNL     2      -7.388   7.788  69.650  1.00  0.00    -0.085 NA 
HETATM   11  C   UNL     2      -7.154   5.584  69.585  1.00  0.00    -0.064 A  
HETATM   12  C   UNL     2      -8.163   5.315  72.130  1.00  0.00    -0.114 C  
HETATM   13  N   UNL     2      -7.087   6.046  68.309  1.00  0.00    -0.079 NA 
HETATM   14  C   UNL     2      -7.156   4.244  70.111  1.00  0.00    -0.042 C  
HETATM   15  N   UNL     2      -7.825   4.202  71.349  1.00  0.00    -0.070 N  
HETATM   16  H   UNL     2      -6.972   5.484  67.465  1.00  0.00     0.000 HD 
HETATM   17  C   UNL     2      -7.200   7.394  68.369  1.00  0.00    -0.093 A  
HETATM   18  O   UNL     2      -6.704   3.207  69.623  1.00  0.00    -0.033 OA 
ENDROOT
BRANCH   2  19
HETATM   19  C   UNL     1     -11.418   6.875  70.815  1.00  0.00    -0.335 C  
BRANCH  19  20
HETATM   20  C   UNL     1     -10.816   7.193  69.441  1.00  0.00    -0.206 C  
HETATM   21  O   UNL     1     -11.533   6.552  68.390  1.00  0.00    -0.564 OA 
HETATM   22  H   UNL     1     -11.161   6.748  67.539  1.00  0.00     0.000 HD 
ENDBRANCH  19  20
ENDBRANCH   2  19
TORSDOF 2
ENDMDL
MODEL      126
REMARK 921   NORMALIZED FREE ENERGY PREDICTED BY IDOCK:   -2.80 KCAL/MOL
REMARK 922        TOTAL FREE ENERGY PREDICTED BY IDOCK:   -3.64 KCAL/MOL
REMARK 923 INTER-LIGAND FREE ENERGY PREDICTED BY IDOCK:   -3.46 KCAL/MOL
REMARK 924 INTRA-LIGAND FREE ENERGY PREDICTED BY IDOCK:   -0.18 KCAL/MOL
REMARK 927      BINDING AFFINITY PREDICTED BY RF-SCORE:    0.00 PKD
ROOT
HETATM    1  C   UNL     1     -10.877   9.788  70.948  1.00  0.00    -0.328 C  
HETATM    2  N   UNL     1     -10.131   8.711  70.200  1.00  0.00    -0.181 N  
HETATM    3  C   UNL     2      -7.643   7.959  67.265  1.00  0.00    -0.101 C  
HETATM    4  C   UNL     1      -8.669   9.039  70.425  1.00  0.00    -0.199 C  
HETATM    5  C   UNL     1     -10.564   8.804  68.738  1.00  0.00    -0.145 C  
HETATM    6  N   UNL     2      -7.894   6.612  67.758  1.00  0.00    -0.110 N  
HETATM    7  C   UNL     2      -6.413   4.160  70.050  1.00  0.00    -0.032 C  
HETATM    8  O   UNL     2      -6.862   6.783  69.820  1.00  0.00    -0.051 OA 
HETATM    9  C   UNL     2      -8.821   5.820  67.133  1.00  0.00    -0.107 A  
HETATM   10  N   UNL     2      -9.931   6.211  66.478  1.00  0.00    -0.153 NA 
HETATM   11  C   UNL     2      -8.850   4.465  67.315  1.00  0.00    -0.108 A  
HETATM   12  C   UNL     2      -7.280   6.084  68.890  1.00  0.00    -0.083 C  
HETATM   13  N   UNL     2      -9.993   4.008  66.741  1.00  0.00    -0.336 NA 
HETATM   14  C   UNL     2      -7.833   3.788  68.077  1.00  0.00    -0.073 C  
HETATM   15  N   UNL     2      -7.194   4.686  68.953  1.00  0.00    -0.052 N  
HETATM   16  H   UNL     2     -10.315   3.040  66.715  1.00  0.00     0.000 HD 
HETATM   17  C   UNL     2     -10.625   5.081  66.209  1.00  0.00    -0.276 A  
HETATM   18  O   UNL     2      -7.509   2.600  68.075  1.00  0.00    -0.055 OA 
ENDROOT
BRANCH   2  19
HETATM   19  C   UNL     1     -10.513   7.257  70.601  1.00  0.00    -0.214 C  
BRANCH  19  20
HETATM   20  C   UNL     1     -11.748   6.667  69.912  1.00  0.00    -0.270 C  
HETATM   21  O   UNL     1     -12.957   7.122  70.514  1.00  0.00    -0.581 OA 
HETATM   22  H   UNL     1     -13.722   6.756  70.088  1.00  0.00     0.000 HD 
ENDBRANCH  19  20
ENDBRANCH   2  19
TORSDOF 2
ENDMDL
MODEL      127
REMARK 921   NORMALIZED FREE ENERGY PREDICTED BY IDOCK:   -2.75 KCAL/MOL
REMARK 922        TOTAL FREE ENERGY PREDICTED BY IDOCK:   -3.58 KCAL/MOL
REMARK 923 INTER-LIGAND FREE ENERGY PREDICTED BY IDOCK:   -3.38 KCAL/MOL
REMARK 924 INTRA-LIGAND FREE ENERGY PREDICTED BY IDOCK:   -0.20 KCAL/MOL
REMARK 927      BINDING AFFINITY PREDICTED BY RF-SCORE:    0.00 PKD
ROOT
HETATM    1  C   UNL     1     -12.227  12.718  69.432  1.00  0.00    -0.077 C  
HETATM    2  N   UNL     1     -11.428  13.693  68.602  1.00  0.00    -0.283 N  
HETATM    3  C   UNL     2      -9.552  14.251  65.204  1.00  0.00     0.263 C  
HETATM    4  C   UNL     1     -12.276  13.919  67.366  1.00  0.00    -0.256 C  
HETATM    5  C   UNL     1     -10.083  13.030  68.311  1.00  0.00    -0.239 C  
HETATM    6  N   UNL     2      -9.327  15.536  65.852  1.00  0.00    -0.343 N  
HETATM    7  C   UNL     2     -10.784  18.900  65.953  1.00  0.00    -0.297 C  
HETATM    8  O   UNL     2     -11.499  16.329  65.846  1.00  0.00     0.288 OA 
HETATM    9  C   UNL     2      -8.147  15.771  66.506  1.00  0.00    -0.196 A  
HETATM   10  N   UNL     2      -7.357  14.875  67.129  1.00  0.00    -0.133 NA 
HETATM   11  C   UNL     2      -7.737  17.038  66.819  1.00  0.00    -0.239 A  
HETATM   12  C   UNL     2     -10.283  16.547  65.901  1.00  0.00    -0.349 C  
HETATM   13  N   UNL     2      -6.658  16.919  67.636  1.00  0.00    -0.136 NA 
HETATM   14  C   UNL     2      -8.467  18.195  66.371  1.00  0.00    -0.238 C  
HETATM   15  N   UNL     2      -9.797  17.851  66.066  1.00  0.00    -0.226 N  
HETATM   16  H   UNL     2      -6.126  17.683  68.055  1.00  0.00     0.000 HD 
HETATM   17  C   UNL     2      -6.421  15.595  67.790  1.00  0.00    -0.160 A  
HETATM   18  O   UNL     2      -8.097  19.366  66.264  1.00  0.00    -0.303 OA 
ENDROOT
BRANCH   2  19
HETATM   19  C   UNL     1     -11.036  15.005  69.339  1.00  0.00    -0.266 C  
BRANCH  19  20
HETATM   20  C   UNL     1      -9.543  15.196  69.632  1.00  0.00    -0.116 C  
HETATM   21  O   UNL     1      -9.155  16.563  69.525  1.00  0.00    -0.073 OA 
HETATM   22  H   UNL     1      -8.231  16.682  69.707  1.00  0.00     0.000 HD 
ENDBRANCH  19  20
ENDBRANCH   2  19
TORSDOF 2
ENDMDL
MODEL      128
REMARK 921   NORMALIZED FREE ENERGY PREDICTED BY IDOCK:   -2.74 KCAL/MOL
REMARK 922        TOTAL FREE ENERGY PREDICTED BY IDOCK:   -3.56 KCAL/MOL
REMARK 923 INTER-LIGAND FREE ENERGY PREDICTED BY IDOCK:   -3.21 KCAL/MOL
REMARK 924 INTRA-LIGAND FREE ENERGY PREDICTED BY IDOCK:   -0.36 KCAL/MOL
REMARK 927      BINDING AFFINITY PREDICTED BY RF-SCORE:    0.00 PKD
ROOT
HETATM    1  C   UNL     1     -10.216   6.174  74.543  1.00  0.00    -0.300 C  
HETATM    2  N   UNL     1      -9.893   6.026  73.076  1.00  0.00    -0.166 N  
HETATM    3  C   UNL     2      -9.698   3.535  70.055  1.00  0.00    -0.077 C  
HETATM    4  C   UNL     1     -11.201   5.593  72.444  1.00  0.00    -0.280 C  
HETATM    5  C   UNL     1      -8.784   4.982  72.969  1.00  0.00    -0.113 C  
HETATM    6  N   UNL     2      -9.263   4.769  69.416  1.00  0.00    -0.105 N  
HETATM    7  C   UNL     2     -10.658   7.530  67.446  1.00  0.00    -0.294 C  
HETATM    8  O   UNL     2     -11.250   5.946  69.512  1.00  0.00    -0.389 OA 
HETATM    9  C   UNL     2      -7.925   5.018  69.257  1.00  0.00    -0.079 A  
HETATM   10  N   UNL     2      -6.910   4.604  70.040  1.00  0.00    -0.043 NA 
HETATM   11  C   UNL     2      -7.469   5.958  68.375  1.00  0.00    -0.086 A  
HETATM   12  C   UNL     2     -10.140   5.767  68.999  1.00  0.00    -0.191 C  
HETATM   13  N   UNL     2      -6.138   6.111  68.605  1.00  0.00    -0.026 NA 
HETATM   14  C   UNL     2      -8.364   6.648  67.482  1.00  0.00    -0.121 C  
HETATM   15  N   UNL     2      -9.680   6.608  67.977  1.00  0.00    -0.123 N  
HETATM   16  H   UNL     2      -5.507   6.749  68.119  1.00  0.00     0.000 HD 
HETATM   17  C   UNL     2      -5.808   5.256  69.602  1.00  0.00    -0.017 A  
HETATM   18  O   UNL     2      -8.121   7.251  66.436  1.00  0.00    -0.111 OA 
ENDROOT
BRANCH   2  19
HETATM   19  C   UNL     1      -9.270   7.289  72.417  1.00  0.00    -0.134 C  
BRANCH  19  20
HETATM   20  C   UNL     1     -10.192   8.507  72.281  1.00  0.00    -0.325 C  
HETATM   21  O   UNL     1     -10.861   8.524  71.024  1.00  0.00    -0.226 OA 
HETATM   22  H   UNL     1     -11.432   9.279  70.939  1.00  0.00     0.000 HD 
ENDBRANCH  19  20
ENDBRANCH   2  19
TORSDOF 2
ENDMDL
MODEL      129
REMARK 921   NORMALIZED FREE ENERGY PREDICTED BY IDOCK:   -2.73 KCAL/MOL
REMARK 922        TOTAL FREE ENERGY PREDICTED BY IDOCK:   -3.56 KCAL/MOL
REMARK 923 INTER-LIGAND FREE ENERGY PREDICTED BY IDOCK:   -3.42 KCAL/MOL
REMARK 924 INTRA-LIGAND FREE ENERGY PREDICTED BY IDOCK:   -0.13 KCAL/MOL
REMARK 927      BINDING AFFINITY PREDICTED BY RF-SCORE:    0.00 PKD
ROOT
HETATM    1  C   UNL     1     -11.999   9.052  71.984  1.00  0.00    -0.363 C  
HETATM    2  N   UNL     1     -11.100   8.373  70.979  1.00  0.00    -0.251 N  
HETATM    3  C   UNL     2     -10.903   6.735  67.422  1.00  0.00    -0.347 C  
HETATM    4  C   UNL     1     -11.102   9.303  69.783  1.00  0.00    -0.150 C  
HETATM    5  C   UNL     1     -11.711   7.002  70.693  1.00  0.00    -0.338 C  
HETATM    6  N   UNL     2      -9.529   6.568  67.874  1.00  0.00    -0.121 N  
HETATM    7  C   UNL     2      -6.282   8.255  67.614  1.00  0.00    -0.052 C  
HETATM    8  O   UNL     2      -8.884   8.787  67.903  1.00  0.00    -0.135 OA 
HETATM    9  C   UNL     2      -9.130   5.372  68.412  1.00  0.00    -0.109 A  
HETATM   10  N   UNL     2      -9.878   4.486  69.097  1.00  0.00    -0.177 NA 
HETATM   11  C   UNL     2      -7.809   5.038  68.523  1.00  0.00    -0.082 A  
HETATM   12  C   UNL     2      -8.584   7.590  67.849  1.00  0.00    -0.121 C  
HETATM   13  N   UNL     2      -7.743   3.909  69.276  1.00  0.00    -0.053 NA 
HETATM   14  C   UNL     2      -6.774   5.873  67.971  1.00  0.00    -0.061 C  
HETATM   15  N   UNL     2      -7.241   7.190  67.803  1.00  0.00    -0.088 N  
HETATM   16  H   UNL     2      -6.896   3.411  69.552  1.00  0.00     0.000 HD 
HETATM   17  C   UNL     2      -9.015   3.569  69.592  1.00  0.00    -0.110 A  
HETATM   18  O   UNL     2      -5.609   5.595  67.683  1.00  0.00    -0.011 OA 
ENDROOT
BRANCH   2  19
HETATM   19  C   UNL     1      -9.676   8.035  71.505  1.00  0.00    -0.167 C  
BRANCH  19  20
HETATM   20  C   UNL     1      -9.490   8.065  73.026  1.00  0.00    -0.275 C  
HETATM   21  O   UNL     1      -8.235   8.631  73.393  1.00  0.00    -0.408 OA 
HETATM   22  H   UNL     1      -8.120   8.650  74.336  1.00  0.00     0.000 HD 
ENDBRANCH  19  20
ENDBRANCH   2  19
TORSDOF 2
ENDMDL
MODEL      130
REMARK 921   NORMALIZED FREE ENERGY PREDICTED BY IDOCK:   -2.73 KCAL/MOL
REMARK 922        TOTAL FREE ENERGY PREDICTED BY IDOCK:   -3.55 KCAL/MOL
REMARK 923 INTER-LIGAND FREE ENERGY PREDICTED BY IDOCK:   -3.33 KCAL/MOL
REMARK 924 INTRA-LIGAND FREE ENERGY PREDICTED BY IDOCK:   -0.22 KCAL/MOL
REMARK 927      BINDING AFFINITY PREDICTED BY RF-SCORE:    0.00 PKD
ROOT
HETATM    1  C   UNL     1      -9.048  11.729  67.283  1.00  0.00    -0.171 C  
HETATM    2  N   UNL     1      -8.917  10.369  67.924  1.00  0.00    -0.128 N  
HETATM    3  C   UNL     2      -8.664   6.511  67.274  1.00  0.00    -0.110 C  
HETATM    4  C   UNL     1      -7.596   9.834  67.407  1.00  0.00    -0.091 C  
HETATM    5  C   UNL     1     -10.127   9.550  67.480  1.00  0.00    -0.204 C  
HETATM    6  N   UNL     2      -8.610   6.544  68.729  1.00  0.00    -0.121 N  
HETATM    7  C   UNL     2      -6.128   6.563  71.429  1.00  0.00    -0.040 C  
HETATM    8  O   UNL     2      -6.556   7.570  68.993  1.00  0.00    -0.042 OA 
HETATM    9  C   UNL     2      -9.748   6.315  69.458  1.00  0.00    -0.146 A  
HETATM   10  N   UNL     2     -11.020   6.585  69.106  1.00  0.00    -0.304 NA 
HETATM   11  C   UNL     2      -9.699   5.988  70.784  1.00  0.00    -0.175 A  
HETATM   12  C   UNL     2      -7.460   6.861  69.447  1.00  0.00    -0.094 C  
HETATM   13  N   UNL     2     -10.973   6.036  71.256  1.00  0.00    -0.274 NA 
HETATM   14  C   UNL     2      -8.447   5.749  71.454  1.00  0.00    -0.128 C  
HETATM   15  N   UNL     2      -7.391   6.364  70.756  1.00  0.00    -0.074 N  
HETATM   16  H   UNL     2     -11.273   5.855  72.214  1.00  0.00     0.000 HD 
HETATM   17  C   UNL     2     -11.769   6.372  70.213  1.00  0.00    -0.320 A  
HETATM   18  O   UNL     2      -8.219   5.145  72.503  1.00  0.00    -0.114 OA 
ENDROOT
BRANCH   2  19
HETATM   19  C   UNL     1      -9.026  10.368  69.476  1.00  0.00    -0.106 C  
BRANCH  19  20
HETATM   20  C   UNL     1     -10.325   9.804  70.063  1.00  0.00    -0.263 C  
HETATM   21  O   UNL     1     -11.136  10.829  70.631  1.00  0.00    -0.424 OA 
HETATM   22  H   UNL     1     -11.940  10.480  70.996  1.00  0.00     0.000 HD 
ENDBRANCH  19  20
ENDBRANCH   2  19
TORSDOF 2
ENDMDL
MODEL      131
REMARK 921   NORMALIZED FREE ENERGY PREDICTED BY IDOCK:   -2.67 KCAL/MOL
REMARK 922        TOTAL FREE ENERGY PREDICTED BY IDOCK:   -3.49 KCAL/MOL
REMARK 923 INTER-LIGAND FREE ENERGY PREDICTED BY IDOCK:   -2.99 KCAL/MOL
REMARK 924 INTRA-LIGAND FREE ENERGY PREDICTED BY IDOCK:   -0.50 KCAL/MOL
REMARK 927      BINDING AFFINITY PREDICTED BY RF-SCORE:    0.00 PKD
ROOT
HETATM    1  C   UNL     1      -9.712  13.098  65.775  1.00  0.00    -0.138 C  
HETATM    2  N   UNL     1      -9.521  11.846  66.596  1.00  0.00    -0.204 N  
HETATM    3  C   UNL     2     -10.621   9.910  69.823  1.00  0.00    -0.264 C  
HETATM    4  C   UNL     1     -10.879  11.172  66.576  1.00  0.00    -0.245 C  
HETATM    5  C   UNL     1      -9.077  12.290  67.988  1.00  0.00    -0.191 C  
HETATM    6  N   UNL     2      -9.639   8.985  69.274  1.00  0.00    -0.160 N  
HETATM    7  C   UNL     2      -9.503   5.995  67.154  1.00  0.00    -0.118 C  
HETATM    8  O   UNL     2     -10.780   8.330  67.373  1.00  0.00    -0.270 OA 
HETATM    9  C   UNL     2      -8.355   8.992  69.754  1.00  0.00    -0.129 A  
HETATM   10  N   UNL     2      -7.670  10.035  70.261  1.00  0.00    -0.213 NA 
HETATM   11  C   UNL     2      -7.503   7.943  69.542  1.00  0.00    -0.093 A  
HETATM   12  C   UNL     2      -9.911   8.112  68.224  1.00  0.00    -0.171 C  
HETATM   13  N   UNL     2      -6.269   8.343  69.949  1.00  0.00    -0.032 NA 
HETATM   14  C   UNL     2      -7.948   6.729  68.911  1.00  0.00    -0.116 C  
HETATM   15  N   UNL     2      -9.106   6.967  68.147  1.00  0.00    -0.126 N  
HETATM   16  H   UNL     2      -5.410   7.792  69.913  1.00  0.00     0.000 HD 
HETATM   17  C   UNL     2      -6.395   9.608  70.413  1.00  0.00    -0.081 A  
HETATM   18  O   UNL     2      -7.450   5.602  68.933  1.00  0.00    -0.080 OA 
ENDROOT
BRANCH   2  19
HETATM   19  C   UNL     1      -8.361  10.926  66.119  1.00  0.00    -0.168 C  
BRANCH  19  20
HETATM   20  C   UNL     1      -7.055  11.016  66.916  1.00  0.00    -0.125 C  
HETATM   21  O   UNL     1      -6.342   9.782  66.901  1.00  0.00    -0.064 OA 
HETATM   22  H   UNL     1      -5.533   9.837  67.395  1.00  0.00     0.000 HD 
ENDBRANCH  19  20
ENDBRANCH   2  19
TORSDOF 2
ENDMDL
MODEL      132
REMARK 921   NORMALIZED FREE ENERGY PREDICTED BY IDOCK:   -2.61 KCAL/MOL
REMARK 922        TOTAL FREE ENERGY PREDICTED BY IDOCK:   -3.42 KCAL/MOL
REMARK 923 INTER-LIGAND FREE ENERGY PREDICTED BY IDOCK:   -3.27 KCAL/MOL
REMARK 924 INTRA-LIGAND FREE ENERGY PREDICTED BY IDOCK:   -0.15 KCAL/MOL
REMARK 927      BINDING AFFINITY PREDICTED BY RF-SCORE:    0.00 PKD
ROOT
HETATM    1  C   UNL     1      -6.630   6.926  66.141  1.00  0.00    -0.052 C  
HETATM    2  N   UNL     1      -7.411   7.326  67.369  1.00  0.00    -0.089 N  
HETATM    3  C   UNL     2      -8.980  10.319  69.357  1.00  0.00    -0.176 C  
HETATM    4  C   UNL     1      -8.688   7.931  66.823  1.00  0.00    -0.134 C  
HETATM    5  C   UNL     1      -6.543   8.316  68.143  1.00  0.00    -0.057 C  
HETATM    6  N   UNL     2      -9.332   9.204  70.225  1.00  0.00    -0.202 N  
HETATM    7  C   UNL     2     -12.140   6.924  70.836  1.00  0.00    -0.373 C  
HETATM    8  O   UNL     2     -10.838   8.128  68.839  1.00  0.00    -0.115 OA 
HETATM    9  C   UNL     2      -8.558   8.923  71.320  1.00  0.00    -0.198 A  
HETATM   10  N   UNL     2      -7.237   9.136  71.472  1.00  0.00    -0.311 NA 
HETATM   11  C   UNL     2      -9.017   8.140  72.343  1.00  0.00    -0.201 A  
HETATM   12  C   UNL     2     -10.398   8.344  69.974  1.00  0.00    -0.211 C  
HETATM   13  N   UNL     2      -7.958   7.883  73.156  1.00  0.00    -0.136 NA 
HETATM   14  C   UNL     2     -10.378   7.672  72.379  1.00  0.00    -0.238 C  
HETATM   15  N   UNL     2     -10.936   7.684  71.087  1.00  0.00    -0.243 N  
HETATM   16  H   UNL     2      -7.968   7.316  74.004  1.00  0.00     0.000 HD 
HETATM   17  C   UNL     2      -6.889   8.523  72.627  1.00  0.00    -0.043 A  
HETATM   18  O   UNL     2     -11.044   7.261  73.330  1.00  0.00    -0.323 OA 
ENDROOT
BRANCH   2  19
HETATM   19  C   UNL     1      -7.651   6.177  68.389  1.00  0.00    -0.092 C  
BRANCH  19  20
HETATM   20  C   UNL     1      -6.411   5.386  68.824  1.00  0.00    -0.043 C  
HETATM   21  O   UNL     1      -6.382   4.087  68.239  1.00  0.00    -0.035 OA 
HETATM   22  H   UNL     1      -5.614   3.597  68.508  1.00  0.00     0.000 HD 
ENDBRANCH  19  20
ENDBRANCH   2  19
TORSDOF 2
ENDMDL
MODEL      133
REMARK 921   NORMALIZED FREE ENERGY PREDICTED BY IDOCK:   -2.55 KCAL/MOL
REMARK 922        TOTAL FREE ENERGY PREDICTED BY IDOCK:   -3.35 KCAL/MOL
REMARK 923 INTER-LIGAND FREE ENERGY PREDICTED BY IDOCK:   -3.12 KCAL/MOL
REMARK 924 INTRA-LIGAND FREE ENERGY PREDICTED BY IDOCK:   -0.23 KCAL/MOL
REMARK 927      BINDING AFFINITY PREDICTED BY RF-SCORE:    0.00 PKD
ROOT
HETATM    1  C   UNL     1     -12.637   8.794  72.264  1.00  0.00    -0.394 C  
HETATM    2  N   UNL     1     -11.538   7.801  71.978  1.00  0.00    -0.285 N  
HETATM    3  C   UNL     2     -10.204   5.109  69.458  1.00  0.00    -0.248 C  
HETATM    4  C   UNL     1     -10.903   8.300  70.694  1.00  0.00    -0.236 C  
HETATM    5  C   UNL     1     -12.201   6.432  71.842  1.00  0.00    -0.279 C  
HETATM    6  N   UNL     2      -9.176   5.048  70.488  1.00  0.00    -0.140 N  
HETATM    7  C   UNL     2      -5.867   6.455  71.211  1.00  0.00    -0.028 C  
HETATM    8  O   UNL     2      -8.237   7.138  70.185  1.00  0.00    -0.130 OA 
HETATM    9  C   UNL     2      -9.233   4.074  71.450  1.00  0.00    -0.129 A  
HETATM   10  N   UNL     2     -10.330   3.479  71.956  1.00  0.00    -0.056 NA 
HETATM   11  C   UNL     2      -8.144   3.749  72.210  1.00  0.00    -0.077 A  
HETATM   12  C   UNL     2      -8.144   5.976  70.596  1.00  0.00    -0.116 C  
HETATM   13  N   UNL     2      -8.576   2.918  73.194  1.00  0.00    -0.079 NA 
HETATM   14  C   UNL     2      -6.851   4.329  71.956  1.00  0.00    -0.041 C  
HETATM   15  N   UNL     2      -6.984   5.539  71.249  1.00  0.00    -0.063 N  
HETATM   16  H   UNL     2      -8.007   2.506  73.935  1.00  0.00     0.000 HD 
HETATM   17  C   UNL     2      -9.905   2.739  73.006  1.00  0.00    -0.114 A  
HETATM   18  O   UNL     2      -5.732   3.935  72.291  1.00  0.00    -0.007 OA 
ENDROOT
BRANCH   2  19
HETATM   19  C   UNL     1     -10.522   7.601  73.139  1.00  0.00    -0.374 C  
BRANCH  19  20
HETATM   20  C   UNL     1      -9.225   8.412  73.051  1.00  0.00    -0.186 C  
HETATM   21  O   UNL     1      -8.136   7.735  73.672  1.00  0.00    -0.142 OA 
HETATM   22  H   UNL     1      -7.332   8.238  73.618  1.00  0.00     0.000 HD 
ENDBRANCH  19  20
ENDBRANCH   2  19
TORSDOF 2
ENDMDL
MODEL      134
REMARK 921   NORMALIZED FREE ENERGY PREDICTED BY IDOCK:   -2.54 KCAL/MOL
REMARK 922        TOTAL FREE ENERGY PREDICTED BY IDOCK:   -3.34 KCAL/MOL
REMARK 923 INTER-LIGAND FREE ENERGY PREDICTED BY IDOCK:   -2.85 KCAL/MOL
REMARK 924 INTRA-LIGAND FREE ENERGY PREDICTED BY IDOCK:   -0.49 KCAL/MOL
REMARK 927      BINDING AFFINITY PREDICTED BY RF-SCORE:    0.00 PKD
ROOT
HETATM    1  C   UNL     1      -6.696  11.864  69.196  1.00  0.00    -0.105 C  
HETATM    2  N   UNL     1      -7.280  10.783  68.319  1.00  0.00    -0.081 N  
HETATM    3  C   UNL     2     -10.034   9.927  65.663  1.00  0.00    -0.283 C  
HETATM    4  C   UNL     1      -7.066  11.288  66.906  1.00  0.00    -0.139 C  
HETATM    5  C   UNL     1      -8.751  10.645  68.706  1.00  0.00    -0.157 C  
HETATM    6  N   UNL     2      -9.376   8.635  65.796  1.00  0.00    -0.195 N  
HETATM    7  C   UNL     2      -6.751   6.661  64.162  1.00  0.00    -0.044 C  
HETATM    8  O   UNL     2      -7.330   9.173  64.862  1.00  0.00    -0.097 OA 
HETATM    9  C   UNL     2      -9.914   7.678  66.616  1.00  0.00    -0.214 A  
HETATM   10  N   UNL     2     -10.639   7.865  67.735  1.00  0.00    -0.206 NA 
HETATM   11  C   UNL     2      -9.557   6.362  66.516  1.00  0.00    -0.145 A  
HETATM   12  C   UNL     2      -8.170   8.322  65.174  1.00  0.00    -0.154 C  
HETATM   13  N   UNL     2     -10.094   5.719  67.587  1.00  0.00    -0.157 NA 
HETATM   14  C   UNL     2      -8.690   5.896  65.465  1.00  0.00    -0.129 C  
HETATM   15  N   UNL     2      -7.925   6.960  64.951  1.00  0.00    -0.122 N  
HETATM   16  H   UNL     2     -10.000   4.728  67.809  1.00  0.00     0.000 HD 
HETATM   17  C   UNL     2     -10.775   6.644  68.303  1.00  0.00    -0.257 A  
HETATM   18  O   UNL     2      -8.531   4.757  65.024  1.00  0.00    -0.125 OA 
ENDROOT
BRANCH   2  19
HETATM   19  C   UNL     1      -6.702   9.361  68.568  1.00  0.00    -0.058 C  
BRANCH  19  20
HETATM   20  C   UNL     1      -7.518   8.451  69.493  1.00  0.00    -0.088 C  
HETATM   21  O   UNL     1      -7.576   7.114  69.002  1.00  0.00    -0.096 OA 
HETATM   22  H   UNL     1      -8.081   6.551  69.575  1.00  0.00     0.000 HD 
ENDBRANCH  19  20
ENDBRANCH   2  19
TORSDOF 2
ENDMDL
MODEL      135
REMARK 921   NORMALIZED FREE ENERGY PREDICTED BY IDOCK:   -2.53 KCAL/MOL
REMARK 922        TOTAL FREE ENERGY PREDICTED BY IDOCK:   -3.33 KCAL/MOL
REMARK 923 INTER-LIGAND FREE ENERGY PREDICTED BY IDOCK:   -3.35 KCAL/MOL
REMARK 924 INTRA-LIGAND FREE ENERGY PREDICTED BY IDOCK:    0.02 KCAL/MOL
REMARK 927      BINDING AFFINITY PREDICTED BY RF-SCORE:    0.00 PKD
ROOT
HETATM    1  C   UNL     1      -9.115   7.586  70.903  1.00  0.00    -0.153 C  
HETATM    2  N   UNL     1      -8.812   8.157  69.539  1.00  0.00    -0.142 N  
HETATM    3  C   UNL     2      -6.270  10.256  67.417  1.00  0.00    -0.058 C  
HETATM    4  C   UNL     1      -7.521   7.477  69.124  1.00  0.00    -0.098 C  
HETATM    5  C   UNL     1      -8.682   9.669  69.709  1.00  0.00    -0.208 C  
HETATM    6  N   UNL     2      -7.286   9.968  66.414  1.00  0.00    -0.099 N  
HETATM    7  C   UNL     2      -7.968   7.535  63.755  1.00  0.00    -0.082 C  
HETATM    8  O   UNL     2      -6.974   7.685  66.230  1.00  0.00    -0.063 OA 
HETATM    9  C   UNL     2      -8.247  10.902  66.130  1.00  0.00    -0.168 A  
HETATM   10  N   UNL     2      -8.766  11.828  66.959  1.00  0.00    -0.174 NA 
HETATM   11  C   UNL     2      -8.992  10.843  64.985  1.00  0.00    -0.168 A  
HETATM   12  C   UNL     2      -7.382   8.748  65.750  1.00  0.00    -0.085 C  
HETATM   13  N   UNL     2      -9.980  11.769  65.102  1.00  0.00    -0.249 NA 
HETATM   14  C   UNL     2      -8.722   9.866  63.963  1.00  0.00    -0.212 C  
HETATM   15  N   UNL     2      -8.019   8.772  64.501  1.00  0.00    -0.133 N  
HETATM   16  H   UNL     2     -10.712  11.965  64.418  1.00  0.00     0.000 HD 
HETATM   17  C   UNL     2      -9.809  12.381  66.297  1.00  0.00    -0.247 A  
HETATM   18  O   UNL     2      -9.041   9.863  62.773  1.00  0.00    -0.252 OA 
ENDROOT
BRANCH   2  19
HETATM   19  C   UNL     1      -9.959   8.003  68.500  1.00  0.00    -0.192 C  
BRANCH  19  20
HETATM   20  C   UNL     1     -10.734   9.280  68.154  1.00  0.00    -0.151 C  
HETATM   21  O   UNL     1     -11.695   9.602  69.156  1.00  0.00    -0.412 OA 
HETATM   22  H   UNL     1     -12.175  10.392  68.941  1.00  0.00     0.000 HD 
ENDBRANCH  19  20
ENDBRANCH   2  19
TORSDOF 2
ENDMDL
MODEL      136
REMARK 921   NORMALIZED FREE ENERGY PREDICTED BY IDOCK:   -2.53 KCAL/MOL
REMARK 922        TOTAL FREE ENERGY PREDICTED BY IDOCK:   -3.33 KCAL/MOL
REMARK 923 INTER-LIGAND FREE ENERGY PREDICTED BY IDOCK:   -2.88 KCAL/MOL
REMARK 924 INTRA-LIGAND FREE ENERGY PREDICTED BY IDOCK:   -0.45 KCAL/MOL
REMARK 927      BINDING AFFINITY PREDICTED BY RF-SCORE:    0.00 PKD
ROOT
HETATM    1  C   UNL     1      -6.083   6.288  73.254  1.00  0.00    -0.058 C  
HETATM    2  N   UNL     1      -6.688   6.998  72.068  1.00  0.00    -0.056 N  
HETATM    3  C   UNL     2      -7.028  10.426  70.196  1.00  0.00    -0.141 C  
HETATM    4  C   UNL     1      -5.494   7.476  71.266  1.00  0.00    -0.034 C  
HETATM    5  C   UNL     1      -7.549   8.132  72.622  1.00  0.00    -0.125 C  
HETATM    6  N   UNL     2      -7.844   9.571  69.344  1.00  0.00    -0.089 N  
HETATM    7  C   UNL     2      -7.537   7.578  66.281  1.00  0.00    -0.088 C  
HETATM    8  O   UNL     2      -6.178   8.216  68.490  1.00  0.00    -0.046 OA 
HETATM    9  C   UNL     2      -9.205   9.557  69.499  1.00  0.00    -0.189 A  
HETATM   10  N   UNL     2      -9.909   9.772  70.628  1.00  0.00    -0.192 NA 
HETATM   11  C   UNL     2     -10.034   9.065  68.530  1.00  0.00    -0.176 A  
HETATM   12  C   UNL     2      -7.311   8.700  68.399  1.00  0.00    -0.086 C  
HETATM   13  N   UNL     2     -11.281   8.996  69.066  1.00  0.00    -0.421 NA 
HETATM   14  C   UNL     2      -9.527   8.649  67.248  1.00  0.00    -0.156 C  
HETATM   15  N   UNL     2      -8.155   8.350  67.335  1.00  0.00    -0.105 N  
HETATM   16  H   UNL     2     -12.124   8.658  68.600  1.00  0.00     0.000 HD 
HETATM   17  C   UNL     2     -11.192   9.459  70.335  1.00  0.00    -0.262 A  
HETATM   18  O   UNL     2     -10.119   8.503  66.177  1.00  0.00    -0.221 OA 
ENDROOT
BRANCH   2  19
HETATM   19  C   UNL     1      -7.694   6.146  71.243  1.00  0.00    -0.106 C  
BRANCH  19  20
HETATM   20  C   UNL     1      -9.124   6.070  71.789  1.00  0.00    -0.145 C  
HETATM   21  O   UNL     1     -10.085   6.453  70.809  1.00  0.00    -0.184 OA 
HETATM   22  H   UNL     1     -10.971   6.406  71.147  1.00  0.00     0.000 HD 
ENDBRANCH  19  20
ENDBRANCH   2  19
TORSDOF 2
ENDMDL
MODEL      137
REMARK 921   NORMALIZED FREE ENERGY PREDICTED BY IDOCK:   -2.52 KCAL/MOL
REMARK 922        TOTAL FREE ENERGY PREDICTED BY IDOCK:   -3.32 KCAL/MOL
REMARK 923 INTER-LIGAND FREE ENERGY PREDICTED BY IDOCK:   -3.08 KCAL/MOL
REMARK 924 INTRA-LIGAND FREE ENERGY PREDICTED BY IDOCK:   -0.24 KCAL/MOL
REMARK 927      BINDING AFFINITY PREDICTED BY RF-SCORE:    0.00 PKD
ROOT
HETATM    1  C   UNL     1      -5.139  12.677  68.078  1.00  0.00    -0.082 C  
HETATM    2  N   UNL     1      -6.509  12.051  68.172  1.00  0.00    -0.051 N  
HETATM    3  C   UNL     2      -8.760   9.041  67.055  1.00  0.00    -0.116 C  
HETATM    4  C   UNL     1      -6.266  10.713  68.842  1.00  0.00    -0.044 C  
HETATM    5  C   UNL     1      -7.043  11.936  66.746  1.00  0.00    -0.003 C  
HETATM    6  N   UNL     2      -9.704   9.799  67.865  1.00  0.00    -0.143 N  
HETATM    7  C   UNL     2     -10.989   9.884  71.299  1.00  0.00    -0.155 C  
HETATM    8  O   UNL     2      -8.725   9.497  69.938  1.00  0.00    -0.172 OA 
HETATM    9  C   UNL     2     -10.592  10.648  67.260  1.00  0.00    -0.263 A  
HETATM   10  N   UNL     2     -10.429  11.329  66.110  1.00  0.00    -0.248 NA 
HETATM   11  C   UNL     2     -11.707  11.104  67.908  1.00  0.00    -0.182 A  
HETATM   12  C   UNL     2      -9.722   9.760  69.257  1.00  0.00    -0.196 C  
HETATM   13  N   UNL     2     -12.254  12.074  67.128  1.00  0.00    -0.356 NA 
HETATM   14  C   UNL     2     -12.066  10.621  69.215  1.00  0.00    -0.134 C  
HETATM   15  N   UNL     2     -10.940  10.085  69.869  1.00  0.00    -0.273 N  
HETATM   16  H   UNL     2     -13.090  12.621  67.337  1.00  0.00     0.000 HD 
HETATM   17  C   UNL     2     -11.480  12.177  66.023  1.00  0.00    -0.370 A  
HETATM   18  O   UNL     2     -13.153  10.652  69.794  1.00  0.00    -0.081 OA 
ENDROOT
BRANCH   2  19
HETATM   19  C   UNL     1      -7.575  12.925  68.892  1.00  0.00     0.054 C  
BRANCH  19  20
HETATM   20  C   UNL     1      -8.272  13.987  68.033  1.00  0.00    -0.155 C  
HETATM   21  O   UNL     1      -7.559  15.221  68.039  1.00  0.00    -0.113 OA 
HETATM   22  H   UNL     1      -7.991  15.879  67.508  1.00  0.00     0.000 HD 
ENDBRANCH  19  20
ENDBRANCH   2  19
TORSDOF 2
ENDMDL
MODEL      138
REMARK 921   NORMALIZED FREE ENERGY PREDICTED BY IDOCK:   -2.51 KCAL/MOL
REMARK 922        TOTAL FREE ENERGY PREDICTED BY IDOCK:   -3.31 KCAL/MOL
REMARK 923 INTER-LIGAND FREE ENERGY PREDICTED BY IDOCK:   -2.87 KCAL/MOL
REMARK 924 INTRA-LIGAND FREE ENERGY PREDICTED BY IDOCK:   -0.44 KCAL/MOL
REMARK 927      BINDING AFFINITY PREDICTED BY RF-SCORE:    0.00 PKD
ROOT
HETATM    1  C   UNL     1     -10.567   8.607  66.959  1.00  0.00    -0.223 C  
HETATM    2  N   UNL     1      -9.890   8.282  68.268  1.00  0.00    -0.166 N  
HETATM    3  C   UNL     2      -7.298   9.503  70.944  1.00  0.00    -0.029 C  
HETATM    4  C   UNL     1     -10.325   9.394  69.203  1.00  0.00    -0.211 C  
HETATM    5  C   UNL     1      -8.387   8.261  67.996  1.00  0.00    -0.129 C  
HETATM    6  N   UNL     2      -7.704   8.229  71.522  1.00  0.00    -0.088 N  
HETATM    7  C   UNL     2     -10.087   6.915  73.981  1.00  0.00    -0.348 C  
HETATM    8  O   UNL     2      -9.892   8.753  72.053  1.00  0.00    -0.300 OA 
HETATM    9  C   UNL     2      -6.929   7.116  71.326  1.00  0.00    -0.060 A  
HETATM   10  N   UNL     2      -6.143   6.834  70.269  1.00  0.00    -0.024 NA 
HETATM   11  C   UNL     2      -7.057   6.004  72.111  1.00  0.00    -0.084 A  
HETATM   12  C   UNL     2      -8.890   8.052  72.229  1.00  0.00    -0.166 C  
HETATM   13  N   UNL     2      -6.316   5.021  71.536  1.00  0.00    -0.029 NA 
HETATM   14  C   UNL     2      -7.927   5.990  73.258  1.00  0.00    -0.108 C  
HETATM   15  N   UNL     2      -8.913   6.987  73.141  1.00  0.00    -0.126 N  
HETATM   16  H   UNL     2      -6.212   4.063  71.873  1.00  0.00     0.000 HD 
HETATM   17  C   UNL     2      -5.741   5.553  70.432  1.00  0.00    -0.020 A  
HETATM   18  O   UNL     2      -7.926   5.242  74.237  1.00  0.00    -0.099 OA 
ENDROOT
BRANCH   2  19
HETATM   19  C   UNL     1     -10.183   6.856  68.815  1.00  0.00    -0.174 C  
BRANCH  19  20
HETATM   20  C   UNL     1     -11.599   6.614  69.349  1.00  0.00    -0.144 C  
HETATM   21  O   UNL     1     -11.613   6.483  70.768  1.00  0.00    -0.343 OA 
HETATM   22  H   UNL     1     -12.490   6.332  71.099  1.00  0.00     0.000 HD 
ENDBRANCH  19  20
ENDBRANCH   2  19
TORSDOF 2
ENDMDL
MODEL      139
REMARK 921   NORMALIZED FREE ENERGY PREDICTED BY IDOCK:   -2.47 KCAL/MOL
REMARK 922        TOTAL FREE ENERGY PREDICTED BY IDOCK:   -3.27 KCAL/MOL
REMARK 923 INTER-LIGAND FREE ENERGY PREDICTED BY IDOCK:   -3.10 KCAL/MOL
REMARK 924 INTRA-LIGAND FREE ENERGY PREDICTED BY IDOCK:   -0.17 KCAL/MOL
REMARK 927      BINDING AFFINITY PREDICTED BY RF-SCORE:    0.00 PKD
ROOT
HETATM    1  C   UNL     1      -7.959  13.627  67.335  1.00  0.00    -0.166 C  
HETATM    2  N   UNL     1      -8.194  12.186  67.718  1.00  0.00    -0.143 N  
HETATM    3  C   UNL     2      -6.543   8.908  69.096  1.00  0.00    -0.047 C  
HETATM    4  C   UNL     1      -7.880  12.134  69.200  1.00  0.00     0.288 C  
HETATM    5  C   UNL     1      -7.255  11.340  66.861  1.00  0.00    -0.142 C  
HETATM    6  N   UNL     2      -7.914   8.458  68.899  1.00  0.00    -0.113 N  
HETATM    7  C   UNL     2     -11.021   8.062  70.808  1.00  0.00    -0.248 C  
HETATM    8  O   UNL     2      -8.950   9.725  70.532  1.00  0.00    -0.187 OA 
HETATM    9  C   UNL     2      -8.248   7.773  67.760  1.00  0.00    -0.126 A  
HETATM   10  N   UNL     2      -7.693   7.885  66.538  1.00  0.00    -0.095 NA 
HETATM   11  C   UNL     2      -9.396   7.035  67.676  1.00  0.00    -0.122 A  
HETATM   12  C   UNL     2      -8.948   8.738  69.789  1.00  0.00    -0.146 C  
HETATM   13  N   UNL     2      -9.539   6.665  66.376  1.00  0.00    -0.310 NA 
HETATM   14  C   UNL     2     -10.250   6.840  68.819  1.00  0.00    -0.175 C  
HETATM   15  N   UNL     2     -10.035   7.853  69.772  1.00  0.00    -0.184 N  
HETATM   16  H   UNL     2     -10.303   6.114  65.982  1.00  0.00     0.000 HD 
HETATM   17  C   UNL     2      -8.477   7.166  65.702  1.00  0.00    -0.134 A  
HETATM   18  O   UNL     2     -11.103   5.976  69.025  1.00  0.00    -0.351 OA 
ENDROOT
BRANCH   2  19
HETATM   19  C   UNL     1      -9.605  11.640  67.359  1.00  0.00    -0.166 C  
BRANCH  19  20
HETATM   20  C   UNL     1     -10.049  11.813  65.902  1.00  0.00    -0.234 C  
HETATM   21  O   UNL     1     -10.220  10.557  65.250  1.00  0.00    -0.298 OA 
HETATM   22  H   UNL     1     -10.494  10.664  64.347  1.00  0.00     0.000 HD 
ENDBRANCH  19  20
ENDBRANCH   2  19
TORSDOF 2
ENDMDL
MODEL      140
REMARK 921   NORMALIZED FREE ENERGY PREDICTED BY IDOCK:   -2.43 KCAL/MOL
REMARK 922        TOTAL FREE ENERGY PREDICTED BY IDOCK:   -3.22 KCAL/MOL
REMARK 923 INTER-LIGAND FREE ENERGY PREDICTED BY IDOCK:   -3.00 KCAL/MOL
REMARK 924 INTRA-LIGAND FREE ENERGY PREDICTED BY IDOCK:   -0.22 KCAL/MOL
REMARK 927      BINDING AFFINITY PREDICTED BY RF-SCORE:    0.00 PKD
ROOT
HETATM    1  C   UNL     1     -10.425   3.883  72.733  1.00  0.00    -0.153 C  
HETATM    2  N   UNL     1      -9.663   4.956  71.994  1.00  0.00    -0.160 N  
HETATM    3  C   UNL     2      -6.634   5.699  69.617  1.00  0.00    -0.050 C  
HETATM    4  C   UNL     1      -9.818   4.588  70.531  1.00  0.00    -0.227 C  
HETATM    5  C   UNL     1      -8.220   4.898  72.492  1.00  0.00    -0.115 C  
HETATM    6  N   UNL     2      -7.160   7.043  69.813  1.00  0.00    -0.065 N  
HETATM    7  C   UNL     2      -9.425   9.418  68.174  1.00  0.00    -0.133 C  
HETATM    8  O   UNL     2      -9.171   6.811  68.697  1.00  0.00    -0.134 OA 
HETATM    9  C   UNL     2      -6.589   7.868  70.747  1.00  0.00    -0.037 A  
HETATM   10  N   UNL     2      -5.978   7.515  71.894  1.00  0.00    -0.036 NA 
HETATM   11  C   UNL     2      -6.795   9.219  70.734  1.00  0.00    -0.100 A  
HETATM   12  C   UNL     2      -8.273   7.536  69.137  1.00  0.00    -0.131 C  
HETATM   13  N   UNL     2      -6.279   9.714  71.890  1.00  0.00    -0.297 NA 
HETATM   14  C   UNL     2      -7.523   9.858  69.669  1.00  0.00    -0.122 C  
HETATM   15  N   UNL     2      -8.355   8.930  69.014  1.00  0.00    -0.123 N  
HETATM   16  H   UNL     2      -6.284  10.690  72.188  1.00  0.00     0.000 HD 
HETATM   17  C   UNL     2      -5.758   8.666  72.570  1.00  0.00    -0.069 A  
HETATM   18  O   UNL     2      -7.526  11.039  69.315  1.00  0.00    -0.123 OA 
ENDROOT
BRANCH   2  19
HETATM   19  C   UNL     1     -10.104   6.411  72.321  1.00  0.00    -0.176 C  
BRANCH  19  20
HETATM   20  C   UNL     1     -11.267   6.968  71.493  1.00  0.00    -0.249 C  
HETATM   21  O   UNL     1     -12.482   6.993  72.238  1.00  0.00    -0.499 OA 
HETATM   22  H   UNL     1     -13.202   7.338  71.724  1.00  0.00     0.000 HD 
ENDBRANCH  19  20
ENDBRANCH   2  19
TORSDOF 2
ENDMDL
MODEL      141
REMARK 921   NORMALIZED FREE ENERGY PREDICTED BY IDOCK:   -2.43 KCAL/MOL
REMARK 922        TOTAL FREE ENERGY PREDICTED BY IDOCK:   -3.22 KCAL/MOL
REMARK 923 INTER-LIGAND FREE ENERGY PREDICTED BY IDOCK:   -2.97 KCAL/MOL
REMARK 924 INTRA-LIGAND FREE ENERGY PREDICTED BY IDOCK:   -0.25 KCAL/MOL
REMARK 927      BINDING AFFINITY PREDICTED BY RF-SCORE:    0.00 PKD
ROOT
HETATM    1  C   UNL     1     -10.477  13.850  66.597  1.00  0.00    -0.272 C  
HETATM    2  N   UNL     1      -9.874  12.483  66.809  1.00  0.00    -0.224 N  
HETATM    3  C   UNL     2     -10.636   8.682  67.396  1.00  0.00    -0.228 C  
HETATM    4  C   UNL     1     -10.347  11.674  65.617  1.00  0.00    -0.262 C  
HETATM    5  C   UNL     1     -10.400  11.968  68.147  1.00  0.00    -0.198 C  
HETATM    6  N   UNL     2      -9.179   8.672  67.413  1.00  0.00    -0.135 N  
HETATM    7  C   UNL     2      -6.369   8.072  65.134  1.00  0.00    -0.045 C  
HETATM    8  O   UNL     2      -8.788   9.201  65.197  1.00  0.00    -0.188 OA 
HETATM    9  C   UNL     2      -8.512   8.691  68.610  1.00  0.00    -0.130 A  
HETATM   10  N   UNL     2      -8.913   9.249  69.768  1.00  0.00    -0.158 NA 
HETATM   11  C   UNL     2      -7.196   8.334  68.705  1.00  0.00    -0.087 A  
HETATM   12  C   UNL     2      -8.400   8.705  66.260  1.00  0.00    -0.122 C  
HETATM   13  N   UNL     2      -6.782   8.659  69.958  1.00  0.00    -0.038 NA 
HETATM   14  C   UNL     2      -6.477   7.804  67.575  1.00  0.00    -0.055 C  
HETATM   15  N   UNL     2      -7.105   8.179  66.373  1.00  0.00    -0.073 N  
HETATM   16  H   UNL     2      -5.845   8.530  70.341  1.00  0.00     0.000 HD 
HETATM   17  C   UNL     2      -7.850   9.188  70.602  1.00  0.00    -0.146 A  
HETATM   18  O   UNL     2      -5.439   7.142  67.543  1.00  0.00    -0.021 OA 
ENDROOT
BRANCH   2  19
HETATM   19  C   UNL     1      -8.331  12.475  66.996  1.00  0.00    -0.144 C  
BRANCH  19  20
HETATM   20  C   UNL     1      -7.824  12.399  68.441  1.00  0.00    -0.142 C  
HETATM   21  O   UNL     1      -7.671  13.694  69.015  1.00  0.00    -0.301 OA 
HETATM   22  H   UNL     1      -7.357  13.647  69.910  1.00  0.00     0.000 HD 
ENDBRANCH  19  20
ENDBRANCH   2  19
TORSDOF 2
ENDMDL
MODEL      142
REMARK 921   NORMALIZED FREE ENERGY PREDICTED BY IDOCK:   -2.39 KCAL/MOL
REMARK 922        TOTAL FREE ENERGY PREDICTED BY IDOCK:   -3.18 KCAL/MOL
REMARK 923 INTER-LIGAND FREE ENERGY PREDICTED BY IDOCK:   -3.01 KCAL/MOL
REMARK 924 INTRA-LIGAND FREE ENERGY PREDICTED BY IDOCK:   -0.17 KCAL/MOL
REMARK 927      BINDING AFFINITY PREDICTED BY RF-SCORE:    0.00 PKD
ROOT
HETATM    1  C   UNL     1     -11.473  13.144  67.123  1.00  0.00    -0.334 C  
HETATM    2  N   UNL     1     -10.352  12.140  67.241  1.00  0.00    -0.211 N  
HETATM    3  C   UNL     2      -6.553  11.458  66.548  1.00  0.00    -0.071 C  
HETATM    4  C   UNL     1      -9.345  12.806  68.158  1.00  0.00    -0.214 C  
HETATM    5  C   UNL     1      -9.826  11.895  65.828  1.00  0.00    -0.238 C  
HETATM    6  N   UNL     2      -6.952  10.189  67.143  1.00  0.00    -0.086 N  
HETATM    7  C   UNL     2      -6.970   8.526  70.412  1.00  0.00    -0.038 C  
HETATM    8  O   UNL     2      -7.379  10.917  69.295  1.00  0.00    -0.112 OA 
HETATM    9  C   UNL     2      -7.258   9.125  66.335  1.00  0.00    -0.091 A  
HETATM   10  N   UNL     2      -7.779   9.156  65.093  1.00  0.00    -0.101 NA 
HETATM   11  C   UNL     2      -7.293   7.845  66.815  1.00  0.00    -0.089 A  
HETATM   12  C   UNL     2      -7.104  10.000  68.514  1.00  0.00    -0.071 C  
HETATM   13  N   UNL     2      -7.826   7.066  65.838  1.00  0.00    -0.101 NA 
HETATM   14  C   UNL     2      -6.891   7.537  68.163  1.00  0.00    -0.063 C  
HETATM   15  N   UNL     2      -6.972   8.683  68.975  1.00  0.00    -0.063 N  
HETATM   16  H   UNL     2      -7.997   6.061  65.888  1.00  0.00     0.000 HD 
HETATM   17  C   UNL     2      -8.088   7.875  64.785  1.00  0.00    -0.141 A  
HETATM   18  O   UNL     2      -6.545   6.461  68.654  1.00  0.00    -0.047 OA 
ENDROOT
BRANCH   2  19
HETATM   19  C   UNL     1     -10.791  10.727  67.718  1.00  0.00    -0.269 C  
BRANCH  19  20
HETATM   20  C   UNL     1     -10.928  10.536  69.232  1.00  0.00    -0.244 C  
HETATM   21  O   UNL     1     -11.615   9.329  69.552  1.00  0.00    -0.427 OA 
HETATM   22  H   UNL     1     -11.701   9.210  70.490  1.00  0.00     0.000 HD 
ENDBRANCH  19  20
ENDBRANCH   2  19
TORSDOF 2
ENDMDL
MODEL      143
REMARK 921   NORMALIZED FREE ENERGY PREDICTED BY IDOCK:   -2.39 KCAL/MOL
REMARK 922        TOTAL FREE ENERGY PREDICTED BY IDOCK:   -3.18 KCAL/MOL
REMARK 923 INTER-LIGAND FREE ENERGY PREDICTED BY IDOCK:   -2.72 KCAL/MOL
REMARK 924 INTRA-LIGAND FREE ENERGY PREDICTED BY IDOCK:   -0.46 KCAL/MOL
REMARK 927      BINDING AFFINITY PREDICTED BY RF-SCORE:    0.00 PKD
ROOT
HETATM    1  C   UNL     1     -11.807   7.910  71.411  1.00  0.00    -0.299 C  
HETATM    2  N   UNL     1     -10.794   7.023  70.729  1.00  0.00    -0.239 N  
HETATM    3  C   UNL     2      -7.037   5.905  70.633  1.00  0.00    -0.074 C  
HETATM    4  C   UNL     1     -10.317   6.087  71.822  1.00  0.00    -0.215 C  
HETATM    5  C   UNL     1      -9.699   7.937  70.183  1.00  0.00    -0.179 C  
HETATM    6  N   UNL     2      -7.585   5.105  69.547  1.00  0.00    -0.064 N  
HETATM    7  C   UNL     2      -8.921   1.740  68.960  1.00  0.00    -0.099 C  
HETATM    8  O   UNL     2      -8.935   3.692  70.782  1.00  0.00    -0.078 OA 
HETATM    9  C   UNL     2      -7.457   5.536  68.252  1.00  0.00    -0.073 A  
HETATM   10  N   UNL     2      -7.392   6.806  67.809  1.00  0.00    -0.094 NA 
HETATM   11  C   UNL     2      -7.627   4.689  67.192  1.00  0.00    -0.086 A  
HETATM   12  C   UNL     2      -8.302   3.928  69.747  1.00  0.00    -0.056 C  
HETATM   13  N   UNL     2      -7.645   5.454  66.068  1.00  0.00    -0.086 NA 
HETATM   14  C   UNL     2      -7.829   3.277  67.383  1.00  0.00    -0.077 C  
HETATM   15  N   UNL     2      -8.312   3.020  68.680  1.00  0.00    -0.063 N  
HETATM   16  H   UNL     2      -7.767   5.123  65.111  1.00  0.00     0.000 HD 
HETATM   17  C   UNL     2      -7.470   6.738  66.460  1.00  0.00    -0.078 A  
HETATM   18  O   UNL     2      -7.672   2.345  66.592  1.00  0.00    -0.069 OA 
ENDROOT
BRANCH   2  19
HETATM   19  C   UNL     1     -11.320   6.288  69.463  1.00  0.00    -0.404 C  
BRANCH  19  20
HETATM   20  C   UNL     1     -10.941   6.909  68.114  1.00  0.00    -0.147 C  
HETATM   21  O   UNL     1     -10.599   5.913  67.153  1.00  0.00    -0.235 OA 
HETATM   22  H   UNL     1     -10.364   6.297  66.317  1.00  0.00     0.000 HD 
ENDBRANCH  19  20
ENDBRANCH   2  19
TORSDOF 2
ENDMDL
MODEL      144
REMARK 921   NORMALIZED FREE ENERGY PREDICTED BY IDOCK:   -2.34 KCAL/MOL
REMARK 922        TOTAL FREE ENERGY PREDICTED BY IDOCK:   -3.12 KCAL/MOL
REMARK 923 INTER-LIGAND FREE ENERGY PREDICTED BY IDOCK:   -2.69 KCAL/MOL
REMARK 924 INTRA-LIGAND FREE ENERGY PREDICTED BY IDOCK:   -0.43 KCAL/MOL
REMARK 927      BINDING AFFINITY PREDICTED BY RF-SCORE:    0.00 PKD
ROOT
HETATM    1  C   UNL     1      -7.533   4.025  65.230  1.00  0.00    -0.080 C  
HETATM    2  N   UNL     1      -7.913   5.130  66.186  1.00  0.00    -0.103 N  
HETATM    3  C   UNL     2      -9.616   8.644  66.535  1.00  0.00    -0.237 C  
HETATM    4  C   UNL     1      -9.427   5.181  66.119  1.00  0.00    -0.159 C  
HETATM    5  C   UNL     1      -7.233   6.403  65.687  1.00  0.00    -0.074 C  
HETATM    6  N   UNL     2      -9.223   8.395  67.916  1.00  0.00    -0.136 N  
HETATM    7  C   UNL     2     -10.643   7.057  71.021  1.00  0.00    -0.218 C  
HETATM    8  O   UNL     2     -10.644   6.633  68.385  1.00  0.00    -0.200 OA 
HETATM    9  C   UNL     2      -8.065   8.943  68.403  1.00  0.00    -0.109 A  
HETATM   10  N   UNL     2      -6.940   9.232  67.722  1.00  0.00    -0.080 NA 
HETATM   11  C   UNL     2      -7.826   9.042  69.746  1.00  0.00    -0.086 A  
HETATM   12  C   UNL     2      -9.936   7.567  68.778  1.00  0.00    -0.172 C  
HETATM   13  N   UNL     2      -6.530   9.423  69.894  1.00  0.00    -0.043 NA 
HETATM   14  C   UNL     2      -8.829   8.688  70.716  1.00  0.00    -0.175 C  
HETATM   15  N   UNL     2      -9.777   7.815  70.148  1.00  0.00    -0.182 N  
HETATM   16  H   UNL     2      -6.039   9.574  70.776  1.00  0.00     0.000 HD 
HETATM   17  C   UNL     2      -6.014   9.564  68.651  1.00  0.00    -0.043 A  
HETATM   18  O   UNL     2      -8.926   9.009  71.901  1.00  0.00    -0.364 OA 
ENDROOT
BRANCH   2  19
HETATM   19  C   UNL     1      -7.358   4.961  67.629  1.00  0.00    -0.078 C  
BRANCH  19  20
HETATM   20  C   UNL     1      -7.958   3.818  68.456  1.00  0.00    -0.070 C  
HETATM   21  O   UNL     1      -8.872   4.300  69.437  1.00  0.00    -0.083 OA 
HETATM   22  H   UNL     1      -9.244   3.593  69.950  1.00  0.00     0.000 HD 
ENDBRANCH  19  20
ENDBRANCH   2  19
TORSDOF 2
ENDMDL
MODEL      145
REMARK 921   NORMALIZED FREE ENERGY PREDICTED BY IDOCK:   -2.31 KCAL/MOL
REMARK 922        TOTAL FREE ENERGY PREDICTED BY IDOCK:   -3.09 KCAL/MOL
REMARK 923 INTER-LIGAND FREE ENERGY PREDICTED BY IDOCK:   -2.65 KCAL/MOL
REMARK 924 INTRA-LIGAND FREE ENERGY PREDICTED BY IDOCK:   -0.44 KCAL/MOL
REMARK 927      BINDING AFFINITY PREDICTED BY RF-SCORE:    0.00 PKD
ROOT
HETATM    1  C   UNL     1     -12.192   7.418  71.883  1.00  0.00    -0.310 C  
HETATM    2  N   UNL     1     -10.836   7.523  71.230  1.00  0.00    -0.233 N  
HETATM    3  C   UNL     2      -7.004   8.092  71.836  1.00  0.00    -0.072 C  
HETATM    4  C   UNL     1     -10.044   6.371  71.818  1.00  0.00    -0.185 C  
HETATM    5  C   UNL     1     -10.276   8.898  71.588  1.00  0.00    -0.345 C  
HETATM    6  N   UNL     2      -7.029   7.942  70.387  1.00  0.00    -0.045 N  
HETATM    7  C   UNL     2      -6.555   5.343  67.843  1.00  0.00    -0.050 C  
HETATM    8  O   UNL     2      -7.621   5.711  70.264  1.00  0.00    -0.077 OA 
HETATM    9  C   UNL     2      -7.036   9.055  69.588  1.00  0.00    -0.059 A  
HETATM   10  N   UNL     2      -7.556  10.266  69.866  1.00  0.00    -0.163 NA 
HETATM   11  C   UNL     2      -6.710   8.991  68.262  1.00  0.00    -0.061 A  
HETATM   12  C   UNL     2      -7.110   6.709  69.745  1.00  0.00    -0.068 C  
HETATM   13  N   UNL     2      -7.016  10.197  67.715  1.00  0.00    -0.083 NA 
HETATM   14  C   UNL     2      -6.226   7.773  67.666  1.00  0.00    -0.050 C  
HETATM   15  N   UNL     2      -6.613   6.660  68.435  1.00  0.00    -0.056 N  
HETATM   16  H   UNL     2      -6.901  10.467  66.738  1.00  0.00     0.000 HD 
HETATM   17  C   UNL     2      -7.502  10.972  68.713  1.00  0.00    -0.116 A  
HETATM   18  O   UNL     2      -5.590   7.605  66.624  1.00  0.00    -0.027 OA 
ENDROOT
BRANCH   2  19
HETATM   19  C   UNL     1     -10.861   7.533  69.675  1.00  0.00    -0.202 C  
BRANCH  19  20
HETATM   20  C   UNL     1     -11.199   6.201  68.995  1.00  0.00    -0.304 C  
HETATM   21  O   UNL     1     -10.055   5.622  68.372  1.00  0.00    -0.149 OA 
HETATM   22  H   UNL     1     -10.264   4.798  67.950  1.00  0.00     0.000 HD 
ENDBRANCH  19  20
ENDBRANCH   2  19
TORSDOF 2
ENDMDL
MODEL      146
REMARK 921   NORMALIZED FREE ENERGY PREDICTED BY IDOCK:   -2.30 KCAL/MOL
REMARK 922        TOTAL FREE ENERGY PREDICTED BY IDOCK:   -3.08 KCAL/MOL
REMARK 923 INTER-LIGAND FREE ENERGY PREDICTED BY IDOCK:   -2.84 KCAL/MOL
REMARK 924 INTRA-LIGAND FREE ENERGY PREDICTED BY IDOCK:   -0.23 KCAL/MOL
REMARK 927      BINDING AFFINITY PREDICTED BY RF-SCORE:    0.00 PKD
ROOT
HETATM    1  C   UNL     1      -9.144   3.600  66.119  1.00  0.00    -0.154 C  
HETATM    2  N   UNL     1      -8.955   4.234  67.476  1.00  0.00    -0.111 N  
HETATM    3  C   UNL     2      -6.942   4.111  70.838  1.00  0.00    -0.033 C  
HETATM    4  C   UNL     1      -7.530   4.751  67.454  1.00  0.00    -0.082 C  
HETATM    5  C   UNL     1      -9.196   3.141  68.514  1.00  0.00    -0.171 C  
HETATM    6  N   UNL     2      -7.835   5.231  71.099  1.00  0.00    -0.100 N  
HETATM    7  C   UNL     2      -7.853   8.892  70.887  1.00  0.00    -0.133 C  
HETATM    8  O   UNL     2      -6.982   6.739  69.569  1.00  0.00    -0.062 OA 
HETATM    9  C   UNL     2      -8.985   5.031  71.816  1.00  0.00    -0.133 A  
HETATM   10  N   UNL     2      -9.731   3.911  71.884  1.00  0.00    -0.160 NA 
HETATM   11  C   UNL     2      -9.668   6.070  72.385  1.00  0.00    -0.158 A  
HETATM   12  C   UNL     2      -7.621   6.514  70.602  1.00  0.00    -0.102 C  
HETATM   13  N   UNL     2     -10.851   5.575  72.833  1.00  0.00    -0.249 NA 
HETATM   14  C   UNL     2      -9.148   7.413  72.362  1.00  0.00    -0.132 C  
HETATM   15  N   UNL     2      -8.216   7.562  71.318  1.00  0.00    -0.099 N  
HETATM   16  H   UNL     2     -11.593   6.100  73.297  1.00  0.00     0.000 HD 
HETATM   17  C   UNL     2     -10.860   4.252  72.547  1.00  0.00     0.011 A  
HETATM   18  O   UNL     2      -9.429   8.378  73.074  1.00  0.00    -0.250 OA 
ENDROOT
BRANCH   2  19
HETATM   19  C   UNL     1     -10.008   5.320  67.838  1.00  0.00    -0.160 C  
BRANCH  19  20
HETATM   20  C   UNL     1      -9.682   6.752  67.398  1.00  0.00    -0.133 C  
HETATM   21  O   UNL     1     -10.159   7.021  66.083  1.00  0.00    -0.431 OA 
HETATM   22  H   UNL     1      -9.958   7.908  65.810  1.00  0.00     0.000 HD 
ENDBRANCH  19  20
ENDBRANCH   2  19
TORSDOF 2
ENDMDL
MODEL      147
REMARK 921   NORMALIZED FREE ENERGY PREDICTED BY IDOCK:   -2.24 KCAL/MOL
REMARK 922        TOTAL FREE ENERGY PREDICTED BY IDOCK:   -3.01 KCAL/MOL
REMARK 923 INTER-LIGAND FREE ENERGY PREDICTED BY IDOCK:   -2.52 KCAL/MOL
REMARK 924 INTRA-LIGAND FREE ENERGY PREDICTED BY IDOCK:   -0.49 KCAL/MOL
REMARK 927      BINDING AFFINITY PREDICTED BY RF-SCORE:    0.00 PKD
ROOT
HETATM    1  C   UNL     1     -10.296   8.594  68.240  1.00  0.00    -0.207 C  
HETATM    2  N   UNL     1      -9.900   7.848  69.490  1.00  0.00    -0.174 N  
HETATM    3  C   UNL     2      -9.565   8.046  73.392  1.00  0.00    -0.207 C  
HETATM    4  C   UNL     1     -11.176   7.771  70.304  1.00  0.00    -0.206 C  
HETATM    5  C   UNL     1      -8.792   8.659  70.160  1.00  0.00    -0.141 C  
HETATM    6  N   UNL     2      -9.092   6.691  73.149  1.00  0.00    -0.127 N  
HETATM    7  C   UNL     2     -10.369   3.252  73.126  1.00  0.00    -0.159 C  
HETATM    8  O   UNL     2     -11.074   5.736  72.441  1.00  0.00    -0.253 OA 
HETATM    9  C   UNL     2      -7.746   6.442  73.077  1.00  0.00    -0.098 A  
HETATM   10  N   UNL     2      -6.775   7.277  72.660  1.00  0.00    -0.062 NA 
HETATM   11  C   UNL     2      -7.240   5.178  73.203  1.00  0.00    -0.090 A  
HETATM   12  C   UNL     2      -9.941   5.612  72.918  1.00  0.00    -0.176 C  
HETATM   13  N   UNL     2      -5.922   5.240  72.878  1.00  0.00    -0.026 NA 
HETATM   14  C   UNL     2      -8.084   4.061  73.538  1.00  0.00    -0.089 C  
HETATM   15  N   UNL     2      -9.425   4.343  73.215  1.00  0.00    -0.119 N  
HETATM   16  H   UNL     2      -5.263   4.461  72.862  1.00  0.00     0.000 HD 
HETATM   17  C   UNL     2      -5.648   6.532  72.579  1.00  0.00    -0.037 A  
HETATM   18  O   UNL     2      -7.785   2.962  74.006  1.00  0.00    -0.057 OA 
ENDROOT
BRANCH   2  19
HETATM   19  C   UNL     1      -9.237   6.464  69.239  1.00  0.00    -0.135 C  
BRANCH  19  20
HETATM   20  C   UNL     1      -7.704   6.431  69.272  1.00  0.00    -0.101 C  
HETATM   21  O   UNL     1      -7.213   5.171  69.723  1.00  0.00    -0.057 OA 
HETATM   22  H   UNL     1      -6.264   5.151  69.744  1.00  0.00     0.000 HD 
ENDBRANCH  19  20
ENDBRANCH   2  19
TORSDOF 2
ENDMDL
MODEL      148
REMARK 921   NORMALIZED FREE ENERGY PREDICTED BY IDOCK:   -2.23 KCAL/MOL
REMARK 922        TOTAL FREE ENERGY PREDICTED BY IDOCK:   -3.00 KCAL/MOL
REMARK 923 INTER-LIGAND FREE ENERGY PREDICTED BY IDOCK:   -2.78 KCAL/MOL
REMARK 924 INTRA-LIGAND FREE ENERGY PREDICTED BY IDOCK:   -0.22 KCAL/MOL
REMARK 927      BINDING AFFINITY PREDICTED BY RF-SCORE:    0.00 PKD
ROOT
HETATM    1  C   UNL     1      -5.704  12.708  69.084  1.00  0.00    -0.076 C  
HETATM    2  N   UNL     1      -6.368  14.035  68.807  1.00  0.00    -0.084 N  
HETATM    3  C   UNL     2      -7.020  16.812  66.116  1.00  0.00     0.165 C  
HETATM    4  C   UNL     1      -7.381  13.730  67.721  1.00  0.00    -0.164 C  
HETATM    5  C   UNL     1      -5.268  14.999  68.366  1.00  0.00    -0.110 C  
HETATM    6  N   UNL     2      -7.725  17.373  67.260  1.00  0.00    -0.195 N  
HETATM    7  C   UNL     2     -11.112  17.502  68.660  1.00  0.00     0.255 C  
HETATM    8  O   UNL     2      -9.437  15.829  67.424  1.00  0.00    -0.210 OA 
HETATM    9  C   UNL     2      -7.111  18.318  68.041  1.00  0.00    -0.227 A  
HETATM   10  N   UNL     2      -5.794  18.455  68.286  1.00  0.00    -0.177 NA 
HETATM   11  C   UNL     2      -7.821  19.121  68.889  1.00  0.00    -0.316 A  
HETATM   12  C   UNL     2      -8.992  16.958  67.658  1.00  0.00    -0.219 C  
HETATM   13  N   UNL     2      -6.920  19.785  69.660  1.00  0.00    -0.294 NA 
HETATM   14  C   UNL     2      -9.261  19.099  68.916  1.00  0.00    -0.318 C  
HETATM   15  N   UNL     2      -9.744  17.884  68.395  1.00  0.00    -0.323 N  
HETATM   16  H   UNL     2      -7.131  20.455  70.401  1.00  0.00     0.000 HD 
HETATM   17  C   UNL     2      -5.689  19.391  69.258  1.00  0.00    -0.234 A  
HETATM   18  O   UNL     2     -10.053  19.941  69.342  1.00  0.00    -0.357 OA 
ENDROOT
BRANCH   2  19
HETATM   19  C   UNL     1      -6.982  14.729  70.056  1.00  0.00    -0.083 C  
BRANCH  19  20
HETATM   20  C   UNL     1      -6.123  15.812  70.719  1.00  0.00     0.313 C  
HETATM   21  O   UNL     1      -5.192  15.254  71.643  1.00  0.00    -0.128 OA 
HETATM   22  H   UNL     1      -4.660  15.924  72.054  1.00  0.00     0.000 HD 
ENDBRANCH  19  20
ENDBRANCH   2  19
TORSDOF 2
ENDMDL
MODEL      149
REMARK 921   NORMALIZED FREE ENERGY PREDICTED BY IDOCK:   -1.95 KCAL/MOL
REMARK 922        TOTAL FREE ENERGY PREDICTED BY IDOCK:   -2.68 KCAL/MOL
REMARK 923 INTER-LIGAND FREE ENERGY PREDICTED BY IDOCK:   -2.53 KCAL/MOL
REMARK 924 INTRA-LIGAND FREE ENERGY PREDICTED BY IDOCK:   -0.15 KCAL/MOL
REMARK 927      BINDING AFFINITY PREDICTED BY RF-SCORE:    0.00 PKD
ROOT
HETATM    1  C   UNL     1     -11.190   8.264  70.902  1.00  0.00    -0.265 C  
HETATM    2  N   UNL     1     -10.360   7.307  70.081  1.00  0.00    -0.208 N  
HETATM    3  C   UNL     2      -9.404   3.548  69.504  1.00  0.00    -0.173 C  
HETATM    4  C   UNL     1     -11.379   6.428  69.383  1.00  0.00    -0.377 C  
HETATM    5  C   UNL     1      -9.461   6.550  71.056  1.00  0.00    -0.164 C  
HETATM    6  N   UNL     2      -8.582   4.195  68.491  1.00  0.00    -0.091 N  
HETATM    7  C   UNL     2      -8.699   5.032  64.922  1.00  0.00    -0.150 C  
HETATM    8  O   UNL     2     -10.259   4.945  67.088  1.00  0.00    -0.195 OA 
HETATM    9  C   UNL     2      -7.263   4.458  68.751  1.00  0.00    -0.056 A  
HETATM   10  N   UNL     2      -6.694   4.722  69.944  1.00  0.00    -0.036 NA 
HETATM   11  C   UNL     2      -6.372   4.729  67.750  1.00  0.00    -0.040 A  
HETATM   12  C   UNL     2      -9.078   4.629  67.265  1.00  0.00    -0.123 C  
HETATM   13  N   UNL     2      -5.222   5.148  68.340  1.00  0.00    -0.003 NA 
HETATM   14  C   UNL     2      -6.749   4.632  66.364  1.00  0.00    -0.053 C  
HETATM   15  N   UNL     2      -8.145   4.738  66.224  1.00  0.00    -0.107 N  
HETATM   16  H   UNL     2      -4.366   5.438  67.864  1.00  0.00     0.000 HD 
HETATM   17  C   UNL     2      -5.425   5.108  69.677  1.00  0.00    -0.011 A  
HETATM   18  O   UNL     2      -6.040   4.511  65.363  1.00  0.00    -0.022 OA 
ENDROOT
BRANCH   2  19
HETATM   19  C   UNL     1      -9.354   7.987  69.110  1.00  0.00    -0.151 C  
BRANCH  19  20
HETATM   20  C   UNL     1      -9.922   9.090  68.209  1.00  0.00    -0.173 C  
HETATM   21  O   UNL     1      -9.274  10.339  68.432  1.00  0.00    -0.129 OA 
HETATM   22  H   UNL     1      -9.626  11.023  67.874  1.00  0.00     0.000 HD 
ENDBRANCH  19  20
ENDBRANCH   2  19
TORSDOF 2
ENDMDL
MODEL      150
REMARK 921   NORMALIZED FREE ENERGY PREDICTED BY IDOCK:   -1.91 KCAL/MOL
REMARK 922        TOTAL FREE ENERGY PREDICTED BY IDOCK:   -2.64 KCAL/MOL
REMARK 923 INTER-LIGAND FREE ENERGY PREDICTED BY IDOCK:   -2.20 KCAL/MOL
REMARK 924 INTRA-LIGAND FREE ENERGY PREDICTED BY IDOCK:   -0.43 KCAL/MOL
REMARK 927      BINDING AFFINITY PREDICTED BY RF-SCORE:    0.00 PKD
ROOT
HETATM    1  C   UNL     1      -7.981  10.459  67.066  1.00  0.00    -0.116 C  
HETATM    2  N   UNL     1      -8.209   8.975  67.223  1.00  0.00    -0.104 N  
HETATM    3  C   UNL     2     -10.828   6.070  66.948  1.00  0.00    -0.318 C  
HETATM    4  C   UNL     1      -8.581   8.501  65.832  1.00  0.00    -0.163 C  
HETATM    5  C   UNL     1      -9.327   8.803  68.250  1.00  0.00    -0.137 C  
HETATM    6  N   UNL     2      -9.651   5.332  67.387  1.00  0.00    -0.127 N  
HETATM    7  C   UNL     2      -6.887   3.388  65.962  1.00  0.00    -0.053 C  
HETATM    8  O   UNL     2      -8.344   5.577  65.496  1.00  0.00    -0.124 OA 
HETATM    9  C   UNL     2      -9.496   5.025  68.713  1.00  0.00    -0.139 A  
HETATM   10  N   UNL     2      -9.944   5.718  69.777  1.00  0.00    -0.176 NA 
HETATM   11  C   UNL     2      -8.624   4.058  69.130  1.00  0.00    -0.079 A  
HETATM   12  C   UNL     2      -8.616   4.962  66.532  1.00  0.00    -0.109 C  
HETATM   13  N   UNL     2      -8.550   4.143  70.484  1.00  0.00    -0.076 NA 
HETATM   14  C   UNL     2      -7.914   3.230  68.189  1.00  0.00    -0.070 C  
HETATM   15  N   UNL     2      -7.848   3.859  66.932  1.00  0.00    -0.088 N  
HETATM   16  H   UNL     2      -7.974   3.565  71.098  1.00  0.00     0.000 HD 
HETATM   17  C   UNL     2      -9.383   5.139  70.865  1.00  0.00    -0.150 A  
HETATM   18  O   UNL     2      -7.371   2.137  68.357  1.00  0.00    -0.046 OA 
ENDROOT
BRANCH   2  19
HETATM   19  C   UNL     1      -7.017   8.197  67.849  1.00  0.00    -0.078 C  
BRANCH  19  20
HETATM   20  C   UNL     1      -5.784   8.014  66.956  1.00  0.00    -0.037 C  
HETATM   21  O   UNL     1      -5.657   6.669  66.500  1.00  0.00    -0.013 OA 
HETATM   22  H   UNL     1      -4.893   6.556  65.947  1.00  0.00     0.000 HD 
ENDBRANCH  19  20
ENDBRANCH   2  19
TORSDOF 2
ENDMDL
MODEL      151
REMARK 921   NORMALIZED FREE ENERGY PREDICTED BY IDOCK:   -1.81 KCAL/MOL
REMARK 922        TOTAL FREE ENERGY PREDICTED BY IDOCK:   -2.53 KCAL/MOL
REMARK 923 INTER-LIGAND FREE ENERGY PREDICTED BY IDOCK:   -2.26 KCAL/MOL
REMARK 924 INTRA-LIGAND FREE ENERGY PREDICTED BY IDOCK:   -0.27 KCAL/MOL
REMARK 927      BINDING AFFINITY PREDICTED BY RF-SCORE:    0.00 PKD
ROOT
HETATM    1  C   UNL     1     -10.160   7.695  73.390  1.00  0.00    -0.319 C  
HETATM    2  N   UNL     1      -9.317   7.360  72.184  1.00  0.00    -0.135 N  
HETATM    3  C   UNL     2      -5.701   6.546  70.906  1.00  0.00    -0.027 C  
HETATM    4  C   UNL     1      -8.768   5.979  72.481  1.00  0.00    -0.122 C  
HETATM    5  C   UNL     1      -8.242   8.440  72.080  1.00  0.00    -0.155 C  
HETATM    6  N   UNL     2      -6.449   6.486  69.657  1.00  0.00    -0.045 N  
HETATM    7  C   UNL     2      -8.098   4.012  67.509  1.00  0.00    -0.091 C  
HETATM    8  O   UNL     2      -7.720   4.604  70.086  1.00  0.00    -0.053 OA 
HETATM    9  C   UNL     2      -6.467   7.572  68.822  1.00  0.00    -0.048 A  
HETATM   10  N   UNL     2      -6.369   8.873  69.158  1.00  0.00    -0.042 NA 
HETATM   11  C   UNL     2      -6.841   7.465  67.511  1.00  0.00    -0.078 A  
HETATM   12  C   UNL     2      -7.218   5.390  69.276  1.00  0.00    -0.065 C  
HETATM   13  N   UNL     2      -6.955   8.728  67.023  1.00  0.00    -0.074 NA 
HETATM   14  C   UNL     2      -7.119   6.186  66.911  1.00  0.00    -0.073 C  
HETATM   15  N   UNL     2      -7.439   5.238  67.900  1.00  0.00    -0.076 N  
HETATM   16  H   UNL     2      -7.230   8.991  66.075  1.00  0.00     0.000 HD 
HETATM   17  C   UNL     2      -6.634   9.573  68.031  1.00  0.00    -0.062 A  
HETATM   18  O   UNL     2      -7.139   5.863  65.722  1.00  0.00    -0.066 OA 
ENDROOT
BRANCH   2  19
HETATM   19  C   UNL     1     -10.063   7.455  70.823  1.00  0.00    -0.189 C  
BRANCH  19  20
HETATM   20  C   UNL     1      -9.937   8.786  70.073  1.00  0.00    -0.187 C  
HETATM   21  O   UNL     1     -11.212   9.349  69.777  1.00  0.00    -0.355 OA 
HETATM   22  H   UNL     1     -11.134  10.173  69.312  1.00  0.00     0.000 HD 
ENDBRANCH  19  20
ENDBRANCH   2  19
TORSDOF 2
ENDMDL
MODEL      152
REMARK 921   NORMALIZED FREE ENERGY PREDICTED BY IDOCK:   -1.81 KCAL/MOL
REMARK 922        TOTAL FREE ENERGY PREDICTED BY IDOCK:   -2.53 KCAL/MOL
REMARK 923 INTER-LIGAND FREE ENERGY PREDICTED BY IDOCK:   -2.21 KCAL/MOL
REMARK 924 INTRA-LIGAND FREE ENERGY PREDICTED BY IDOCK:   -0.32 KCAL/MOL
REMARK 927      BINDING AFFINITY PREDICTED BY RF-SCORE:    0.00 PKD
ROOT
HETATM    1  C   UNL     1      -6.456   9.390  64.770  1.00  0.00    -0.079 C  
HETATM    2  N   UNL     1      -7.000   8.897  66.089  1.00  0.00    -0.080 N  
HETATM    3  C   UNL     2      -7.695   9.821  69.835  1.00  0.00    -0.157 C  
HETATM    4  C   UNL     1      -8.177   9.807  66.375  1.00  0.00    -0.120 C  
HETATM    5  C   UNL     1      -5.868   9.017  67.108  1.00  0.00    -0.046 C  
HETATM    6  N   UNL     2      -8.173   8.446  69.803  1.00  0.00    -0.117 N  
HETATM    7  C   UNL     2     -11.306   6.591  69.359  1.00  0.00    -0.332 C  
HETATM    8  O   UNL     2     -10.008   8.732  68.427  1.00  0.00    -0.167 OA 
HETATM    9  C   UNL     2      -7.359   7.433  70.237  1.00  0.00    -0.078 A  
HETATM   10  N   UNL     2      -6.013   7.381  70.196  1.00  0.00    -0.024 NA 
HETATM   11  C   UNL     2      -7.854   6.199  70.559  1.00  0.00    -0.106 A  
HETATM   12  C   UNL     2      -9.414   8.077  69.290  1.00  0.00    -0.155 C  
HETATM   13  N   UNL     2      -6.790   5.375  70.742  1.00  0.00    -0.049 NA 
HETATM   14  C   UNL     2      -9.271   5.940  70.574  1.00  0.00    -0.152 C  
HETATM   15  N   UNL     2      -9.952   6.877  69.775  1.00  0.00    -0.177 N  
HETATM   16  H   UNL     2      -6.824   4.384  70.981  1.00  0.00     0.000 HD 
HETATM   17  C   UNL     2      -5.675   6.119  70.548  1.00  0.00    -0.018 A  
HETATM   18  O   UNL     2      -9.900   5.041  71.135  1.00  0.00    -0.168 OA 
ENDROOT
BRANCH   2  19
HETATM   19  C   UNL     1      -7.359   7.384  66.120  1.00  0.00    -0.082 C  
BRANCH  19  20
HETATM   20  C   UNL     1      -6.351   6.463  66.816  1.00  0.00    -0.041 C  
HETATM   21  O   UNL     1      -6.835   5.126  66.911  1.00  0.00    -0.060 OA 
HETATM   22  H   UNL     1      -6.211   4.555  67.343  1.00  0.00     0.000 HD 
ENDBRANCH  19  20
ENDBRANCH   2  19
TORSDOF 2
ENDMDL
MODEL      153
REMARK 921   NORMALIZED FREE ENERGY PREDICTED BY IDOCK:   -1.81 KCAL/MOL
REMARK 922        TOTAL FREE ENERGY PREDICTED BY IDOCK:   -2.53 KCAL/MOL
REMARK 923 INTER-LIGAND FREE ENERGY PREDICTED BY IDOCK:   -2.40 KCAL/MOL
REMARK 924 INTRA-LIGAND FREE ENERGY PREDICTED BY IDOCK:   -0.12 KCAL/MOL
REMARK 927      BINDING AFFINITY PREDICTED BY RF-SCORE:    0.00 PKD
ROOT
HETATM    1  C   UNL     1     -11.329   8.717  70.592  1.00  0.00    -0.247 C  
HETATM    2  N   UNL     1     -10.257   7.659  70.477  1.00  0.00    -0.200 N  
HETATM    3  C   UNL     2      -7.579   6.029  68.123  1.00  0.00    -0.094 C  
HETATM    4  C   UNL     1      -8.983   8.440  70.226  1.00  0.00    -0.147 C  
HETATM    5  C   UNL     1     -10.657   6.747  69.319  1.00  0.00    -0.231 C  
HETATM    6  N   UNL     2      -7.401   5.231  69.329  1.00  0.00    -0.057 N  
HETATM    7  C   UNL     2      -5.280   5.132  72.320  1.00  0.00    -0.008 C  
HETATM    8  O   UNL     2      -6.535   6.863  70.718  1.00  0.00    -0.045 OA 
HETATM    9  C   UNL     2      -8.010   4.008  69.431  1.00  0.00    -0.055 A  
HETATM   10  N   UNL     2      -9.168   3.614  68.868  1.00  0.00    -0.147 NA 
HETATM   11  C   UNL     2      -7.610   3.081  70.353  1.00  0.00    -0.043 A  
HETATM   12  C   UNL     2      -6.682   5.669  70.438  1.00  0.00    -0.048 C  
HETATM   13  N   UNL     2      -8.532   2.082  70.342  1.00  0.00    -0.045 NA 
HETATM   14  C   UNL     2      -6.452   3.296  71.181  1.00  0.00    -0.019 C  
HETATM   15  N   UNL     2      -6.157   4.669  71.268  1.00  0.00    -0.017 N  
HETATM   16  H   UNL     2      -8.528   1.246  70.926  1.00  0.00     0.000 HD 
HETATM   17  C   UNL     2      -9.458   2.409  69.410  1.00  0.00    -0.056 A  
HETATM   18  O   UNL     2      -5.766   2.481  71.801  1.00  0.00    -0.008 OA 
ENDROOT
BRANCH   2  19
HETATM   19  C   UNL     1     -10.167   6.691  71.690  1.00  0.00    -0.192 C  
BRANCH  19  20
HETATM   20  C   UNL     1     -10.686   7.231  73.028  1.00  0.00    -0.339 C  
HETATM   21  O   UNL     1     -10.967   6.179  73.948  1.00  0.00    -0.403 OA 
HETATM   22  H   UNL     1     -11.289   6.513  74.777  1.00  0.00     0.000 HD 
ENDBRANCH  19  20
ENDBRANCH   2  19
TORSDOF 2
ENDMDL
MODEL      154
REMARK 921   NORMALIZED FREE ENERGY PREDICTED BY IDOCK:   -1.75 KCAL/MOL
REMARK 922        TOTAL FREE ENERGY PREDICTED BY IDOCK:   -2.46 KCAL/MOL
REMARK 923 INTER-LIGAND FREE ENERGY PREDICTED BY IDOCK:   -2.15 KCAL/MOL
REMARK 924 INTRA-LIGAND FREE ENERGY PREDICTED BY IDOCK:   -0.31 KCAL/MOL
REMARK 927      BINDING AFFINITY PREDICTED BY RF-SCORE:    0.00 PKD
ROOT
HETATM    1  C   UNL     1      -6.464  10.063  70.410  1.00  0.00    -0.125 C  
HETATM    2  N   UNL     1      -7.108   8.764  69.991  1.00  0.00    -0.046 N  
HETATM    3  C   UNL     2      -8.984   5.551  71.229  1.00  0.00    -0.142 C  
HETATM    4  C   UNL     1      -8.562   8.917  70.393  1.00  0.00    -0.180 C  
HETATM    5  C   UNL     1      -6.379   7.647  70.735  1.00  0.00    -0.038 C  
HETATM    6  N   UNL     2      -8.926   5.295  69.796  1.00  0.00    -0.110 N  
HETATM    7  C   UNL     2     -10.998   5.725  66.800  1.00  0.00    -0.154 C  
HETATM    8  O   UNL     2     -10.346   6.970  69.072  1.00  0.00    -0.187 OA 
HETATM    9  C   UNL     2      -7.942   4.488  69.288  1.00  0.00    -0.069 A  
HETATM   10  N   UNL     2      -6.699   4.300  69.770  1.00  0.00    -0.033 NA 
HETATM   11  C   UNL     2      -8.038   3.935  68.041  1.00  0.00    -0.088 A  
HETATM   12  C   UNL     2      -9.792   5.882  68.877  1.00  0.00    -0.145 C  
HETATM   13  N   UNL     2      -6.832   3.376  67.757  1.00  0.00    -0.049 NA 
HETATM   14  C   UNL     2      -9.231   4.076  67.247  1.00  0.00    -0.165 C  
HETATM   15  N   UNL     2      -9.977   5.190  67.673  1.00  0.00    -0.161 N  
HETATM   16  H   UNL     2      -6.575   2.893  66.896  1.00  0.00     0.000 HD 
HETATM   17  C   UNL     2      -6.038   3.581  68.834  1.00  0.00    -0.028 A  
HETATM   18  O   UNL     2      -9.623   3.405  66.290  1.00  0.00    -0.150 OA 
ENDROOT
BRANCH   2  19
HETATM   19  C   UNL     1      -6.911   8.394  68.494  1.00  0.00    -0.064 C  
BRANCH  19  20
HETATM   20  C   UNL     1      -7.953   8.948  67.516  1.00  0.00    -0.101 C  
HETATM   21  O   UNL     1      -8.376   7.960  66.580  1.00  0.00    -0.118 OA 
HETATM   22  H   UNL     1      -9.022   8.302  65.974  1.00  0.00     0.000 HD 
ENDBRANCH  19  20
ENDBRANCH   2  19
TORSDOF 2
ENDMDL
MODEL      155
REMARK 921   NORMALIZED FREE ENERGY PREDICTED BY IDOCK:   -1.69 KCAL/MOL
REMARK 922        TOTAL FREE ENERGY PREDICTED BY IDOCK:   -2.40 KCAL/MOL
REMARK 923 INTER-LIGAND FREE ENERGY PREDICTED BY IDOCK:   -2.28 KCAL/MOL
REMARK 924 INTRA-LIGAND FREE ENERGY PREDICTED BY IDOCK:   -0.12 KCAL/MOL
REMARK 927      BINDING AFFINITY PREDICTED BY RF-SCORE:    0.00 PKD
ROOT
HETATM    1  C   UNL     1      -6.424   2.909  68.502  1.00  0.00    -0.029 C  
HETATM    2  N   UNL     1      -6.804   4.370  68.514  1.00  0.00    -0.050 N  
HETATM    3  C   UNL     2      -5.836   7.940  69.813  1.00  0.00    -0.023 C  
HETATM    4  C   UNL     1      -5.642   5.067  67.835  1.00  0.00    -0.016 C  
HETATM    5  C   UNL     1      -6.989   4.768  69.977  1.00  0.00    -0.049 C  
HETATM    6  N   UNL     2      -7.053   8.243  69.071  1.00  0.00    -0.064 N  
HETATM    7  C   UNL     2      -8.078   9.395  65.743  1.00  0.00    -0.114 C  
HETATM    8  O   UNL     2      -6.293   7.803  66.933  1.00  0.00    -0.051 OA 
HETATM    9  C   UNL     2      -8.245   8.358  69.737  1.00  0.00    -0.119 A  
HETATM   10  N   UNL     2      -8.621   7.730  70.869  1.00  0.00    -0.127 NA 
HETATM   11  C   UNL     2      -9.328   8.972  69.173  1.00  0.00    -0.148 A  
HETATM   12  C   UNL     2      -7.095   8.367  67.685  1.00  0.00    -0.083 C  
HETATM   13  N   UNL     2     -10.391   8.736  69.986  1.00  0.00    -0.198 NA 
HETATM   14  C   UNL     2      -9.236   9.635  67.898  1.00  0.00    -0.124 C  
HETATM   15  N   UNL     2      -8.141   9.142  67.165  1.00  0.00    -0.109 N  
HETATM   16  H   UNL     2     -11.351   9.050  69.837  1.00  0.00     0.000 HD 
HETATM   17  C   UNL     2      -9.936   8.004  71.030  1.00  0.00    -0.182 A  
HETATM   18  O   UNL     2      -9.969  10.492  67.402  1.00  0.00    -0.170 OA 
ENDROOT
BRANCH   2  19
HETATM   19  C   UNL     1      -8.184   4.688  67.872  1.00  0.00    -0.099 C  
BRANCH  19  20
HETATM   20  C   UNL     1      -8.815   3.569  67.034  1.00  0.00    -0.131 C  
HETATM   21  O   UNL     1     -10.114   3.927  66.569  1.00  0.00    -0.390 OA 
HETATM   22  H   UNL     1     -10.505   3.234  66.050  1.00  0.00     0.000 HD 
ENDBRANCH  19  20
ENDBRANCH   2  19
TORSDOF 2
ENDMDL
MODEL      156
REMARK 921   NORMALIZED FREE ENERGY PREDICTED BY IDOCK:   -1.69 KCAL/MOL
REMARK 922        TOTAL FREE ENERGY PREDICTED BY IDOCK:   -2.39 KCAL/MOL
REMARK 923 INTER-LIGAND FREE ENERGY PREDICTED BY IDOCK:   -2.19 KCAL/MOL
REMARK 924 INTRA-LIGAND FREE ENERGY PREDICTED BY IDOCK:   -0.20 KCAL/MOL
REMARK 927      BINDING AFFINITY PREDICTED BY RF-SCORE:    0.00 PKD
ROOT
HETATM    1  C   UNL     1     -11.013   7.654  69.486  1.00  0.00    -0.097 C  
HETATM    2  N   UNL     1      -9.930   7.825  68.449  1.00  0.00    -0.173 N  
HETATM    3  C   UNL     2      -6.460   6.524  67.168  1.00  0.00    -0.042 C  
HETATM    4  C   UNL     1      -9.913   6.507  67.701  1.00  0.00    -0.130 C  
HETATM    5  C   UNL     1      -8.636   8.120  69.204  1.00  0.00    -0.136 C  
HETATM    6  N   UNL     2      -6.718   7.594  66.213  1.00  0.00    -0.056 N  
HETATM    7  C   UNL     2      -8.128   8.057  62.859  1.00  0.00    -0.126 C  
HETATM    8  O   UNL     2      -8.518   6.661  65.102  1.00  0.00    -0.122 OA 
HETATM    9  C   UNL     2      -6.150   8.826  66.402  1.00  0.00    -0.060 A  
HETATM   10  N   UNL     2      -5.826   9.414  67.570  1.00  0.00    -0.045 NA 
HETATM   11  C   UNL     2      -6.063   9.741  65.390  1.00  0.00    -0.074 A  
HETATM   12  C   UNL     2      -7.574   7.458  65.123  1.00  0.00    -0.104 C  
HETATM   13  N   UNL     2      -5.654  10.913  65.943  1.00  0.00    -0.141 NA 
HETATM   14  C   UNL     2      -6.452   9.411  64.044  1.00  0.00    -0.095 C  
HETATM   15  N   UNL     2      -7.339   8.318  64.042  1.00  0.00    -0.097 N  
HETATM   16  H   UNL     2      -5.504  11.796  65.453  1.00  0.00     0.000 HD 
HETATM   17  C   UNL     2      -5.485  10.688  67.267  1.00  0.00    -0.041 A  
HETATM   18  O   UNL     2      -6.148   9.955  62.981  1.00  0.00    -0.105 OA 
ENDROOT
BRANCH   2  19
HETATM   19  C   UNL     1     -10.105   9.064  67.525  1.00  0.00    -0.228 C  
BRANCH  19  20
HETATM   20  C   UNL     1      -9.524  10.384  68.046  1.00  0.00    -0.143 C  
HETATM   21  O   UNL     1      -9.767  11.460  67.144  1.00  0.00    -0.180 OA 
HETATM   22  H   UNL     1      -9.407  12.278  67.466  1.00  0.00     0.000 HD 
ENDBRANCH  19  20
ENDBRANCH   2  19
TORSDOF 2
ENDMDL
MODEL      157
REMARK 921   NORMALIZED FREE ENERGY PREDICTED BY IDOCK:   -1.63 KCAL/MOL
REMARK 922        TOTAL FREE ENERGY PREDICTED BY IDOCK:   -2.32 KCAL/MOL
REMARK 923 INTER-LIGAND FREE ENERGY PREDICTED BY IDOCK:   -2.15 KCAL/MOL
REMARK 924 INTRA-LIGAND FREE ENERGY PREDICTED BY IDOCK:   -0.17 KCAL/MOL
REMARK 927      BINDING AFFINITY PREDICTED BY RF-SCORE:    0.00 PKD
ROOT
HETATM    1  C   UNL     1      -5.140  15.684  71.407  1.00  0.00    -0.118 C  
HETATM    2  N   UNL     1      -5.856  16.044  70.128  1.00  0.00    -0.174 N  
HETATM    3  C   UNL     2      -5.420  16.964  66.341  1.00  0.00     0.111 C  
HETATM    4  C   UNL     1      -5.509  14.919  69.172  1.00  0.00    -0.096 C  
HETATM    5  C   UNL     1      -5.324  17.407  69.690  1.00  0.00    -0.186 C  
HETATM    6  N   UNL     2      -6.869  17.029  66.470  1.00  0.00    -0.240 N  
HETATM    7  C   UNL     2      -9.816  14.912  65.934  1.00  0.00    -0.332 C  
HETATM    8  O   UNL     2      -7.303  14.787  66.830  1.00  0.00     0.087 OA 
HETATM    9  C   UNL     2      -7.481  18.240  66.662  1.00  0.00    -0.226 A  
HETATM   10  N   UNL     2      -6.983  19.327  67.283  1.00  0.00    -0.200 NA 
HETATM   11  C   UNL     2      -8.820  18.412  66.441  1.00  0.00    -0.248 A  
HETATM   12  C   UNL     2      -7.690  15.905  66.472  1.00  0.00    -0.063 C  
HETATM   13  N   UNL     2      -9.149  19.642  66.918  1.00  0.00    -0.325 NA 
HETATM   14  C   UNL     2      -9.630  17.362  65.881  1.00  0.00    -0.025 C  
HETATM   15  N   UNL     2      -9.021  16.110  66.083  1.00  0.00    -0.331 N  
HETATM   16  H   UNL     2     -10.077  20.066  66.913  1.00  0.00     0.000 HD 
HETATM   17  C   UNL     2      -8.012  20.197  67.399  1.00  0.00    -0.322 A  
HETATM   18  O   UNL     2     -10.725  17.428  65.320  1.00  0.00    -0.646 OA 
ENDROOT
BRANCH   2  19
HETATM   19  C   UNL     1      -7.385  16.282  70.283  1.00  0.00     1.239 C  
BRANCH  19  20
HETATM   20  C   UNL     1      -8.295  15.114  69.886  1.00  0.00     0.190 C  
HETATM   21  O   UNL     1      -9.562  15.569  69.416  1.00  0.00    -0.248 OA 
HETATM   22  H   UNL     1     -10.126  14.846  69.171  1.00  0.00     0.000 HD 
ENDBRANCH  19  20
ENDBRANCH   2  19
TORSDOF 2
ENDMDL
MODEL      158
REMARK 921   NORMALIZED FREE ENERGY PREDICTED BY IDOCK:   -1.58 KCAL/MOL
REMARK 922        TOTAL FREE ENERGY PREDICTED BY IDOCK:   -2.27 KCAL/MOL
REMARK 923 INTER-LIGAND FREE ENERGY PREDICTED BY IDOCK:   -2.05 KCAL/MOL
REMARK 924 INTRA-LIGAND FREE ENERGY PREDICTED BY IDOCK:   -0.22 KCAL/MOL
REMARK 927      BINDING AFFINITY PREDICTED BY RF-SCORE:    0.00 PKD
ROOT
HETATM    1  C   UNL     1      -7.576   7.723  73.746  1.00  0.00    -0.141 C  
HETATM    2  N   UNL     1      -7.695   7.494  72.259  1.00  0.00    -0.087 N  
HETATM    3  C   UNL     2      -7.911   9.213  68.741  1.00  0.00    -0.100 C  
HETATM    4  C   UNL     1      -6.416   8.072  71.685  1.00  0.00    -0.043 C  
HETATM    5  C   UNL     1      -8.957   8.220  71.797  1.00  0.00    -0.181 C  
HETATM    6  N   UNL     2      -7.994   7.809  68.362  1.00  0.00    -0.121 N  
HETATM    7  C   UNL     2      -5.804   5.089  67.240  1.00  0.00    -0.022 C  
HETATM    8  O   UNL     2      -5.853   7.152  68.936  1.00  0.00    -0.018 OA 
HETATM    9  C   UNL     2      -9.217   7.239  68.124  1.00  0.00    -0.132 A  
HETATM   10  N   UNL     2     -10.400   7.566  68.679  1.00  0.00    -0.198 NA 
HETATM   11  C   UNL     2      -9.342   6.062  67.440  1.00  0.00    -0.111 A  
HETATM   12  C   UNL     2      -6.886   6.970  68.281  1.00  0.00    -0.074 C  
HETATM   13  N   UNL     2     -10.636   5.665  67.557  1.00  0.00    -0.236 NA 
HETATM   14  C   UNL     2      -8.204   5.424  66.830  1.00  0.00    -0.108 C  
HETATM   15  N   UNL     2      -7.012   5.857  67.438  1.00  0.00    -0.067 N  
HETATM   16  H   UNL     2     -11.049   4.817  67.168  1.00  0.00     0.000 HD 
HETATM   17  C   UNL     2     -11.274   6.609  68.290  1.00  0.00    -0.115 A  
HETATM   18  O   UNL     2      -8.163   4.582  65.931  1.00  0.00    -0.108 OA 
ENDROOT
BRANCH   2  19
HETATM   19  C   UNL     1      -7.952   6.017  71.847  1.00  0.00    -0.107 C  
BRANCH  19  20
HETATM   20  C   UNL     1      -6.708   5.143  71.649  1.00  0.00    -0.051 C  
HETATM   21  O   UNL     1      -6.575   4.173  72.684  1.00  0.00    -0.033 OA 
HETATM   22  H   UNL     1      -5.804   3.631  72.562  1.00  0.00     0.000 HD 
ENDBRANCH  19  20
ENDBRANCH   2  19
TORSDOF 2
ENDMDL
MODEL      159
REMARK 921   NORMALIZED FREE ENERGY PREDICTED BY IDOCK:   -1.49 KCAL/MOL
REMARK 922        TOTAL FREE ENERGY PREDICTED BY IDOCK:   -2.17 KCAL/MOL
REMARK 923 INTER-LIGAND FREE ENERGY PREDICTED BY IDOCK:   -1.70 KCAL/MOL
REMARK 924 INTRA-LIGAND FREE ENERGY PREDICTED BY IDOCK:   -0.47 KCAL/MOL
REMARK 927      BINDING AFFINITY PREDICTED BY RF-SCORE:    0.00 PKD
ROOT
HETATM    1  C   UNL     1     -12.966  14.197  71.377  1.00  0.00    -0.351 C  
HETATM    2  N   UNL     1     -11.813  13.876  70.457  1.00  0.00    -0.283 N  
HETATM    3  C   UNL     2      -9.569  15.189  67.522  1.00  0.00    -0.207 C  
HETATM    4  C   UNL     1     -10.761  14.915  70.794  1.00  0.00     0.121 C  
HETATM    5  C   UNL     1     -12.342  13.979  69.028  1.00  0.00    -0.104 C  
HETATM    6  N   UNL     2      -8.995  13.866  67.731  1.00  0.00    -0.179 N  
HETATM    7  C   UNL     2      -6.229  12.282  69.545  1.00  0.00    -0.127 C  
HETATM    8  O   UNL     2      -8.066  14.201  69.821  1.00  0.00     0.464 OA 
HETATM    9  C   UNL     2      -9.379  12.823  66.930  1.00  0.00    -0.234 A  
HETATM   10  N   UNL     2     -10.569  12.642  66.326  1.00  0.00    -0.250 NA 
HETATM   11  C   UNL     2      -8.641  11.675  66.840  1.00  0.00    -0.174 A  
HETATM   12  C   UNL     2      -8.102  13.572  68.758  1.00  0.00     0.024 C  
HETATM   13  N   UNL     2      -9.385  10.774  66.147  1.00  0.00    -0.177 NA 
HETATM   14  C   UNL     2      -7.362  11.552  67.489  1.00  0.00    -0.112 C  
HETATM   15  N   UNL     2      -7.255  12.475  68.547  1.00  0.00    -0.105 N  
HETATM   16  H   UNL     2      -9.120   9.815  65.919  1.00  0.00     0.000 HD 
HETATM   17  C   UNL     2     -10.544  11.390  65.814  1.00  0.00    -0.260 A  
HETATM   18  O   UNL     2      -6.437  10.770  67.264  1.00  0.00    -0.064 OA 
ENDROOT
BRANCH   2  19
HETATM   19  C   UNL     1     -11.296  12.412  70.550  1.00  0.00     0.867 C  
BRANCH  19  20
HETATM   20  C   UNL     1     -11.698  11.478  69.404  1.00  0.00    -0.346 C  
HETATM   21  O   UNL     1     -10.705  10.486  69.158  1.00  0.00    -0.201 OA 
HETATM   22  H   UNL     1     -10.954   9.907  68.447  1.00  0.00     0.000 HD 
ENDBRANCH  19  20
ENDBRANCH   2  19
TORSDOF 2
ENDMDL
MODEL      160
REMARK 921   NORMALIZED FREE ENERGY PREDICTED BY IDOCK:   -1.48 KCAL/MOL
REMARK 922        TOTAL FREE ENERGY PREDICTED BY IDOCK:   -2.16 KCAL/MOL
REMARK 923 INTER-LIGAND FREE ENERGY PREDICTED BY IDOCK:   -2.03 KCAL/MOL
REMARK 924 INTRA-LIGAND FREE ENERGY PREDICTED BY IDOCK:   -0.13 KCAL/MOL
REMARK 927      BINDING AFFINITY PREDICTED BY RF-SCORE:    0.00 PKD
ROOT
HETATM    1  C   UNL     1     -10.385   6.519  71.754  1.00  0.00    -0.205 C  
HETATM    2  N   UNL     1      -9.330   7.048  70.813  1.00  0.00    -0.161 N  
HETATM    3  C   UNL     2      -5.544   6.897  69.806  1.00  0.00    -0.019 C  
HETATM    4  C   UNL     1      -8.860   5.826  70.048  1.00  0.00    -0.135 C  
HETATM    5  C   UNL     1      -8.244   7.686  71.678  1.00  0.00    -0.107 C  
HETATM    6  N   UNL     2      -6.039   7.878  68.849  1.00  0.00    -0.038 N  
HETATM    7  C   UNL     2      -7.268   8.032  65.397  1.00  0.00    -0.064 C  
HETATM    8  O   UNL     2      -7.386   6.495  67.578  1.00  0.00    -0.090 OA 
HETATM    9  C   UNL     2      -5.886   9.215  69.105  1.00  0.00    -0.036 A  
HETATM   10  N   UNL     2      -5.842   9.826  70.305  1.00  0.00    -0.048 NA 
HETATM   11  C   UNL     2      -6.002  10.154  68.118  1.00  0.00    -0.041 A  
HETATM   12  C   UNL     2      -6.730   7.536  67.690  1.00  0.00    -0.067 C  
HETATM   13  N   UNL     2      -6.009  11.371  68.722  1.00  0.00    -0.043 NA 
HETATM   14  C   UNL     2      -6.172   9.777  66.739  1.00  0.00    -0.064 C  
HETATM   15  N   UNL     2      -6.686   8.470  66.645  1.00  0.00    -0.067 N  
HETATM   16  H   UNL     2      -6.095  12.278  68.260  1.00  0.00     0.000 HD 
HETATM   17  C   UNL     2      -5.879  11.154  70.051  1.00  0.00    -0.112 A  
HETATM   18  O   UNL     2      -5.968  10.429  65.713  1.00  0.00    -0.093 OA 
ENDROOT
BRANCH   2  19
HETATM   19  C   UNL     1      -9.800   8.214  69.898  1.00  0.00    -0.186 C  
BRANCH  19  20
HETATM   20  C   UNL     1     -11.178   8.808  70.211  1.00  0.00    -0.195 C  
HETATM   21  O   UNL     1     -11.214  10.213  69.975  1.00  0.00    -0.259 OA 
HETATM   22  H   UNL     1     -12.068  10.581  70.170  1.00  0.00     0.000 HD 
ENDBRANCH  19  20
ENDBRANCH   2  19
TORSDOF 2
ENDMDL
MODEL      161
REMARK 921   NORMALIZED FREE ENERGY PREDICTED BY IDOCK:   -1.26 KCAL/MOL
REMARK 922        TOTAL FREE ENERGY PREDICTED BY IDOCK:   -1.92 KCAL/MOL
REMARK 923 INTER-LIGAND FREE ENERGY PREDICTED BY IDOCK:   -1.62 KCAL/MOL
REMARK 924 INTRA-LIGAND FREE ENERGY PREDICTED BY IDOCK:   -0.30 KCAL/MOL
REMARK 927      BINDING AFFINITY PREDICTED BY RF-SCORE:    0.00 PKD
ROOT
HETATM    1  C   UNL     1      -6.947  10.976  66.231  1.00  0.00    -0.095 C  
HETATM    2  N   UNL     1      -7.083   9.473  66.233  1.00  0.00    -0.091 N  
HETATM    3  C   UNL     2      -5.290   6.075  65.447  1.00  0.00    -0.013 C  
HETATM    4  C   UNL     1      -6.025   9.000  67.211  1.00  0.00    -0.050 C  
HETATM    5  C   UNL     1      -6.846   9.004  64.798  1.00  0.00    -0.080 C  
HETATM    6  N   UNL     2      -6.588   5.597  65.904  1.00  0.00    -0.040 N  
HETATM    7  C   UNL     2      -8.194   4.393  68.974  1.00  0.00    -0.079 C  
HETATM    8  O   UNL     2      -6.443   6.223  68.125  1.00  0.00    -0.044 OA 
HETATM    9  C   UNL     2      -7.551   5.264  64.988  1.00  0.00    -0.082 A  
HETATM   10  N   UNL     2      -7.736   5.785  63.760  1.00  0.00    -0.090 NA 
HETATM   11  C   UNL     2      -8.631   4.496  65.327  1.00  0.00    -0.128 A  
HETATM   12  C   UNL     2      -6.943   5.510  67.247  1.00  0.00    -0.065 C  
HETATM   13  N   UNL     2      -9.489   4.526  64.274  1.00  0.00    -0.306 NA 
HETATM   14  C   UNL     2      -8.747   3.897  66.631  1.00  0.00    -0.115 C  
HETATM   15  N   UNL     2      -7.950   4.588  67.563  1.00  0.00    -0.099 N  
HETATM   16  H   UNL     2     -10.396   4.061  64.216  1.00  0.00     0.000 HD 
HETATM   17  C   UNL     2      -8.915   5.291  63.316  1.00  0.00     0.168 A  
HETATM   18  O   UNL     2      -9.436   2.945  67.001  1.00  0.00    -0.145 OA 
ENDROOT
BRANCH   2  19
HETATM   19  C   UNL     1      -8.511   8.949  66.556  1.00  0.00    -0.119 C  
BRANCH  19  20
HETATM   20  C   UNL     1      -9.408   8.639  65.352  1.00  0.00     0.048 C  
HETATM   21  O   UNL     1     -10.404   9.641  65.165  1.00  0.00    -0.193 OA 
HETATM   22  H   UNL     1     -10.960   9.449  64.419  1.00  0.00     0.000 HD 
ENDBRANCH  19  20
ENDBRANCH   2  19
TORSDOF 2
ENDMDL
MODEL      162
REMARK 921   NORMALIZED FREE ENERGY PREDICTED BY IDOCK:   -0.82 KCAL/MOL
REMARK 922        TOTAL FREE ENERGY PREDICTED BY IDOCK:   -1.43 KCAL/MOL
REMARK 923 INTER-LIGAND FREE ENERGY PREDICTED BY IDOCK:   -2.14 KCAL/MOL
REMARK 924 INTRA-LIGAND FREE ENERGY PREDICTED BY IDOCK:    0.71 KCAL/MOL
REMARK 927      BINDING AFFINITY PREDICTED BY RF-SCORE:    0.00 PKD
ROOT
HETATM    1  C   UNL     1      -6.282   2.862  67.365  1.00  0.00    -0.032 C  
HETATM    2  N   UNL     1      -6.817   3.996  68.207  1.00  0.00    -0.047 N  
HETATM    3  C   UNL     2      -7.211   5.398  71.847  1.00  0.00    -0.086 C  
HETATM    4  C   UNL     1      -5.586   4.592  68.861  1.00  0.00    -0.013 C  
HETATM    5  C   UNL     1      -7.805   3.385  69.198  1.00  0.00    -0.050 C  
HETATM    6  N   UNL     2      -7.877   6.443  71.081  1.00  0.00    -0.112 N  
HETATM    7  C   UNL     2      -7.133   9.703  69.576  1.00  0.00    -0.072 C  
HETATM    8  O   UNL     2      -6.045   7.295  69.959  1.00  0.00    -0.026 OA 
HETATM    9  C   UNL     2      -9.243   6.437  70.969  1.00  0.00    -0.154 A  
HETATM   10  N   UNL     2     -10.067   5.372  70.978  1.00  0.00    -0.205 NA 
HETATM   11  C   UNL     2      -9.937   7.549  70.578  1.00  0.00    -0.184 A  
HETATM   12  C   UNL     2      -7.195   7.438  70.387  1.00  0.00    -0.068 C  
HETATM   13  N   UNL     2     -11.222   7.164  70.363  1.00  0.00    -0.279 NA 
HETATM   14  C   UNL     2      -9.279   8.815  70.382  1.00  0.00    -0.180 C  
HETATM   15  N   UNL     2      -7.904   8.624  70.151  1.00  0.00    -0.092 N  
HETATM   16  H   UNL     2     -11.990   7.759  70.051  1.00  0.00     0.000 HD 
HETATM   17  C   UNL     2     -11.291   5.841  70.641  1.00  0.00    -0.022 A  
HETATM   18  O   UNL     2      -9.751   9.952  70.362  1.00  0.00    -0.234 OA 
ENDROOT
BRANCH   2  19
HETATM   19  C   UNL     1      -7.674   5.034  67.430  1.00  0.00    -0.092 C  
BRANCH  19  20
HETATM   20  C   UNL     1      -7.200   6.491  67.497  1.00  0.00    -0.086 C  
HETATM   21  O   UNL     1      -7.799   7.288  66.479  1.00  0.00    -0.104 OA 
HETATM   22  H   UNL     1      -7.505   8.190  66.520  1.00  0.00     0.000 HD 
ENDBRANCH  19  20
ENDBRANCH   2  19
TORSDOF 2
ENDMDL
MODEL      163
REMARK 921   NORMALIZED FREE ENERGY PREDICTED BY IDOCK:   -0.69 KCAL/MOL
REMARK 922        TOTAL FREE ENERGY PREDICTED BY IDOCK:   -1.27 KCAL/MOL
REMARK 923 INTER-LIGAND FREE ENERGY PREDICTED BY IDOCK:   -1.14 KCAL/MOL
REMARK 924 INTRA-LIGAND FREE ENERGY PREDICTED BY IDOCK:   -0.13 KCAL/MOL
REMARK 927      BINDING AFFINITY PREDICTED BY RF-SCORE:    0.00 PKD
ROOT
HETATM    1  C   UNL     1      -5.705  12.410  69.899  1.00  0.00    -0.125 C  
HETATM    2  N   UNL     1      -6.281  13.628  69.219  1.00  0.00    -0.098 N  
HETATM    3  C   UNL     2      -5.611  16.482  66.615  1.00  0.00     0.238 C  
HETATM    4  C   UNL     1      -6.321  13.255  67.750  1.00  0.00    -0.159 C  
HETATM    5  C   UNL     1      -5.346  14.794  69.531  1.00  0.00    -0.091 C  
HETATM    6  N   UNL     2      -6.963  16.818  67.043  1.00  0.00    -0.186 N  
HETATM    7  C   UNL     2     -10.436  16.263  66.002  1.00  0.00    -0.331 C  
HETATM    8  O   UNL     2      -8.085  15.004  66.153  1.00  0.00     0.451 OA 
HETATM    9  C   UNL     2      -7.155  17.779  68.001  1.00  0.00    -0.209 A  
HETATM   10  N   UNL     2      -6.330  18.110  69.013  1.00  0.00    -0.233 NA 
HETATM   11  C   UNL     2      -8.370  18.377  68.186  1.00  0.00    -0.284 A  
HETATM   12  C   UNL     2      -8.099  16.166  66.573  1.00  0.00    -0.296 C  
HETATM   13  N   UNL     2      -8.286  19.111  69.327  1.00  0.00    -0.106 NA 
HETATM   14  C   UNL     2      -9.479  18.114  67.305  1.00  0.00    -0.260 C  
HETATM   15  N   UNL     2      -9.299  16.887  66.640  1.00  0.00    -0.246 N  
HETATM   16  H   UNL     2      -9.030  19.669  69.746  1.00  0.00     0.000 HD 
HETATM   17  C   UNL     2      -7.026  18.962  69.801  1.00  0.00     0.104 A  
HETATM   18  O   UNL     2     -10.501  18.774  67.109  1.00  0.00    -0.386 OA 
ENDROOT
BRANCH   2  19
HETATM   19  C   UNL     1      -7.652  14.099  69.780  1.00  0.00     0.433 C  
BRANCH  19  20
HETATM   20  C   UNL     1      -8.897  13.551  69.073  1.00  0.00     0.382 C  
HETATM   21  O   UNL     1     -10.051  13.621  69.907  1.00  0.00     0.259 OA 
HETATM   22  H   UNL     1     -10.823  13.281  69.470  1.00  0.00     0.000 HD 
ENDBRANCH  19  20
ENDBRANCH   2  19
TORSDOF 2
ENDMDL
MODEL      164
REMARK 921   NORMALIZED FREE ENERGY PREDICTED BY IDOCK:   -0.53 KCAL/MOL
REMARK 922        TOTAL FREE ENERGY PREDICTED BY IDOCK:   -1.09 KCAL/MOL
REMARK 923 INTER-LIGAND FREE ENERGY PREDICTED BY IDOCK:   -0.83 KCAL/MOL
REMARK 924 INTRA-LIGAND FREE ENERGY PREDICTED BY IDOCK:   -0.27 KCAL/MOL
REMARK 927      BINDING AFFINITY PREDICTED BY RF-SCORE:    0.00 PKD
ROOT
HETATM    1  C   UNL     1     -10.082  20.505  65.097  1.00  0.00     0.861 C  
HETATM    2  N   UNL     1      -9.496  19.567  66.124  1.00  0.00    -0.367 N  
HETATM    3  C   UNL     2      -9.822  18.175  69.775  1.00  0.00     0.655 C  
HETATM    4  C   UNL     1     -10.600  18.563  66.391  1.00  0.00    -0.325 C  
HETATM    5  C   UNL     1      -9.127  20.413  67.340  1.00  0.00    -0.358 C  
HETATM    6  N   UNL     2      -8.644  17.452  69.314  1.00  0.00     0.098 N  
HETATM    7  C   UNL     2      -7.761  14.216  67.831  1.00  0.00    -0.158 C  
HETATM    8  O   UNL     2      -9.645  16.107  67.722  1.00  0.00    -0.221 OA 
HETATM    9  C   UNL     2      -7.395  17.913  69.635  1.00  0.00     0.420 A  
HETATM   10  N   UNL     2      -7.015  19.188  69.844  1.00  0.00     0.022 NA 
HETATM   11  C   UNL     2      -6.288  17.115  69.542  1.00  0.00    -0.230 A  
HETATM   12  C   UNL     2      -8.707  16.327  68.497  1.00  0.00    -0.211 C  
HETATM   13  N   UNL     2      -5.203  17.913  69.720  1.00  0.00    -0.190 NA 
HETATM   14  C   UNL     2      -6.396  15.716  69.219  1.00  0.00    -0.136 C  
HETATM   15  N   UNL     2      -7.611  15.456  68.558  1.00  0.00    -0.118 N  
HETATM   16  H   UNL     2      -4.225  17.622  69.697  1.00  0.00     0.000 HD 
HETATM   17  C   UNL     2      -5.665  19.168  69.933  1.00  0.00    -0.245 A  
HETATM   18  O   UNL     2      -5.593  14.801  69.410  1.00  0.00    -0.093 OA 
ENDROOT
BRANCH   2  19
HETATM   19  C   UNL     1      -8.146  18.913  65.712  1.00  0.00     0.167 C  
BRANCH  19  20
HETATM   20  C   UNL     1      -6.881  19.539  66.309  1.00  0.00    -0.220 C  
HETATM   21  O   UNL     1      -5.884  19.765  65.315  1.00  0.00    -0.176 OA 
HETATM   22  H   UNL     1      -5.100  20.152  65.685  1.00  0.00     0.000 HD 
ENDBRANCH  19  20
ENDBRANCH   2  19
TORSDOF 2
ENDMDL
MODEL      165
REMARK 921   NORMALIZED FREE ENERGY PREDICTED BY IDOCK:    0.35 KCAL/MOL
REMARK 922        TOTAL FREE ENERGY PREDICTED BY IDOCK:   -0.12 KCAL/MOL
REMARK 923 INTER-LIGAND FREE ENERGY PREDICTED BY IDOCK:   -0.73 KCAL/MOL
REMARK 924 INTRA-LIGAND FREE ENERGY PREDICTED BY IDOCK:    0.62 KCAL/MOL
REMARK 927      BINDING AFFINITY PREDICTED BY RF-SCORE:    0.00 PKD
ROOT
HETATM    1  C   UNL     1      -5.336  19.021  71.611  1.00  0.00    -0.308 C  
HETATM    2  N   UNL     1      -6.064  18.737  70.319  1.00  0.00    -0.128 N  
HETATM    3  C   UNL     2      -5.903  16.872  66.874  1.00  0.00    -0.172 C  
HETATM    4  C   UNL     1      -6.276  17.236  70.328  1.00  0.00     0.245 C  
HETATM    5  C   UNL     1      -5.162  19.223  69.186  1.00  0.00    -0.198 C  
HETATM    6  N   UNL     2      -7.203  17.521  66.770  1.00  0.00    -0.194 N  
HETATM    7  C   UNL     2     -10.747  16.777  67.356  1.00  0.00    -0.244 C  
HETATM    8  O   UNL     2      -8.330  16.339  68.406  1.00  0.00    -0.175 OA 
HETATM    9  C   UNL     2      -7.321  18.704  66.089  1.00  0.00    -0.259 A  
HETATM   10  N   UNL     2      -6.390  19.666  65.941  1.00  0.00    -0.188 NA 
HETATM   11  C   UNL     2      -8.533  19.170  65.661  1.00  0.00     0.487 A  
HETATM   12  C   UNL     2      -8.354  17.035  67.385  1.00  0.00    -0.191 C  
HETATM   13  N   UNL     2      -8.340  20.441  65.219  1.00  0.00    -0.236 NA 
HETATM   14  C   UNL     2      -9.731  18.384  65.798  1.00  0.00     0.252 C  
HETATM   15  N   UNL     2      -9.573  17.417  66.808  1.00  0.00    -0.266 N  
HETATM   16  H   UNL     2      -9.052  21.068  64.845  1.00  0.00     0.000 HD 
HETATM   17  C   UNL     2      -7.023  20.716  65.368  1.00  0.00    -0.086 A  
HETATM   18  O   UNL     2     -10.805  18.476  65.202  1.00  0.00    -0.588 OA 
ENDROOT
BRANCH   2  19
HETATM   19  C   UNL     1      -7.373  19.551  70.118  1.00  0.00     0.464 C  
BRANCH  19  20
HETATM   20  C   UNL     1      -8.652  18.733  69.900  1.00  0.00     1.241 C  
HETATM   21  O   UNL     1      -9.772  19.569  69.619  1.00  0.00    -0.186 OA 
HETATM   22  H   UNL     1     -10.564  19.063  69.485  1.00  0.00     0.000 HD 
ENDBRANCH  19  20
ENDBRANCH   2  19
TORSDOF 2
ENDMDL
MODEL      166
REMARK 921   NORMALIZED FREE ENERGY PREDICTED BY IDOCK:    0.39 KCAL/MOL
REMARK 922        TOTAL FREE ENERGY PREDICTED BY IDOCK:   -0.08 KCAL/MOL
REMARK 923 INTER-LIGAND FREE ENERGY PREDICTED BY IDOCK:   -1.40 KCAL/MOL
REMARK 924 INTRA-LIGAND FREE ENERGY PREDICTED BY IDOCK:    1.32 KCAL/MOL
REMARK 927      BINDING AFFINITY PREDICTED BY RF-SCORE:    0.00 PKD
ROOT
HETATM    1  C   UNL     1      -7.838  18.459  67.395  1.00  0.00    -0.234 C  
HETATM    2  N   UNL     1      -8.207  17.010  67.599  1.00  0.00    -0.183 N  
HETATM    3  C   UNL     2      -9.578  13.762  65.884  1.00  0.00    -0.128 C  
HETATM    4  C   UNL     1      -7.262  16.248  66.691  1.00  0.00    -0.125 C  
HETATM    5  C   UNL     1      -9.678  16.868  67.212  1.00  0.00    -0.251 C  
HETATM    6  N   UNL     2      -9.389  13.288  67.248  1.00  0.00    -0.217 N  
HETATM    7  C   UNL     2      -6.882  11.532  69.268  1.00  0.00    -0.114 C  
HETATM    8  O   UNL     2      -7.081  13.374  67.345  1.00  0.00    -0.164 OA 
HETATM    9  C   UNL     2     -10.456  13.246  68.108  1.00  0.00    -0.245 A  
HETATM   10  N   UNL     2     -11.538  14.048  68.118  1.00  0.00    -0.314 NA 
HETATM   11  C   UNL     2     -10.426  12.502  69.255  1.00  0.00     0.230 A  
HETATM   12  C   UNL     2      -8.151  12.921  67.767  1.00  0.00    -0.166 C  
HETATM   13  N   UNL     2     -11.527  12.836  69.977  1.00  0.00    -0.524 NA 
HETATM   14  C   UNL     2      -9.321  11.629  69.556  1.00  0.00     0.974 C  
HETATM   15  N   UNL     2      -8.172  12.027  68.847  1.00  0.00     0.045 N  
HETATM   16  H   UNL     2     -11.790  12.464  70.891  1.00  0.00     0.000 HD 
HETATM   17  C   UNL     2     -12.210  13.757  69.256  1.00  0.00    -0.264 A  
HETATM   18  O   UNL     2      -9.263  10.671  70.328  1.00  0.00     0.601 OA 
ENDROOT
BRANCH   2  19
HETATM   19  C   UNL     1      -8.171  16.532  69.079  1.00  0.00    -0.208 C  
BRANCH  19  20
HETATM   20  C   UNL     1      -9.527  16.218  69.722  1.00  0.00     0.223 C  
HETATM   21  O   UNL     1     -10.558  17.065  69.221  1.00  0.00    -0.331 OA 
HETATM   22  H   UNL     1     -11.398  16.871  69.619  1.00  0.00     0.000 HD 
ENDBRANCH  19  20
ENDBRANCH   2  19
TORSDOF 2
ENDMDL
MODEL      167
REMARK 921   NORMALIZED FREE ENERGY PREDICTED BY IDOCK:    1.79 KCAL/MOL
REMARK 922        TOTAL FREE ENERGY PREDICTED BY IDOCK:    1.49 KCAL/MOL
REMARK 923 INTER-LIGAND FREE ENERGY PREDICTED BY IDOCK:    1.68 KCAL/MOL
REMARK 924 INTRA-LIGAND FREE ENERGY PREDICTED BY IDOCK:   -0.19 KCAL/MOL
REMARK 927      BINDING AFFINITY PREDICTED BY RF-SCORE:    0.00 PKD
ROOT
HETATM    1  C   UNL     1      -6.886   7.602  73.514  1.00  0.00    -0.083 C  
HETATM    2  N   UNL     1      -7.666   8.131  72.335  1.00  0.00    -0.115 N  
HETATM    3  C   UNL     2     -10.525  10.558  71.190  1.00  0.00     1.566 C  
HETATM    4  C   UNL     1      -7.354   9.614  72.311  1.00  0.00     1.567 C  
HETATM    5  C   UNL     1      -9.138   7.818  72.600  1.00  0.00    -0.173 C  
HETATM    6  N   UNL     2     -10.131   9.983  69.912  1.00  0.00    -0.247 N  
HETATM    7  C   UNL     2      -7.934  10.737  67.073  1.00  0.00    -0.124 C  
HETATM    8  O   UNL     2      -8.017  10.902  69.737  1.00  0.00     0.046 OA 
HETATM    9  C   UNL     2     -10.847   8.941  69.384  1.00  0.00    -0.119 A  
HETATM   10  N   UNL     2     -11.527   7.987  70.050  1.00  0.00    -0.027 NA 
HETATM   11  C   UNL     2     -10.753   8.598  68.064  1.00  0.00    -0.074 A  
HETATM   12  C   UNL     2      -9.007  10.394  69.200  1.00  0.00    -0.179 C  
HETATM   13  N   UNL     2     -11.408   7.418  67.909  1.00  0.00    -0.247 NA 
HETATM   14  C   UNL     2      -9.989   9.390  67.135  1.00  0.00    -0.204 C  
HETATM   15  N   UNL     2      -9.030  10.161  67.818  1.00  0.00    -0.128 N  
HETATM   16  H   UNL     2     -11.510   6.890  67.042  1.00  0.00     0.000 HD 
HETATM   17  C   UNL     2     -11.899   7.075  69.123  1.00  0.00     0.633 A  
HETATM   18  O   UNL     2     -10.053   9.440  65.906  1.00  0.00    -0.296 OA 
ENDROOT
BRANCH   2  19
HETATM   19  C   UNL     1      -7.377   7.410  70.987  1.00  0.00    -0.073 C  
BRANCH  19  20
HETATM   20  C   UNL     1      -5.977   7.614  70.398  1.00  0.00    -0.030 C  
HETATM   21  O   UNL     1      -5.154   6.465  70.581  1.00  0.00    -0.013 OA 
HETATM   22  H   UNL     1      -4.287   6.591  70.216  1.00  0.00     0.000 HD 
ENDBRANCH  19  20
ENDBRANCH   2  19
TORSDOF 2
ENDMDL
MODEL      168
REMARK 921   NORMALIZED FREE ENERGY PREDICTED BY IDOCK:    3.34 KCAL/MOL
REMARK 922        TOTAL FREE ENERGY PREDICTED BY IDOCK:    3.22 KCAL/MOL
REMARK 923 INTER-LIGAND FREE ENERGY PREDICTED BY IDOCK:    2.95 KCAL/MOL
REMARK 924 INTRA-LIGAND FREE ENERGY PREDICTED BY IDOCK:    0.27 KCAL/MOL
REMARK 927      BINDING AFFINITY PREDICTED BY RF-SCORE:    0.00 PKD
ROOT
HETATM    1  C   UNL     1     -11.837  16.547  67.893  1.00  0.00     0.590 C  
HETATM    2  N   UNL     1     -11.520  15.079  67.736  1.00  0.00    -0.332 N  
HETATM    3  C   UNL     2     -12.974  11.439  67.840  1.00  0.00     4.276 C  
HETATM    4  C   UNL     1     -12.369  14.634  66.562  1.00  0.00    -0.022 C  
HETATM    5  C   UNL     1     -11.891  14.402  69.054  1.00  0.00    -0.323 C  
HETATM    6  N   UNL     2     -11.577  11.164  67.531  1.00  0.00    -0.220 N  
HETATM    7  C   UNL     2      -9.434  10.555  64.618  1.00  0.00    -0.263 C  
HETATM    8  O   UNL     2     -11.494  12.062  65.402  1.00  0.00    -0.340 OA 
HETATM    9  C   UNL     2     -10.714  10.815  68.536  1.00  0.00    -0.210 A  
HETATM   10  N   UNL     2     -10.763  11.183  69.830  1.00  0.00    -0.027 NA 
HETATM   11  C   UNL     2      -9.513  10.215  68.276  1.00  0.00    -0.140 A  
HETATM   12  C   UNL     2     -11.034  11.295  66.255  1.00  0.00    -0.205 C  
HETATM   13  N   UNL     2      -8.815  10.194  69.442  1.00  0.00    -0.181 NA 
HETATM   14  C   UNL     2      -9.148   9.811  66.943  1.00  0.00    -0.142 C  
HETATM   15  N   UNL     2      -9.889  10.533  65.989  1.00  0.00    -0.211 N  
HETATM   16  H   UNL     2      -7.875   9.822  69.580  1.00  0.00     0.000 HD 
HETATM   17  C   UNL     2      -9.604  10.760  70.385  1.00  0.00     1.517 A  
HETATM   18  O   UNL     2      -8.303   8.993  66.572  1.00  0.00    -0.112 OA 
ENDROOT
BRANCH   2  19
HETATM   19  C   UNL     1     -10.008  14.755  67.572  1.00  0.00    -0.219 C  
BRANCH  19  20
HETATM   20  C   UNL     1      -9.274  14.288  68.834  1.00  0.00    -0.044 C  
HETATM   21  O   UNL     1      -9.342  15.261  69.874  1.00  0.00    -0.440 OA 
HETATM   22  H   UNL     1      -8.888  14.972  70.656  1.00  0.00     0.000 HD 
ENDBRANCH  19  20
ENDBRANCH   2  19
TORSDOF 2
ENDMDL
MODEL      169
REMARK 921   NORMALIZED FREE ENERGY PREDICTED BY IDOCK:    5.13 KCAL/MOL
REMARK 922        TOTAL FREE ENERGY PREDICTED BY IDOCK:    5.22 KCAL/MOL
REMARK 923 INTER-LIGAND FREE ENERGY PREDICTED BY IDOCK:    5.48 KCAL/MOL
REMARK 924 INTRA-LIGAND FREE ENERGY PREDICTED BY IDOCK:   -0.26 KCAL/MOL
REMARK 927      BINDING AFFINITY PREDICTED BY RF-SCORE:    0.00 PKD
ROOT
HETATM    1  C   UNL     1      -5.748  14.177  66.456  1.00  0.00     3.484 C  
HETATM    2  N   UNL     1      -6.953  14.820  67.098  1.00  0.00     0.044 N  
HETATM    3  C   UNL     2     -10.774  15.610  66.709  1.00  0.00    -0.300 C  
HETATM    4  C   UNL     1      -7.926  13.675  67.303  1.00  0.00    -0.114 C  
HETATM    5  C   UNL     1      -7.456  15.887  66.128  1.00  0.00     1.012 C  
HETATM    6  N   UNL     2     -10.501  16.221  68.003  1.00  0.00    -0.283 N  
HETATM    7  C   UNL     2     -10.719  15.409  71.573  1.00  0.00     0.283 C  
HETATM    8  O   UNL     2     -10.076  14.306  69.226  1.00  0.00    -0.119 OA 
HETATM    9  C   UNL     2     -10.263  17.568  68.082  1.00  0.00    -0.359 A  
HETATM   10  N   UNL     2      -9.706  18.363  67.148  1.00  0.00    -0.292 NA 
HETATM   11  C   UNL     2     -10.351  18.246  69.266  1.00  0.00     0.152 A  
HETATM   12  C   UNL     2     -10.406  15.497  69.188  1.00  0.00    -0.237 C  
HETATM   13  N   UNL     2      -9.857  19.494  69.051  1.00  0.00    -0.443 NA 
HETATM   14  C   UNL     2     -10.816  17.602  70.467  1.00  0.00     1.561 C  
HETATM   15  N   UNL     2     -10.662  16.207  70.369  1.00  0.00    -0.239 N  
HETATM   16  H   UNL     2      -9.773  20.241  69.742  1.00  0.00     0.000 HD 
HETATM   17  C   UNL     2      -9.497  19.558  67.748  1.00  0.00    -0.334 A  
HETATM   18  O   UNL     2     -11.266  18.098  71.502  1.00  0.00     2.075 OA 
ENDROOT
BRANCH   2  19
HETATM   19  C   UNL     1      -6.649  15.620  68.396  1.00  0.00    -0.116 C  
BRANCH  19  20
HETATM   20  C   UNL     1      -6.394  17.122  68.222  1.00  0.00    -0.149 C  
HETATM   21  O   UNL     1      -5.221  17.542  68.914  1.00  0.00    -0.150 OA 
HETATM   22  H   UNL     1      -5.063  18.472  68.807  1.00  0.00     0.000 HD 
ENDBRANCH  19  20
ENDBRANCH   2  19
TORSDOF 2
ENDMDL
MODEL      170
REMARK 921   NORMALIZED FREE ENERGY PREDICTED BY IDOCK:    5.46 KCAL/MOL
REMARK 922        TOTAL FREE ENERGY PREDICTED BY IDOCK:    5.59 KCAL/MOL
REMARK 923 INTER-LIGAND FREE ENERGY PREDICTED BY IDOCK:    5.72 KCAL/MOL
REMARK 924 INTRA-LIGAND FREE ENERGY PREDICTED BY IDOCK:   -0.13 KCAL/MOL
REMARK 927      BINDING AFFINITY PREDICTED BY RF-SCORE:    0.00 PKD
ROOT
HETATM    1  C   UNL     1      -9.081   6.530  70.208  1.00  0.00    -0.155 C  
HETATM    2  N   UNL     1      -8.515   7.879  69.833  1.00  0.00    -0.126 N  
HETATM    3  C   UNL     2      -6.518  11.002  71.110  1.00  0.00     1.100 C  
HETATM    4  C   UNL     1      -7.018   7.722  70.015  1.00  0.00    -0.050 C  
HETATM    5  C   UNL     1      -9.144   8.902  70.776  1.00  0.00    -0.213 C  
HETATM    6  N   UNL     2      -6.777  11.392  69.731  1.00  0.00    -0.115 N  
HETATM    7  C   UNL     2      -5.137  11.299  66.451  1.00  0.00    -0.126 C  
HETATM    8  O   UNL     2      -5.455   9.828  68.657  1.00  0.00    -0.037 OA 
HETATM    9  C   UNL     2      -7.829  12.221  69.444  1.00  0.00     0.662 A  
HETATM   10  N   UNL     2      -8.996  12.332  70.109  1.00  0.00     3.432 NA 
HETATM   11  C   UNL     2      -7.914  12.892  68.256  1.00  0.00    -0.151 A  
HETATM   12  C   UNL     2      -6.041  10.916  68.648  1.00  0.00    -0.043 C  
HETATM   13  N   UNL     2      -9.153  13.447  68.197  1.00  0.00    -0.203 NA 
HETATM   14  C   UNL     2      -6.842  12.856  67.295  1.00  0.00    -0.057 C  
HETATM   15  N   UNL     2      -6.032  11.724  67.503  1.00  0.00    -0.075 N  
HETATM   16  H   UNL     2      -9.532  14.004  67.430  1.00  0.00     0.000 HD 
HETATM   17  C   UNL     2      -9.788  13.122  69.347  1.00  0.00     0.851 A  
HETATM   18  O   UNL     2      -6.593  13.625  66.365  1.00  0.00     1.742 OA 
ENDROOT
BRANCH   2  19
HETATM   19  C   UNL     1      -8.923   8.385  68.421  1.00  0.00    -0.136 C  
BRANCH  19  20
HETATM   20  C   UNL     1     -10.227   7.820  67.848  1.00  0.00    -0.206 C  
HETATM   21  O   UNL     1     -10.973   8.814  67.150  1.00  0.00    -0.375 OA 
HETATM   22  H   UNL     1     -11.781   8.463  66.796  1.00  0.00     0.000 HD 
ENDBRANCH  19  20
ENDBRANCH   2  19
TORSDOF 2
ENDMDL
MODEL      171
REMARK 921   NORMALIZED FREE ENERGY PREDICTED BY IDOCK:    6.84 KCAL/MOL
REMARK 922        TOTAL FREE ENERGY PREDICTED BY IDOCK:    7.13 KCAL/MOL
REMARK 923 INTER-LIGAND FREE ENERGY PREDICTED BY IDOCK:    7.31 KCAL/MOL
REMARK 924 INTRA-LIGAND FREE ENERGY PREDICTED BY IDOCK:   -0.18 KCAL/MOL
REMARK 927      BINDING AFFINITY PREDICTED BY RF-SCORE:    0.00 PKD
ROOT
HETATM    1  C   UNL     1      -8.304  19.259  65.969  1.00  0.00    -0.182 C  
HETATM    2  N   UNL     1      -8.946  17.924  66.258  1.00  0.00    -0.215 N  
HETATM    3  C   UNL     2     -10.604  14.738  64.685  1.00  0.00    -0.206 C  
HETATM    4  C   UNL     1      -8.028  16.913  65.599  1.00  0.00     0.800 C  
HETATM    5  C   UNL     1     -10.348  17.965  65.654  1.00  0.00    -0.059 C  
HETATM    6  N   UNL     2     -10.698  14.419  66.103  1.00  0.00    -0.298 N  
HETATM    7  C   UNL     2      -8.851  12.565  68.672  1.00  0.00     0.047 C  
HETATM    8  O   UNL     2      -8.448  14.154  66.564  1.00  0.00     0.015 OA 
HETATM    9  C   UNL     2     -11.867  14.656  66.778  1.00  0.00    -0.317 A  
HETATM   10  N   UNL     2     -12.783  15.612  66.530  1.00  0.00     1.926 NA 
HETATM   11  C   UNL     2     -12.132  14.069  67.984  1.00  0.00    -0.277 A  
HETATM   12  C   UNL     2      -9.630  13.932  66.851  1.00  0.00    -0.269 C  
HETATM   13  N   UNL     2     -13.250  14.662  68.481  1.00  0.00     1.606 NA 
HETATM   14  C   UNL     2     -11.251  13.080  68.548  1.00  0.00    -0.274 C  
HETATM   15  N   UNL     2      -9.961  13.199  67.998  1.00  0.00    -0.227 N  
HETATM   16  H   UNL     2     -13.701  14.456  69.373  1.00  0.00     0.000 HD 
HETATM   17  C   UNL     2     -13.650  15.578  67.568  1.00  0.00     6.201 A  
HETATM   18  O   UNL     2     -11.472  12.231  69.414  1.00  0.00    -0.271 OA 
ENDROOT
BRANCH   2  19
HETATM   19  C   UNL     1      -9.206  17.639  67.765  1.00  0.00    -0.251 C  
BRANCH  19  20
HETATM   20  C   UNL     1      -8.501  18.568  68.761  1.00  0.00    -0.242 C  
HETATM   21  O   UNL     1      -7.267  18.017  69.214  1.00  0.00    -0.197 OA 
HETATM   22  H   UNL     1      -6.831  18.592  69.831  1.00  0.00     0.000 HD 
ENDBRANCH  19  20
ENDBRANCH   2  19
TORSDOF 2
ENDMDL
MODEL      172
REMARK 921   NORMALIZED FREE ENERGY PREDICTED BY IDOCK:    7.91 KCAL/MOL
REMARK 922        TOTAL FREE ENERGY PREDICTED BY IDOCK:    8.32 KCAL/MOL
REMARK 923 INTER-LIGAND FREE ENERGY PREDICTED BY IDOCK:    7.79 KCAL/MOL
REMARK 924 INTRA-LIGAND FREE ENERGY PREDICTED BY IDOCK:    0.53 KCAL/MOL
REMARK 927      BINDING AFFINITY PREDICTED BY RF-SCORE:    0.00 PKD
ROOT
HETATM    1  C   UNL     1     -10.866  13.960  70.711  1.00  0.00     1.508 C  
HETATM    2  N   UNL     1     -10.258  12.865  69.867  1.00  0.00     1.400 N  
HETATM    3  C   UNL     2      -8.360  12.041  66.537  1.00  0.00    -0.024 C  
HETATM    4  C   UNL     1      -8.785  13.215  69.800  1.00  0.00     2.314 C  
HETATM    5  C   UNL     1     -10.962  12.906  68.512  1.00  0.00    -0.259 C  
HETATM    6  N   UNL     2      -8.492  10.709  67.110  1.00  0.00    -0.127 N  
HETATM    7  C   UNL     2      -6.566   8.348  69.152  1.00  0.00    -0.047 C  
HETATM    8  O   UNL     2      -7.091  10.957  68.932  1.00  0.00    -0.074 OA 
HETATM    9  C   UNL     2      -9.508   9.888  66.697  1.00  0.00    -0.173 A  
HETATM   10  N   UNL     2     -10.729  10.246  66.253  1.00  0.00    -0.067 NA 
HETATM   11  C   UNL     2      -9.481   8.540  66.923  1.00  0.00    -0.183 A  
HETATM   12  C   UNL     2      -7.666  10.224  68.121  1.00  0.00    -0.092 C  
HETATM   13  N   UNL     2     -10.706   8.053  66.590  1.00  0.00    -0.327 NA 
HETATM   14  C   UNL     2      -8.328   7.897  67.498  1.00  0.00    -0.124 C  
HETATM   15  N   UNL     2      -7.548   8.830  68.208  1.00  0.00    -0.095 N  
HETATM   16  H   UNL     2     -11.011   7.082  66.655  1.00  0.00     0.000 HD 
HETATM   17  C   UNL     2     -11.443   9.102  66.155  1.00  0.00     3.514 A  
HETATM   18  O   UNL     2      -7.992   6.712  67.470  1.00  0.00    -0.111 OA 
ENDROOT
BRANCH   2  19
HETATM   19  C   UNL     1     -10.534  11.422  70.378  1.00  0.00     1.664 C  
BRANCH  19  20
HETATM   20  C   UNL     1     -11.177  10.460  69.373  1.00  0.00    -0.259 C  
HETATM   21  O   UNL     1     -12.599  10.460  69.477  1.00  0.00    -0.644 OA 
HETATM   22  H   UNL     1     -12.997   9.863  68.855  1.00  0.00     0.000 HD 
ENDBRANCH  19  20
ENDBRANCH   2  19
TORSDOF 2
ENDMDL
MODEL      173
REMARK 921   NORMALIZED FREE ENERGY PREDICTED BY IDOCK:   15.65 KCAL/MOL
REMARK 922        TOTAL FREE ENERGY PREDICTED BY IDOCK:   16.98 KCAL/MOL
REMARK 923 INTER-LIGAND FREE ENERGY PREDICTED BY IDOCK:    2.31 KCAL/MOL
REMARK 924 INTRA-LIGAND FREE ENERGY PREDICTED BY IDOCK:   14.67 KCAL/MOL
REMARK 927      BINDING AFFINITY PREDICTED BY RF-SCORE:    0.00 PKD
ROOT
HETATM    1  C   UNL     1      -6.186   2.740  67.291  1.00  0.00    -0.028 C  
HETATM    2  N   UNL     1      -6.833   3.377  68.497  1.00  0.00    -0.045 N  
HETATM    3  C   UNL     2      -7.243   3.217  72.393  1.00  0.00    -0.047 C  
HETATM    4  C   UNL     1      -5.668   3.855  69.341  1.00  0.00    -0.018 C  
HETATM    5  C   UNL     1      -7.676   2.296  69.171  1.00  0.00    -0.042 C  
HETATM    6  N   UNL     2      -8.087   4.363  72.079  1.00  0.00    -0.097 N  
HETATM    7  C   UNL     2      -7.882   8.022  71.943  1.00  0.00    -0.106 C  
HETATM    8  O   UNL     2      -6.449   5.839  71.385  1.00  0.00    -0.042 OA 
HETATM    9  C   UNL     2      -9.442   4.198  71.961  1.00  0.00    -0.136 A  
HETATM   10  N   UNL     2     -10.106   3.099  71.555  1.00  0.00    -0.059 NA 
HETATM   11  C   UNL     2     -10.303   5.259  72.019  1.00  0.00    -0.215 A  
HETATM   12  C   UNL     2      -7.585   5.637  71.825  1.00  0.00    -0.096 C  
HETATM   13  N   UNL     2     -11.530   4.798  71.662  1.00  0.00     0.784 NA 
HETATM   14  C   UNL     2      -9.840   6.586  72.328  1.00  0.00    -0.156 C  
HETATM   15  N   UNL     2      -8.464   6.704  72.054  1.00  0.00    -0.116 N  
HETATM   16  H   UNL     2     -12.389   5.346  71.594  1.00  0.00     0.000 HD 
HETATM   17  C   UNL     2     -11.399   3.474  71.412  1.00  0.00     3.228 A  
HETATM   18  O   UNL     2     -10.468   7.563  72.741  1.00  0.00    -0.238 OA 
ENDROOT
BRANCH   2  19
HETATM   19  C   UNL     1      -7.865   4.493  68.169  1.00  0.00    -0.080 C  
BRANCH  19  20
HETATM   20  C   UNL     1      -7.951   5.651  69.169  1.00  0.00    -0.096 C  
HETATM   21  O   UNL     1      -7.920   5.189  70.517  1.00  0.00    -0.086 OA 
HETATM   22  H   UNL     1      -7.974   5.906  71.136  1.00  0.00     0.000 HD 
ENDBRANCH  19  20
ENDBRANCH   2  19
TORSDOF 2
ENDMDL
MODEL      174
REMARK 921   NORMALIZED FREE ENERGY PREDICTED BY IDOCK:   21.91 KCAL/MOL
REMARK 922        TOTAL FREE ENERGY PREDICTED BY IDOCK:   23.97 KCAL/MOL
REMARK 923 INTER-LIGAND FREE ENERGY PREDICTED BY IDOCK:   24.11 KCAL/MOL
REMARK 924 INTRA-LIGAND FREE ENERGY PREDICTED BY IDOCK:   -0.14 KCAL/MOL
REMARK 927      BINDING AFFINITY PREDICTED BY RF-SCORE:    0.00 PKD
ROOT
HETATM    1  C   UNL     1     -13.993  13.802  67.091  1.00  0.00     8.899 C  
HETATM    2  N   UNL     1     -12.539  13.913  67.482  1.00  0.00     0.157 N  
HETATM    3  C   UNL     2      -9.770  16.264  68.957  1.00  0.00    -0.252 C  
HETATM    4  C   UNL     1     -12.569  14.174  68.975  1.00  0.00     0.321 C  
HETATM    5  C   UNL     1     -11.948  15.063  66.669  1.00  0.00     0.031 C  
HETATM    6  N   UNL     2      -8.997  15.054  68.715  1.00  0.00    -0.189 N  
HETATM    7  C   UNL     2      -7.854  12.069  70.514  1.00  0.00     4.358 C  
HETATM    8  O   UNL     2      -9.974  13.678  70.295  1.00  0.00     1.831 OA 
HETATM    9  C   UNL     2      -8.249  14.942  67.573  1.00  0.00    -0.182 A  
HETATM   10  N   UNL     2      -8.491  15.498  66.371  1.00  0.00    -0.256 NA 
HETATM   11  C   UNL     2      -7.250  14.014  67.455  1.00  0.00    -0.165 A  
HETATM   12  C   UNL     2      -9.016  13.950  69.563  1.00  0.00     0.940 C  
HETATM   13  N   UNL     2      -6.854  14.016  66.156  1.00  0.00     2.877 NA 
HETATM   14  C   UNL     2      -6.855  13.191  68.569  1.00  0.00    -0.099 C  
HETATM   15  N   UNL     2      -7.892  13.114  69.517  1.00  0.00     0.716 N  
HETATM   16  H   UNL     2      -6.131  13.426  65.741  1.00  0.00     0.000 HD 
HETATM   17  C   UNL     2      -7.599  14.948  65.515  1.00  0.00     6.107 A  
HETATM   18  O   UNL     2      -5.808  12.569  68.754  1.00  0.00    -0.061 OA 
ENDROOT
BRANCH   2  19
HETATM   19  C   UNL     1     -11.663  12.694  67.079  1.00  0.00    -0.369 C  
BRANCH  19  20
HETATM   20  C   UNL     1     -10.633  12.937  65.970  1.00  0.00    -0.270 C  
HETATM   21  O   UNL     1     -10.813  12.042  64.876  1.00  0.00    -0.282 OA 
HETATM   22  H   UNL     1     -10.175  12.193  64.189  1.00  0.00     0.000 HD 
ENDBRANCH  19  20
ENDBRANCH   2  19
TORSDOF 2
ENDMDL
MODEL      175
REMARK 921   NORMALIZED FREE ENERGY PREDICTED BY IDOCK:   24.73 KCAL/MOL
REMARK 922        TOTAL FREE ENERGY PREDICTED BY IDOCK:   27.12 KCAL/MOL
REMARK 923 INTER-LIGAND FREE ENERGY PREDICTED BY IDOCK:   20.99 KCAL/MOL
REMARK 924 INTRA-LIGAND FREE ENERGY PREDICTED BY IDOCK:    6.13 KCAL/MOL
REMARK 927      BINDING AFFINITY PREDICTED BY RF-SCORE:    0.00 PKD
ROOT
HETATM    1  C   UNL     1      -5.814  13.150  72.771  1.00  0.00     1.196 C  
HETATM    2  N   UNL     1      -6.701  13.508  71.603  1.00  0.00     2.123 N  
HETATM    3  C   UNL     2      -9.158  12.123  68.880  1.00  0.00     0.243 C  
HETATM    4  C   UNL     1      -8.094  13.118  72.055  1.00  0.00    13.280 C  
HETATM    5  C   UNL     1      -6.198  12.709  70.403  1.00  0.00     0.106 C  
HETATM    6  N   UNL     2      -9.160  13.542  68.550  1.00  0.00    -0.142 N  
HETATM    7  C   UNL     2     -11.129  16.561  69.231  1.00  0.00    -0.260 C  
HETATM    8  O   UNL     2     -10.232  14.350  70.432  1.00  0.00     0.593 OA 
HETATM    9  C   UNL     2      -8.356  14.008  67.543  1.00  0.00    -0.192 A  
HETATM   10  N   UNL     2      -7.169  13.514  67.140  1.00  0.00     0.014 NA 
HETATM   11  C   UNL     2      -8.565  15.227  66.961  1.00  0.00    -0.227 A  
HETATM   12  C   UNL     2      -9.901  14.490  69.249  1.00  0.00    -0.009 C  
HETATM   13  N   UNL     2      -7.493  15.480  66.165  1.00  0.00     0.350 NA 
HETATM   14  C   UNL     2      -9.713  16.031  67.293  1.00  0.00    -0.232 C  
HETATM   15  N   UNL     2     -10.226  15.661  68.550  1.00  0.00    -0.208 N  
HETATM   16  H   UNL     2      -7.340  16.317  65.601  1.00  0.00     0.000 HD 
HETATM   17  C   UNL     2      -6.667  14.412  66.262  1.00  0.00     4.179 A  
HETATM   18  O   UNL     2     -10.234  16.955  66.666  1.00  0.00    -0.295 OA 
ENDROOT
BRANCH   2  19
HETATM   19  C   UNL     1      -6.589  14.985  71.131  1.00  0.00     0.700 C  
BRANCH  19  20
HETATM   20  C   UNL     1      -5.946  15.210  69.758  1.00  0.00    -0.132 C  
HETATM   21  O   UNL     1      -6.835  14.872  68.697  1.00  0.00    -0.099 OA 
HETATM   22  H   UNL     1      -6.437  15.011  67.846  1.00  0.00     0.000 HD 
ENDBRANCH  19  20
ENDBRANCH   2  19
TORSDOF 2
ENDMDL
MODEL      176
REMARK 921   NORMALIZED FREE ENERGY PREDICTED BY IDOCK:   26.81 KCAL/MOL
REMARK 922        TOTAL FREE ENERGY PREDICTED BY IDOCK:   29.44 KCAL/MOL
REMARK 923 INTER-LIGAND FREE ENERGY PREDICTED BY IDOCK:   26.74 KCAL/MOL
REMARK 924 INTRA-LIGAND FREE ENERGY PREDICTED BY IDOCK:    2.70 KCAL/MOL
REMARK 927      BINDING AFFINITY PREDICTED BY RF-SCORE:    0.00 PKD
ROOT
HETATM    1  C   UNL     1      -5.147  19.543  68.683  1.00  0.00    -0.189 C  
HETATM    2  N   UNL     1      -6.594  19.129  68.575  1.00  0.00    -0.247 N  
HETATM    3  C   UNL     2      -9.359  17.663  66.213  1.00  0.00    -0.197 C  
HETATM    4  C   UNL     1      -6.540  17.643  68.276  1.00  0.00    -0.190 C  
HETATM    5  C   UNL     1      -7.211  19.959  67.452  1.00  0.00    -0.244 C  
HETATM    6  N   UNL     2     -10.125  17.860  67.436  1.00  0.00    -0.326 N  
HETATM    7  C   UNL     2     -11.206  15.965  70.384  1.00  0.00    -0.378 C  
HETATM    8  O   UNL     2      -9.106  16.264  68.762  1.00  0.00    -0.222 OA 
HETATM    9  C   UNL     2     -10.893  18.985  67.585  1.00  0.00    -0.352 A  
HETATM   10  N   UNL     2     -10.678  20.206  67.057  1.00  0.00    -0.222 NA 
HETATM   11  C   UNL     2     -11.884  19.061  68.524  1.00  0.00     3.523 A  
HETATM   12  C   UNL     2     -10.080  16.984  68.517  1.00  0.00    -0.303 C  
HETATM   13  N   UNL     2     -12.304  20.353  68.559  1.00  0.00     3.662 NA 
HETATM   14  C   UNL     2     -12.251  17.920  69.321  1.00  0.00     6.241 C  
HETATM   15  N   UNL     2     -11.197  16.989  69.364  1.00  0.00     0.166 N  
HETATM   16  H   UNL     2     -13.028  20.739  69.166  1.00  0.00     0.000 HD 
HETATM   17  C   UNL     2     -11.580  21.030  67.638  1.00  0.00     4.448 A  
HETATM   18  O   UNL     2     -13.288  17.700  69.949  1.00  0.00    10.497 OA 
ENDROOT
BRANCH   2  19
HETATM   19  C   UNL     1      -7.466  19.484  69.813  1.00  0.00     0.153 C  
BRANCH  19  20
HETATM   20  C   UNL     1      -8.984  19.368  69.628  1.00  0.00     0.443 C  
HETATM   21  O   UNL     1      -9.666  20.515  70.127  1.00  0.00     0.473 OA 
HETATM   22  H   UNL     1     -10.606  20.443  70.013  1.00  0.00     0.000 HD 
ENDBRANCH  19  20
ENDBRANCH   2  19
TORSDOF 2
ENDMDL
MODEL      177
REMARK 921   NORMALIZED FREE ENERGY PREDICTED BY IDOCK:   26.89 KCAL/MOL
REMARK 922        TOTAL FREE ENERGY PREDICTED BY IDOCK:   29.52 KCAL/MOL
REMARK 923 INTER-LIGAND FREE ENERGY PREDICTED BY IDOCK:   29.67 KCAL/MOL
REMARK 924 INTRA-LIGAND FREE ENERGY PREDICTED BY IDOCK:   -0.15 KCAL/MOL
REMARK 927      BINDING AFFINITY PREDICTED BY RF-SCORE:    0.00 PKD
ROOT
HETATM    1  C   UNL     1      -9.060  18.533  67.070  1.00  0.00    -0.281 C  
HETATM    2  N   UNL     1      -9.641  17.360  67.821  1.00  0.00    -0.259 N  
HETATM    3  C   UNL     2     -11.424  13.884  67.486  1.00  0.00    -0.340 C  
HETATM    4  C   UNL     1      -8.792  16.180  67.391  1.00  0.00    -0.187 C  
HETATM    5  C   UNL     1     -11.106  17.248  67.404  1.00  0.00     0.086 C  
HETATM    6  N   UNL     2     -11.342  14.007  68.935  1.00  0.00    -0.262 N  
HETATM    7  C   UNL     2      -9.170  12.972  71.703  1.00  0.00    16.442 C  
HETATM    8  O   UNL     2      -9.049  13.847  69.183  1.00  0.00     0.135 OA 
HETATM    9  C   UNL     2     -12.425  14.460  69.642  1.00  0.00    -0.165 A  
HETATM   10  N   UNL     2     -13.379  15.316  69.229  1.00  0.00     1.319 NA 
HETATM   11  C   UNL     2     -12.534  14.268  70.991  1.00  0.00    -0.362 A  
HETATM   12  C   UNL     2     -10.184  13.746  69.662  1.00  0.00     0.627 C  
HETATM   13  N   UNL     2     -13.594  15.005  71.416  1.00  0.00    -0.426 NA 
HETATM   14  C   UNL     2     -11.576  13.475  71.717  1.00  0.00     1.936 C  
HETATM   15  N   UNL     2     -10.363  13.397  71.007  1.00  0.00     4.431 N  
HETATM   16  H   UNL     2     -13.932  15.085  72.375  1.00  0.00     0.000 HD 
HETATM   17  C   UNL     2     -14.116  15.613  70.325  1.00  0.00     1.593 A  
HETATM   18  O   UNL     2     -11.678  12.930  72.817  1.00  0.00     3.099 OA 
ENDROOT
BRANCH   2  19
HETATM   19  C   UNL     1      -9.714  17.546  69.363  1.00  0.00     0.116 C  
BRANCH  19  20
HETATM   20  C   UNL     1      -8.910  18.716  69.942  1.00  0.00     1.320 C  
HETATM   21  O   UNL     1      -9.704  19.525  70.806  1.00  0.00     0.847 OA 
HETATM   22  H   UNL     1      -9.207  20.250  71.165  1.00  0.00     0.000 HD 
ENDBRANCH  19  20
ENDBRANCH   2  19
TORSDOF 2
ENDMDL
MODEL      178
REMARK 921   NORMALIZED FREE ENERGY PREDICTED BY IDOCK:   42.24 KCAL/MOL
REMARK 922        TOTAL FREE ENERGY PREDICTED BY IDOCK:   46.67 KCAL/MOL
REMARK 923 INTER-LIGAND FREE ENERGY PREDICTED BY IDOCK:   46.84 KCAL/MOL
REMARK 924 INTRA-LIGAND FREE ENERGY PREDICTED BY IDOCK:   -0.17 KCAL/MOL
REMARK 927      BINDING AFFINITY PREDICTED BY RF-SCORE:    0.00 PKD
ROOT
HETATM    1  C   UNL     1      -5.290  17.071  68.425  1.00  0.00    -0.127 C  
HETATM    2  N   UNL     1      -6.680  17.414  68.903  1.00  0.00    -0.216 N  
HETATM    3  C   UNL     2      -9.524  16.516  71.448  1.00  0.00     5.471 C  
HETATM    4  C   UNL     1      -6.488  17.844  70.344  1.00  0.00     0.737 C  
HETATM    5  C   UNL     1      -7.527  16.152  68.747  1.00  0.00    -0.189 C  
HETATM    6  N   UNL     2     -10.150  17.611  70.720  1.00  0.00     2.278 N  
HETATM    7  C   UNL     2     -10.621  21.238  71.001  1.00  0.00     5.017 C  
HETATM    8  O   UNL     2      -8.790  19.341  71.430  1.00  0.00     3.747 OA 
HETATM    9  C   UNL     2     -11.021  17.339  69.698  1.00  0.00     0.460 A  
HETATM   10  N   UNL     2     -11.020  16.272  68.876  1.00  0.00    -0.314 NA 
HETATM   11  C   UNL     2     -11.889  18.283  69.222  1.00  0.00     5.133 A  
HETATM   12  C   UNL     2      -9.866  18.953  70.961  1.00  0.00     3.085 C  
HETATM   13  N   UNL     2     -12.452  17.776  68.094  1.00  0.00     2.806 NA 
HETATM   14  C   UNL     2     -12.015  19.572  69.851  1.00  0.00     8.855 C  
HETATM   15  N   UNL     2     -10.860  19.871  70.598  1.00  0.00     2.115 N  
HETATM   16  H   UNL     2     -13.135  18.241  67.495  1.00  0.00     0.000 HD 
HETATM   17  C   UNL     2     -11.934  16.538  67.914  1.00  0.00     0.834 A  
HETATM   18  O   UNL     2     -12.932  20.392  69.786  1.00  0.00     8.143 OA 
ENDROOT
BRANCH   2  19
HETATM   19  C   UNL     1      -7.427  18.465  68.033  1.00  0.00    -0.253 C  
BRANCH  19  20
HETATM   20  C   UNL     1      -6.964  18.590  66.577  1.00  0.00    -0.213 C  
HETATM   21  O   UNL     1      -7.818  17.876  65.688  1.00  0.00    -0.534 OA 
HETATM   22  H   UNL     1      -7.531  17.954  64.786  1.00  0.00     0.000 HD 
ENDBRANCH  19  20
ENDBRANCH   2  19
TORSDOF 2
ENDMDL
MODEL      179
REMARK 921   NORMALIZED FREE ENERGY PREDICTED BY IDOCK:   55.59 KCAL/MOL
REMARK 922        TOTAL FREE ENERGY PREDICTED BY IDOCK:   61.58 KCAL/MOL
REMARK 923 INTER-LIGAND FREE ENERGY PREDICTED BY IDOCK:   61.74 KCAL/MOL
REMARK 924 INTRA-LIGAND FREE ENERGY PREDICTED BY IDOCK:   -0.16 KCAL/MOL
REMARK 927      BINDING AFFINITY PREDICTED BY RF-SCORE:    0.00 PKD
ROOT
HETATM    1  C   UNL     1      -6.392  18.983  74.371  1.00  0.00    14.203 C  
HETATM    2  N   UNL     1      -6.860  18.139  73.211  1.00  0.00     6.243 N  
HETATM    3  C   UNL     2      -5.810  15.463  70.544  1.00  0.00    -0.064 C  
HETATM    4  C   UNL     1      -6.683  16.711  73.688  1.00  0.00     7.941 C  
HETATM    5  C   UNL     1      -5.980  18.500  72.016  1.00  0.00     1.164 C  
HETATM    6  N   UNL     2      -7.210  15.661  70.192  1.00  0.00     0.159 N  
HETATM    7  C   UNL     2     -10.491  14.163  70.854  1.00  0.00     2.095 C  
HETATM    8  O   UNL     2      -8.190  14.749  72.076  1.00  0.00     3.792 OA 
HETATM    9  C   UNL     2      -7.540  16.508  69.166  1.00  0.00    -0.210 A  
HETATM   10  N   UNL     2      -6.874  17.604  68.755  1.00  0.00    -0.225 NA 
HETATM   11  C   UNL     2      -8.769  16.468  68.568  1.00  0.00    -0.228 A  
HETATM   12  C   UNL     2      -8.265  15.077  70.887  1.00  0.00     2.349 C  
HETATM   13  N   UNL     2      -8.853  17.553  67.754  1.00  0.00    -0.238 NA 
HETATM   14  C   UNL     2      -9.735  15.455  68.904  1.00  0.00    -0.220 C  
HETATM   15  N   UNL     2      -9.461  14.914  70.174  1.00  0.00     0.357 N  
HETATM   16  H   UNL     2      -9.651  17.816  67.174  1.00  0.00     0.000 HD 
HETATM   17  C   UNL     2      -7.678  18.217  67.856  1.00  0.00    -0.235 A  
HETATM   18  O   UNL     2     -10.717  15.063  68.270  1.00  0.00    -0.244 OA 
ENDROOT
BRANCH   2  19
HETATM   19  C   UNL     1      -8.299  18.456  72.714  1.00  0.00    12.500 C  
BRANCH  19  20
HETATM   20  C   UNL     1      -9.446  17.965  73.604  1.00  0.00    11.049 C  
HETATM   21  O   UNL     1     -10.639  18.716  73.390  1.00  0.00     1.555 OA 
HETATM   22  H   UNL     1     -11.350  18.412  73.942  1.00  0.00     0.000 HD 
ENDBRANCH  19  20
ENDBRANCH   2  19
TORSDOF 2
ENDMDL
