MODEL        1
REMARK 921   NORMALIZED FREE ENERGY PREDICTED BY IDOCK:   -5.83 KCAL/MOL
REMARK 922        TOTAL FREE ENERGY PREDICTED BY IDOCK:  -10.59 KCAL/MOL
REMARK 923 INTER-LIGAND FREE ENERGY PREDICTED BY IDOCK:   -9.58 KCAL/MOL
REMARK 924 INTRA-LIGAND FREE ENERGY PREDICTED BY IDOCK:   -1.01 KCAL/MOL
REMARK 927      BINDING AFFINITY PREDICTED BY RF-SCORE:    0.00 PKD
ROOT
HETATM    1  C   UNL     1      -9.801  20.263  67.895  1.00  0.00    -0.492 C  
HETATM    2  C   UNL     1     -10.843  19.437  67.158  1.00  0.00    -0.561 C  
ENDROOT
BRANCH   2   3
HETATM    3  C   UNL     1     -10.192  18.531  66.115  1.00  0.00    -0.424 C  
BRANCH   3   4
HETATM    4  C   UNL     1      -9.950  17.131  66.665  1.00  0.00    -0.295 C  
BRANCH   4   5
HETATM    5  O   UNL     1      -9.737  16.244  65.560  1.00  0.00    -0.485 OA 
BRANCH   5   6
HETATM    6  C   UNL     1     -10.564  15.145  65.533  1.00  0.00    -0.366 A  
HETATM    7  C   UNL     1     -11.689  15.220  64.690  1.00  0.00    -0.308 A  
HETATM    8  C   UNL     1     -12.516  14.099  64.561  1.00  0.00    -0.350 A  
HETATM    9  N   UNL     1     -11.865  16.315  63.825  1.00  0.00    -1.413 NA 
HETATM   10  H1  UNL     1     -12.680  16.369  63.214  1.00  0.00     0.000 HD 
HETATM   11  C   UNL     1     -12.322  12.973  65.364  1.00  0.00    -0.538 A  
HETATM   12  H2  UNL     1     -11.028  16.404  63.249  1.00  0.00     0.000 HD 
HETATM   13  C   UNL     1     -11.268  12.947  66.281  1.00  0.00    -0.337 A  
HETATM   14  C   UNL     1     -10.378  14.027  66.346  1.00  0.00    -0.289 A  
BRANCH  13  15
HETATM   15  C   UNL     1     -11.208  11.832  67.264  1.00  0.00    -0.305 C  
HETATM   16  O   UNL     1     -10.460  10.875  67.169  1.00  0.00    -0.213 OA 
BRANCH  15  17
HETATM   17  O   UNL     1     -12.221  11.968  68.153  1.00  0.00    -0.428 OA 
BRANCH  17  18
HETATM   18  C   UNL     1     -11.801  12.226  69.503  1.00  0.00    -0.315 C  
BRANCH  18  19
HETATM   19  C   UNL     1     -12.131  13.703  69.803  1.00  0.00    -0.334 C  
BRANCH  19  20
HETATM   20  N   UNL     1     -11.991  14.154  71.199  1.00  0.00    -0.306 NA 
BRANCH  20  21
HETATM   21  C   UNL     1     -11.423  15.504  71.323  1.00  0.00    -0.404 C  
HETATM   22  C   UNL     1     -10.935  16.153  70.032  1.00  0.00    -0.364 C  
ENDBRANCH  20  21
BRANCH  20  23
HETATM   23  C   UNL     1     -13.278  13.973  71.896  1.00  0.00    -0.395 C  
HETATM   24  C   UNL     1     -14.052  15.264  72.135  1.00  0.00    -0.658 C  
ENDBRANCH  20  23
ENDBRANCH  19  20
ENDBRANCH  18  19
ENDBRANCH  17  18
ENDBRANCH  15  17
ENDBRANCH  13  15
ENDBRANCH   5   6
ENDBRANCH   4   5
ENDBRANCH   3   4
ENDBRANCH   2   3
TORSDOF 11
ENDMDL
MODEL        2
REMARK 921   NORMALIZED FREE ENERGY PREDICTED BY IDOCK:   -5.45 KCAL/MOL
REMARK 922        TOTAL FREE ENERGY PREDICTED BY IDOCK:   -9.97 KCAL/MOL
REMARK 923 INTER-LIGAND FREE ENERGY PREDICTED BY IDOCK:   -8.99 KCAL/MOL
REMARK 924 INTRA-LIGAND FREE ENERGY PREDICTED BY IDOCK:   -0.98 KCAL/MOL
REMARK 927      BINDING AFFINITY PREDICTED BY RF-SCORE:    0.00 PKD
ROOT
HETATM    1  C   UNL     1     -13.200  15.862  73.190  1.00  0.00    -0.692 C  
HETATM    2  C   UNL     1     -13.847  15.259  71.954  1.00  0.00    -0.624 C  
ENDROOT
BRANCH   2   3
HETATM    3  C   UNL     1     -14.266  13.811  72.200  1.00  0.00    -0.544 C  
BRANCH   3   4
HETATM    4  C   UNL     1     -13.177  12.835  71.775  1.00  0.00    -0.374 C  
BRANCH   4   5
HETATM    5  O   UNL     1     -13.595  11.511  72.129  1.00  0.00    -0.316 OA 
BRANCH   5   6
HETATM    6  C   UNL     1     -12.806  10.502  71.629  1.00  0.00    -0.475 A  
HETATM    7  C   UNL     1     -12.981   9.223  72.192  1.00  0.00    -0.424 A  
HETATM    8  C   UNL     1     -12.264   8.145  71.662  1.00  0.00    -0.343 A  
HETATM    9  N   UNL     1     -14.010   8.983  73.120  1.00  0.00    -1.215 NA 
HETATM   10  H1  UNL     1     -14.137   8.057  73.527  1.00  0.00     0.000 HD 
HETATM   11  C   UNL     1     -11.280   8.350  70.693  1.00  0.00    -0.275 A  
HETATM   12  H2  UNL     1     -14.893   9.270  72.697  1.00  0.00     0.000 HD 
HETATM   13  C   UNL     1     -11.032   9.640  70.217  1.00  0.00    -0.337 A  
HETATM   14  C   UNL     1     -11.813  10.710  70.671  1.00  0.00    -0.463 A  
BRANCH  13  15
HETATM   15  C   UNL     1      -9.847   9.860  69.345  1.00  0.00    -0.217 C  
HETATM   16  O   UNL     1      -8.933   9.064  69.216  1.00  0.00    -0.139 OA 
BRANCH  15  17
HETATM   17  O   UNL     1      -9.869  11.132  68.878  1.00  0.00    -0.200 OA 
BRANCH  17  18
HETATM   18  C   UNL     1     -10.111  11.246  67.465  1.00  0.00    -0.183 C  
BRANCH  18  19
HETATM   19  C   UNL     1     -11.311  12.200  67.290  1.00  0.00    -0.334 C  
BRANCH  19  20
HETATM   20  N   UNL     1     -11.143  13.328  66.357  1.00  0.00    -0.292 NA 
BRANCH  20  21
HETATM   21  C   UNL     1     -12.073  13.290  65.220  1.00  0.00    -0.418 C  
HETATM   22  C   UNL     1     -12.257  14.596  64.454  1.00  0.00    -0.473 C  
ENDBRANCH  20  21
BRANCH  20  23
HETATM   23  C   UNL     1     -11.169  14.592  67.117  1.00  0.00    -0.333 C  
HETATM   24  C   UNL     1     -11.530  14.434  68.589  1.00  0.00    -0.316 C  
ENDBRANCH  20  23
ENDBRANCH  19  20
ENDBRANCH  18  19
ENDBRANCH  17  18
ENDBRANCH  15  17
ENDBRANCH  13  15
ENDBRANCH   5   6
ENDBRANCH   4   5
ENDBRANCH   3   4
ENDBRANCH   2   3
TORSDOF 11
ENDMDL
MODEL        3
REMARK 921   NORMALIZED FREE ENERGY PREDICTED BY IDOCK:   -5.42 KCAL/MOL
REMARK 922        TOTAL FREE ENERGY PREDICTED BY IDOCK:   -9.92 KCAL/MOL
REMARK 923 INTER-LIGAND FREE ENERGY PREDICTED BY IDOCK:   -9.17 KCAL/MOL
REMARK 924 INTRA-LIGAND FREE ENERGY PREDICTED BY IDOCK:   -0.75 KCAL/MOL
REMARK 927      BINDING AFFINITY PREDICTED BY RF-SCORE:    0.00 PKD
ROOT
HETATM    1  C   UNL     1     -10.161  20.131  68.031  1.00  0.00    -0.519 C  
HETATM    2  C   UNL     1      -9.839  18.646  68.073  1.00  0.00    -0.378 C  
ENDROOT
BRANCH   2   3
HETATM    3  C   UNL     1      -9.804  18.049  66.668  1.00  0.00    -0.352 C  
BRANCH   3   4
HETATM    4  C   UNL     1      -9.406  16.579  66.696  1.00  0.00    -0.256 C  
BRANCH   4   5
HETATM    5  O   UNL     1      -9.602  16.034  65.386  1.00  0.00    -0.409 OA 
BRANCH   5   6
HETATM    6  C   UNL     1     -10.473  14.972  65.326  1.00  0.00    -0.403 A  
HETATM    7  C   UNL     1     -11.619  15.137  64.523  1.00  0.00    -0.329 A  
HETATM    8  C   UNL     1     -12.494  14.059  64.360  1.00  0.00    -0.326 A  
HETATM    9  N   UNL     1     -11.775  16.284  63.725  1.00  0.00    -1.488 NA 
HETATM   10  H1  UNL     1     -12.604  16.404  63.143  1.00  0.00     0.000 HD 
HETATM   11  C   UNL     1     -12.323  12.883  65.095  1.00  0.00    -0.547 A  
HETATM   12  H2  UNL     1     -10.952  16.372  63.128  1.00  0.00     0.000 HD 
HETATM   13  C   UNL     1     -11.246  12.766  65.976  1.00  0.00    -0.335 A  
HETATM   14  C   UNL     1     -10.311  13.804  66.071  1.00  0.00    -0.311 A  
BRANCH  13  15
HETATM   15  C   UNL     1     -11.202  11.597  66.895  1.00  0.00    -0.313 C  
HETATM   16  O   UNL     1     -10.645  10.544  66.638  1.00  0.00    -0.241 OA 
BRANCH  15  17
HETATM   17  O   UNL     1     -12.017  11.832  67.951  1.00  0.00    -0.575 OA 
BRANCH  17  18
HETATM   18  C   UNL     1     -11.371  12.447  69.079  1.00  0.00    -0.283 C  
BRANCH  18  19
HETATM   19  C   UNL     1     -12.171  12.038  70.334  1.00  0.00    -0.294 C  
BRANCH  19  20
HETATM   20  N   UNL     1     -12.262  10.597  70.633  1.00  0.00    -0.332 NA 
BRANCH  20  21
HETATM   21  C   UNL     1     -10.952   9.954  70.810  1.00  0.00    -0.337 C  
HETATM   22  C   UNL     1     -10.572   8.899  69.775  1.00  0.00    -0.230 C  
ENDBRANCH  20  21
BRANCH  20  23
HETATM   23  C   UNL     1     -13.192  10.395  71.759  1.00  0.00    -0.424 C  
HETATM   24  C   UNL     1     -13.136   9.004  72.380  1.00  0.00    -0.487 C  
ENDBRANCH  20  23
ENDBRANCH  19  20
ENDBRANCH  18  19
ENDBRANCH  17  18
ENDBRANCH  15  17
ENDBRANCH  13  15
ENDBRANCH   5   6
ENDBRANCH   4   5
ENDBRANCH   3   4
ENDBRANCH   2   3
TORSDOF 11
ENDMDL
MODEL        4
REMARK 921   NORMALIZED FREE ENERGY PREDICTED BY IDOCK:   -5.40 KCAL/MOL
REMARK 922        TOTAL FREE ENERGY PREDICTED BY IDOCK:   -9.87 KCAL/MOL
REMARK 923 INTER-LIGAND FREE ENERGY PREDICTED BY IDOCK:   -8.82 KCAL/MOL
REMARK 924 INTRA-LIGAND FREE ENERGY PREDICTED BY IDOCK:   -1.05 KCAL/MOL
REMARK 927      BINDING AFFINITY PREDICTED BY RF-SCORE:    0.00 PKD
ROOT
HETATM    1  C   UNL     1     -12.446  15.192  73.199  1.00  0.00    -0.561 C  
HETATM    2  C   UNL     1     -13.821  15.273  72.557  1.00  0.00    -0.626 C  
ENDROOT
BRANCH   2   3
HETATM    3  C   UNL     1     -14.276  13.906  72.051  1.00  0.00    -0.536 C  
BRANCH   3   4
HETATM    4  C   UNL     1     -13.161  12.873  72.155  1.00  0.00    -0.448 C  
BRANCH   4   5
HETATM    5  O   UNL     1     -13.755  11.570  72.169  1.00  0.00    -0.197 OA 
BRANCH   5   6
HETATM    6  C   UNL     1     -12.934  10.556  71.735  1.00  0.00    -0.476 A  
HETATM    7  C   UNL     1     -13.121   9.292  72.327  1.00  0.00    -0.441 A  
HETATM    8  C   UNL     1     -12.371   8.207  71.861  1.00  0.00    -0.371 A  
HETATM    9  N   UNL     1     -14.189   9.067  73.214  1.00  0.00    -1.188 NA 
HETATM   10  H1  UNL     1     -14.325   8.152  73.643  1.00  0.00     0.000 HD 
HETATM   11  C   UNL     1     -11.346   8.394  70.931  1.00  0.00    -0.298 A  
HETATM   12  H2  UNL     1     -15.055   9.331  72.745  1.00  0.00     0.000 HD 
HETATM   13  C   UNL     1     -11.090   9.672  70.428  1.00  0.00    -0.346 A  
HETATM   14  C   UNL     1     -11.901  10.746  70.816  1.00  0.00    -0.443 A  
BRANCH  13  15
HETATM   15  C   UNL     1      -9.870   9.881  69.604  1.00  0.00    -0.232 C  
HETATM   16  O   UNL     1      -8.884   9.166  69.647  1.00  0.00    -0.135 OA 
BRANCH  15  17
HETATM   17  O   UNL     1      -9.969  11.066  68.955  1.00  0.00    -0.205 OA 
BRANCH  17  18
HETATM   18  C   UNL     1     -10.151  10.956  67.533  1.00  0.00    -0.184 C  
BRANCH  18  19
HETATM   19  C   UNL     1     -11.602  11.385  67.231  1.00  0.00    -0.149 C  
BRANCH  19  20
HETATM   20  N   UNL     1     -11.798  12.717  66.631  1.00  0.00    -0.473 NA 
BRANCH  20  21
HETATM   21  C   UNL     1     -11.306  13.815  67.475  1.00  0.00    -0.309 C  
HETATM   22  C   UNL     1     -11.994  13.991  68.824  1.00  0.00    -0.382 C  
ENDBRANCH  20  21
BRANCH  20  23
HETATM   23  C   UNL     1     -11.251  12.716  65.262  1.00  0.00    -0.300 C  
HETATM   24  C   UNL     1     -12.307  12.711  64.162  1.00  0.00    -0.518 C  
ENDBRANCH  20  23
ENDBRANCH  19  20
ENDBRANCH  18  19
ENDBRANCH  17  18
ENDBRANCH  15  17
ENDBRANCH  13  15
ENDBRANCH   5   6
ENDBRANCH   4   5
ENDBRANCH   3   4
ENDBRANCH   2   3
TORSDOF 11
ENDMDL
MODEL        5
REMARK 921   NORMALIZED FREE ENERGY PREDICTED BY IDOCK:   -5.30 KCAL/MOL
REMARK 922        TOTAL FREE ENERGY PREDICTED BY IDOCK:   -9.71 KCAL/MOL
REMARK 923 INTER-LIGAND FREE ENERGY PREDICTED BY IDOCK:   -8.61 KCAL/MOL
REMARK 924 INTRA-LIGAND FREE ENERGY PREDICTED BY IDOCK:   -1.10 KCAL/MOL
REMARK 927      BINDING AFFINITY PREDICTED BY RF-SCORE:    0.00 PKD
ROOT
HETATM    1  C   UNL     1     -13.716  13.217  72.333  1.00  0.00    -0.678 C  
HETATM    2  C   UNL     1     -14.286  14.611  72.128  1.00  0.00    -0.589 C  
ENDROOT
BRANCH   2   3
HETATM    3  C   UNL     1     -13.218  15.574  71.615  1.00  0.00    -0.575 C  
BRANCH   3   4
HETATM    4  C   UNL     1     -12.352  14.927  70.542  1.00  0.00    -0.342 C  
BRANCH   4   5
HETATM    5  O   UNL     1     -11.633  15.960  69.859  1.00  0.00    -0.321 OA 
BRANCH   5   6
HETATM    6  C   UNL     1     -11.357  15.697  68.538  1.00  0.00    -0.360 A  
HETATM    7  C   UNL     1     -10.563  16.640  67.857  1.00  0.00    -0.342 A  
HETATM    8  C   UNL     1     -10.183  16.379  66.536  1.00  0.00    -0.310 A  
HETATM    9  N   UNL     1      -9.980  17.718  68.546  1.00  0.00    -0.351 NA 
HETATM   10  H1  UNL     1      -9.405  18.401  68.053  1.00  0.00     0.000 HD 
HETATM   11  C   UNL     1     -10.699  15.278  65.849  1.00  0.00    -0.340 A  
HETATM   12  H2  UNL     1      -9.434  17.343  69.322  1.00  0.00     0.000 HD 
HETATM   13  C   UNL     1     -11.576  14.404  66.497  1.00  0.00    -0.388 A  
HETATM   14  C   UNL     1     -11.884  14.605  67.848  1.00  0.00    -0.352 A  
BRANCH  13  15
HETATM   15  C   UNL     1     -12.270  13.366  65.689  1.00  0.00    -0.463 C  
HETATM   16  O   UNL     1     -12.970  13.605  64.721  1.00  0.00    -0.685 OA 
BRANCH  15  17
HETATM   17  O   UNL     1     -12.143  12.166  66.305  1.00  0.00    -0.626 OA 
BRANCH  17  18
HETATM   18  C   UNL     1     -10.951  11.439  65.959  1.00  0.00    -0.226 C  
BRANCH  18  19
HETATM   19  C   UNL     1     -10.197  11.160  67.275  1.00  0.00    -0.193 C  
BRANCH  19  20
HETATM   20  N   UNL     1     -10.588   9.956  68.032  1.00  0.00    -0.226 NA 
BRANCH  20  21
HETATM   21  C   UNL     1      -9.801   8.765  67.682  1.00  0.00    -0.180 C  
HETATM   22  C   UNL     1     -10.509   7.714  66.833  1.00  0.00    -0.388 C  
ENDBRANCH  20  21
BRANCH  20  23
HETATM   23  C   UNL     1     -10.597  10.273  69.472  1.00  0.00    -0.245 C  
HETATM   24  C   UNL     1     -11.679  11.259  69.894  1.00  0.00    -0.430 C  
ENDBRANCH  20  23
ENDBRANCH  19  20
ENDBRANCH  18  19
ENDBRANCH  17  18
ENDBRANCH  15  17
ENDBRANCH  13  15
ENDBRANCH   5   6
ENDBRANCH   4   5
ENDBRANCH   3   4
ENDBRANCH   2   3
TORSDOF 11
ENDMDL
MODEL        6
REMARK 921   NORMALIZED FREE ENERGY PREDICTED BY IDOCK:   -5.29 KCAL/MOL
REMARK 922        TOTAL FREE ENERGY PREDICTED BY IDOCK:   -9.71 KCAL/MOL
REMARK 923 INTER-LIGAND FREE ENERGY PREDICTED BY IDOCK:   -8.76 KCAL/MOL
REMARK 924 INTRA-LIGAND FREE ENERGY PREDICTED BY IDOCK:   -0.95 KCAL/MOL
REMARK 927      BINDING AFFINITY PREDICTED BY RF-SCORE:    0.00 PKD
ROOT
HETATM    1  C   UNL     1     -11.977   6.622  71.623  1.00  0.00    -0.395 C  
HETATM    2  C   UNL     1     -11.884   8.047  72.143  1.00  0.00    -0.401 C  
ENDROOT
BRANCH   2   3
HETATM    3  C   UNL     1     -13.152   8.836  71.821  1.00  0.00    -0.406 C  
BRANCH   3   4
HETATM    4  C   UNL     1     -12.826  10.254  71.368  1.00  0.00    -0.441 C  
BRANCH   4   5
HETATM    5  O   UNL     1     -11.516  10.252  70.789  1.00  0.00    -0.319 OA 
BRANCH   5   6
HETATM    6  C   UNL     1     -11.445  10.771  69.517  1.00  0.00    -0.294 A  
HETATM    7  C   UNL     1     -10.902   9.936  68.522  1.00  0.00    -0.217 A  
HETATM    8  C   UNL     1     -10.885  10.384  67.196  1.00  0.00    -0.301 A  
HETATM    9  N   UNL     1     -10.581   8.597  68.806  1.00  0.00    -0.361 NA 
HETATM   10  H1  UNL     1     -10.188   7.992  68.085  1.00  0.00     0.000 HD 
HETATM   11  C   UNL     1     -11.259  11.691  66.880  1.00  0.00    -0.376 A  
HETATM   12  H2  UNL     1     -11.413   8.143  69.184  1.00  0.00     0.000 HD 
HETATM   13  C   UNL     1     -11.693  12.553  67.890  1.00  0.00    -0.416 A  
HETATM   14  C   UNL     1     -11.806  12.082  69.204  1.00  0.00    -0.369 A  
BRANCH  13  15
HETATM   15  C   UNL     1     -11.887  13.991  67.563  1.00  0.00    -0.407 C  
HETATM   16  O   UNL     1     -12.468  14.396  66.571  1.00  0.00    -0.376 OA 
BRANCH  15  17
HETATM   17  O   UNL     1     -11.171  14.745  68.432  1.00  0.00    -0.260 OA 
BRANCH  17  18
HETATM   18  C   UNL     1     -11.939  15.730  69.144  1.00  0.00    -0.296 C  
BRANCH  18  19
HETATM   19  C   UNL     1     -11.420  15.741  70.596  1.00  0.00    -0.390 C  
BRANCH  19  20
HETATM   20  N   UNL     1     -12.428  15.800  71.670  1.00  0.00    -0.437 NA 
BRANCH  20  21
HETATM   21  C   UNL     1     -13.661  15.064  71.355  1.00  0.00    -0.460 C  
HETATM   22  C   UNL     1     -13.900  13.779  72.141  1.00  0.00    -0.649 C  
ENDBRANCH  20  21
BRANCH  20  23
HETATM   23  C   UNL     1     -11.799  15.408  72.945  1.00  0.00    -0.439 C  
HETATM   24  C   UNL     1     -12.435  16.034  74.180  1.00  0.00    -0.748 C  
ENDBRANCH  20  23
ENDBRANCH  19  20
ENDBRANCH  18  19
ENDBRANCH  17  18
ENDBRANCH  15  17
ENDBRANCH  13  15
ENDBRANCH   5   6
ENDBRANCH   4   5
ENDBRANCH   3   4
ENDBRANCH   2   3
TORSDOF 11
ENDMDL
MODEL        7
REMARK 921   NORMALIZED FREE ENERGY PREDICTED BY IDOCK:   -5.29 KCAL/MOL
REMARK 922        TOTAL FREE ENERGY PREDICTED BY IDOCK:   -9.71 KCAL/MOL
REMARK 923 INTER-LIGAND FREE ENERGY PREDICTED BY IDOCK:   -8.14 KCAL/MOL
REMARK 924 INTRA-LIGAND FREE ENERGY PREDICTED BY IDOCK:   -1.56 KCAL/MOL
REMARK 927      BINDING AFFINITY PREDICTED BY RF-SCORE:    0.00 PKD
ROOT
HETATM    1  C   UNL     1     -13.393  13.063  71.975  1.00  0.00    -0.588 C  
HETATM    2  C   UNL     1     -14.206  14.346  72.035  1.00  0.00    -0.639 C  
ENDROOT
BRANCH   2   3
HETATM    3  C   UNL     1     -13.633  15.407  71.099  1.00  0.00    -0.536 C  
BRANCH   3   4
HETATM    4  C   UNL     1     -12.481  14.856  70.269  1.00  0.00    -0.336 C  
BRANCH   4   5
HETATM    5  O   UNL     1     -11.666  15.954  69.843  1.00  0.00    -0.333 OA 
BRANCH   5   6
HETATM    6  C   UNL     1     -11.319  15.935  68.512  1.00  0.00    -0.374 A  
HETATM    7  C   UNL     1     -10.664  17.077  68.012  1.00  0.00    -0.365 A  
HETATM    8  C   UNL     1     -10.214  17.076  66.688  1.00  0.00    -0.310 A  
HETATM    9  N   UNL     1     -10.273  18.116  68.876  1.00  0.00    -0.413 NA 
HETATM   10  H1  UNL     1      -9.800  18.943  68.514  1.00  0.00     0.000 HD 
HETATM   11  C   UNL     1     -10.536  16.024  65.826  1.00  0.00    -0.391 A  
HETATM   12  H2  UNL     1      -9.696  17.715  69.615  1.00  0.00     0.000 HD 
HETATM   13  C   UNL     1     -11.282  14.942  66.299  1.00  0.00    -0.331 A  
HETATM   14  C   UNL     1     -11.652  14.891  67.649  1.00  0.00    -0.357 A  
BRANCH  13  15
HETATM   15  C   UNL     1     -11.786  13.943  65.319  1.00  0.00    -0.340 C  
HETATM   16  O   UNL     1     -12.963  13.780  65.049  1.00  0.00    -0.732 OA 
BRANCH  15  17
HETATM   17  O   UNL     1     -10.760  13.149  64.928  1.00  0.00    -0.312 OA 
BRANCH  17  18
HETATM   18  C   UNL     1     -10.983  11.742  65.128  1.00  0.00    -0.294 C  
BRANCH  18  19
HETATM   19  C   UNL     1      -9.749  11.192  65.871  1.00  0.00    -0.229 C  
BRANCH  19  20
HETATM   20  N   UNL     1      -9.864  11.022  67.331  1.00  0.00    -0.172 NA 
BRANCH  20  21
HETATM   21  C   UNL     1      -9.240  12.111  68.097  1.00  0.00    -0.197 C  
HETATM   22  C   UNL     1      -8.220  12.964  67.350  1.00  0.00    -0.187 C  
ENDBRANCH  20  21
BRANCH  20  23
HETATM   23  C   UNL     1     -11.275  10.771  67.679  1.00  0.00    -0.299 C  
HETATM   24  C   UNL     1     -11.681  11.266  69.061  1.00  0.00    -0.410 C  
ENDBRANCH  20  23
ENDBRANCH  19  20
ENDBRANCH  18  19
ENDBRANCH  17  18
ENDBRANCH  15  17
ENDBRANCH  13  15
ENDBRANCH   5   6
ENDBRANCH   4   5
ENDBRANCH   3   4
ENDBRANCH   2   3
TORSDOF 11
ENDMDL
MODEL        8
REMARK 921   NORMALIZED FREE ENERGY PREDICTED BY IDOCK:   -5.27 KCAL/MOL
REMARK 922        TOTAL FREE ENERGY PREDICTED BY IDOCK:   -9.67 KCAL/MOL
REMARK 923 INTER-LIGAND FREE ENERGY PREDICTED BY IDOCK:   -8.89 KCAL/MOL
REMARK 924 INTRA-LIGAND FREE ENERGY PREDICTED BY IDOCK:   -0.78 KCAL/MOL
REMARK 927      BINDING AFFINITY PREDICTED BY RF-SCORE:    0.00 PKD
ROOT
HETATM    1  C   UNL     1     -10.150   4.943  70.330  1.00  0.00    -0.322 C  
HETATM    2  C   UNL     1      -9.828   4.877  71.814  1.00  0.00    -0.240 C  
ENDROOT
BRANCH   2   3
HETATM    3  C   UNL     1     -11.047   5.241  72.659  1.00  0.00    -0.319 C  
BRANCH   3   4
HETATM    4  C   UNL     1     -11.193   6.751  72.806  1.00  0.00    -0.231 C  
BRANCH   4   5
HETATM    5  O   UNL     1     -12.376   7.158  72.109  1.00  0.00    -0.273 OA 
BRANCH   5   6
HETATM    6  C   UNL     1     -12.372   8.464  71.678  1.00  0.00    -0.320 A  
HETATM    7  C   UNL     1     -13.343   9.318  72.236  1.00  0.00    -0.477 A  
HETATM    8  C   UNL     1     -13.330  10.675  71.896  1.00  0.00    -0.454 A  
HETATM    9  N   UNL     1     -14.175   8.872  73.279  1.00  0.00    -1.237 NA 
HETATM   10  H1  UNL     1     -14.878   9.490  73.683  1.00  0.00     0.000 HD 
HETATM   11  C   UNL     1     -12.467  11.154  70.908  1.00  0.00    -0.509 A  
HETATM   12  H2  UNL     1     -13.583   8.526  74.034  1.00  0.00     0.000 HD 
HETATM   13  C   UNL     1     -11.580  10.279  70.276  1.00  0.00    -0.396 A  
HETATM   14  C   UNL     1     -11.521   8.939  70.681  1.00  0.00    -0.280 A  
BRANCH  13  15
HETATM   15  C   UNL     1     -10.824  10.766  69.091  1.00  0.00    -0.237 C  
HETATM   16  O   UNL     1      -9.662  11.131  69.123  1.00  0.00    -0.149 OA 
BRANCH  15  17
HETATM   17  O   UNL     1     -11.675  10.901  68.046  1.00  0.00    -0.540 OA 
BRANCH  17  18
HETATM   18  C   UNL     1     -11.694  12.212  67.456  1.00  0.00    -0.315 C  
BRANCH  18  19
HETATM   19  C   UNL     1     -11.549  12.021  65.931  1.00  0.00    -0.300 C  
BRANCH  19  20
HETATM   20  N   UNL     1     -12.531  12.705  65.072  1.00  0.00    -0.563 NA 
BRANCH  20  21
HETATM   21  C   UNL     1     -12.769  14.104  65.455  1.00  0.00    -0.443 C  
HETATM   22  C   UNL     1     -11.638  15.086  65.164  1.00  0.00    -0.294 C  
ENDBRANCH  20  21
BRANCH  20  23
HETATM   23  C   UNL     1     -12.147  12.523  63.659  1.00  0.00    -0.554 C  
HETATM   24  C   UNL     1     -10.914  11.653  63.449  1.00  0.00    -0.442 C  
ENDBRANCH  20  23
ENDBRANCH  19  20
ENDBRANCH  18  19
ENDBRANCH  17  18
ENDBRANCH  15  17
ENDBRANCH  13  15
ENDBRANCH   5   6
ENDBRANCH   4   5
ENDBRANCH   3   4
ENDBRANCH   2   3
TORSDOF 11
ENDMDL
MODEL        9
REMARK 921   NORMALIZED FREE ENERGY PREDICTED BY IDOCK:   -5.27 KCAL/MOL
REMARK 922        TOTAL FREE ENERGY PREDICTED BY IDOCK:   -9.67 KCAL/MOL
REMARK 923 INTER-LIGAND FREE ENERGY PREDICTED BY IDOCK:   -8.67 KCAL/MOL
REMARK 924 INTRA-LIGAND FREE ENERGY PREDICTED BY IDOCK:   -1.01 KCAL/MOL
REMARK 927      BINDING AFFINITY PREDICTED BY RF-SCORE:    0.00 PKD
ROOT
HETATM    1  C   UNL     1     -14.027  15.570  72.477  1.00  0.00    -0.646 C  
HETATM    2  C   UNL     1     -12.546  15.702  72.161  1.00  0.00    -0.504 C  
ENDROOT
BRANCH   2   3
HETATM    3  C   UNL     1     -12.040  14.498  71.370  1.00  0.00    -0.420 C  
BRANCH   3   4
HETATM    4  C   UNL     1     -12.298  14.663  69.877  1.00  0.00    -0.294 C  
BRANCH   4   5
HETATM    5  O   UNL     1     -11.541  13.669  69.176  1.00  0.00    -0.266 OA 
BRANCH   5   6
HETATM    6  C   UNL     1     -11.611  13.750  67.805  1.00  0.00    -0.346 A  
HETATM    7  C   UNL     1     -11.763  12.537  67.107  1.00  0.00    -0.355 A  
HETATM    8  C   UNL     1     -11.924  12.569  65.718  1.00  0.00    -0.482 A  
HETATM    9  N   UNL     1     -11.970  11.331  67.801  1.00  0.00    -0.635 NA 
HETATM   10  H1  UNL     1     -12.081  10.452  67.295  1.00  0.00     0.000 HD 
HETATM   11  C   UNL     1     -11.787  13.766  65.011  1.00  0.00    -0.381 A  
HETATM   12  H2  UNL     1     -12.777  11.450  68.414  1.00  0.00     0.000 HD 
HETATM   13  C   UNL     1     -11.524  14.953  65.700  1.00  0.00    -0.290 A  
HETATM   14  C   UNL     1     -11.459  14.943  67.099  1.00  0.00    -0.344 A  
BRANCH  13  15
HETATM   15  C   UNL     1     -11.178  16.169  64.916  1.00  0.00    -0.285 C  
HETATM   16  O   UNL     1     -11.706  16.478  63.863  1.00  0.00    -1.148 OA 
BRANCH  15  17
HETATM   17  O   UNL     1     -10.084  16.753  65.462  1.00  0.00    -0.566 OA 
BRANCH  17  18
HETATM   18  C   UNL     1     -10.309  18.074  65.983  1.00  0.00    -0.331 C  
BRANCH  18  19
HETATM   19  C   UNL     1      -8.976  18.548  66.599  1.00  0.00    -0.295 C  
BRANCH  19  20
HETATM   20  N   UNL     1      -8.092  17.513  67.164  1.00  0.00    -0.205 NA 
BRANCH  20  21
HETATM   21  C   UNL     1      -6.745  17.511  66.576  1.00  0.00    -0.241 C  
HETATM   22  C   UNL     1      -6.501  18.503  65.443  1.00  0.00    -0.282 C  
ENDBRANCH  20  21
BRANCH  20  23
HETATM   23  C   UNL     1      -8.108  17.615  68.635  1.00  0.00    -0.269 C  
HETATM   24  C   UNL     1      -8.983  16.577  69.329  1.00  0.00    -0.083 C  
ENDBRANCH  20  23
ENDBRANCH  19  20
ENDBRANCH  18  19
ENDBRANCH  17  18
ENDBRANCH  15  17
ENDBRANCH  13  15
ENDBRANCH   5   6
ENDBRANCH   4   5
ENDBRANCH   3   4
ENDBRANCH   2   3
TORSDOF 11
ENDMDL
MODEL       10
REMARK 921   NORMALIZED FREE ENERGY PREDICTED BY IDOCK:   -5.26 KCAL/MOL
REMARK 922        TOTAL FREE ENERGY PREDICTED BY IDOCK:   -9.65 KCAL/MOL
REMARK 923 INTER-LIGAND FREE ENERGY PREDICTED BY IDOCK:   -8.66 KCAL/MOL
REMARK 924 INTRA-LIGAND FREE ENERGY PREDICTED BY IDOCK:   -1.00 KCAL/MOL
REMARK 927      BINDING AFFINITY PREDICTED BY RF-SCORE:    0.00 PKD
ROOT
HETATM    1  C   UNL     1     -10.639  19.310  67.573  1.00  0.00    -0.581 C  
HETATM    2  C   UNL     1     -10.249  18.374  68.706  1.00  0.00    -0.333 C  
ENDROOT
BRANCH   2   3
HETATM    3  C   UNL     1     -11.013  17.054  68.619  1.00  0.00    -0.217 C  
BRANCH   3   4
HETATM    4  C   UNL     1     -10.726  16.163  69.821  1.00  0.00    -0.336 C  
BRANCH   4   5
HETATM    5  O   UNL     1     -11.916  16.081  70.614  1.00  0.00    -0.366 OA 
BRANCH   5   6
HETATM    6  C   UNL     1     -12.333  14.802  70.899  1.00  0.00    -0.319 A  
HETATM    7  C   UNL     1     -13.120  14.635  72.054  1.00  0.00    -0.337 A  
HETATM    8  C   UNL     1     -13.641  13.369  72.343  1.00  0.00    -0.708 A  
HETATM    9  N   UNL     1     -13.559  15.750  72.790  1.00  0.00    -0.579 NA 
HETATM   10  H1  UNL     1     -14.129  15.629  73.627  1.00  0.00     0.000 HD 
HETATM   11  C   UNL     1     -13.270  12.255  71.587  1.00  0.00    -0.356 A  
HETATM   12  H2  UNL     1     -14.054  16.376  72.155  1.00  0.00     0.000 HD 
HETATM   13  C   UNL     1     -12.399  12.408  70.506  1.00  0.00    -0.346 A  
HETATM   14  C   UNL     1     -11.951  13.687  70.152  1.00  0.00    -0.407 A  
BRANCH  13  15
HETATM   15  C   UNL     1     -11.859  11.188  69.850  1.00  0.00    -0.363 C  
HETATM   16  O   UNL     1     -11.098  10.402  70.386  1.00  0.00    -0.301 OA 
BRANCH  15  17
HETATM   17  O   UNL     1     -12.201  11.200  68.539  1.00  0.00    -0.600 OA 
BRANCH  17  18
HETATM   18  C   UNL     1     -11.089  11.146  67.630  1.00  0.00    -0.287 C  
BRANCH  18  19
HETATM   19  C   UNL     1     -11.489  11.959  66.381  1.00  0.00    -0.304 C  
BRANCH  19  20
HETATM   20  N   UNL     1     -10.420  12.707  65.695  1.00  0.00    -0.270 NA 
BRANCH  20  21
HETATM   21  C   UNL     1     -10.714  12.982  64.282  1.00  0.00    -0.407 C  
HETATM   22  C   UNL     1     -12.124  12.647  63.807  1.00  0.00    -0.604 C  
ENDBRANCH  20  21
BRANCH  20  23
HETATM   23  C   UNL     1     -10.084  13.905  66.487  1.00  0.00    -0.286 C  
HETATM   24  C   UNL     1      -9.764  15.141  65.655  1.00  0.00    -0.351 C  
ENDBRANCH  20  23
ENDBRANCH  19  20
ENDBRANCH  18  19
ENDBRANCH  17  18
ENDBRANCH  15  17
ENDBRANCH  13  15
ENDBRANCH   5   6
ENDBRANCH   4   5
ENDBRANCH   3   4
ENDBRANCH   2   3
TORSDOF 11
ENDMDL
MODEL       11
REMARK 921   NORMALIZED FREE ENERGY PREDICTED BY IDOCK:   -5.25 KCAL/MOL
REMARK 922        TOTAL FREE ENERGY PREDICTED BY IDOCK:   -9.64 KCAL/MOL
REMARK 923 INTER-LIGAND FREE ENERGY PREDICTED BY IDOCK:   -8.59 KCAL/MOL
REMARK 924 INTRA-LIGAND FREE ENERGY PREDICTED BY IDOCK:   -1.06 KCAL/MOL
REMARK 927      BINDING AFFINITY PREDICTED BY RF-SCORE:    0.00 PKD
ROOT
HETATM    1  C   UNL     1     -13.908  15.597  72.707  1.00  0.00    -0.628 C  
HETATM    2  C   UNL     1     -12.455  16.021  72.840  1.00  0.00    -0.596 C  
ENDROOT
BRANCH   2   3
HETATM    3  C   UNL     1     -11.706  15.850  71.520  1.00  0.00    -0.545 C  
BRANCH   3   4
HETATM    4  C   UNL     1     -12.515  15.030  70.522  1.00  0.00    -0.371 C  
BRANCH   4   5
HETATM    5  O   UNL     1     -11.929  13.726  70.432  1.00  0.00    -0.320 OA 
BRANCH   5   6
HETATM    6  C   UNL     1     -11.801  13.237  69.153  1.00  0.00    -0.329 A  
HETATM    7  C   UNL     1     -11.358  11.906  69.025  1.00  0.00    -0.279 A  
HETATM    8  C   UNL     1     -11.290  11.333  67.751  1.00  0.00    -0.354 A  
HETATM    9  N   UNL     1     -11.193  11.093  70.161  1.00  0.00    -0.480 NA 
HETATM   10  H1  UNL     1     -10.872  10.130  70.069  1.00  0.00     0.000 HD 
HETATM   11  C   UNL     1     -11.513  12.105  66.609  1.00  0.00    -0.426 A  
HETATM   12  H2  UNL     1     -12.071  11.089  70.681  1.00  0.00     0.000 HD 
HETATM   13  C   UNL     1     -11.844  13.456  66.737  1.00  0.00    -0.452 A  
HETATM   14  C   UNL     1     -12.009  14.012  68.012  1.00  0.00    -0.386 A  
BRANCH  13  15
HETATM   15  C   UNL     1     -11.872  14.301  65.513  1.00  0.00    -0.363 C  
HETATM   16  O   UNL     1     -12.160  13.889  64.403  1.00  0.00    -0.419 OA 
BRANCH  15  17
HETATM   17  O   UNL     1     -11.361  15.521  65.805  1.00  0.00    -0.199 OA 
BRANCH  17  18
HETATM   18  C   UNL     1      -9.935  15.624  65.653  1.00  0.00    -0.354 C  
BRANCH  18  19
HETATM   19  C   UNL     1      -9.529  17.024  66.160  1.00  0.00    -0.225 C  
BRANCH  19  20
HETATM   20  N   UNL     1     -10.509  17.749  66.989  1.00  0.00    -0.343 NA 
BRANCH  20  21
HETATM   21  C   UNL     1     -10.320  17.541  68.432  1.00  0.00    -0.378 C  
HETATM   22  C   UNL     1      -8.998  16.909  68.857  1.00  0.00    -0.215 C  
ENDBRANCH  20  21
BRANCH  20  23
HETATM   23  C   UNL     1     -10.533  19.165  66.581  1.00  0.00    -0.443 C  
HETATM   24  C   UNL     1      -9.181  19.865  66.650  1.00  0.00    -0.483 C  
ENDBRANCH  20  23
ENDBRANCH  19  20
ENDBRANCH  18  19
ENDBRANCH  17  18
ENDBRANCH  15  17
ENDBRANCH  13  15
ENDBRANCH   5   6
ENDBRANCH   4   5
ENDBRANCH   3   4
ENDBRANCH   2   3
TORSDOF 11
ENDMDL
MODEL       12
REMARK 921   NORMALIZED FREE ENERGY PREDICTED BY IDOCK:   -5.24 KCAL/MOL
REMARK 922        TOTAL FREE ENERGY PREDICTED BY IDOCK:   -9.61 KCAL/MOL
REMARK 923 INTER-LIGAND FREE ENERGY PREDICTED BY IDOCK:   -8.45 KCAL/MOL
REMARK 924 INTRA-LIGAND FREE ENERGY PREDICTED BY IDOCK:   -1.16 KCAL/MOL
REMARK 927      BINDING AFFINITY PREDICTED BY RF-SCORE:    0.00 PKD
ROOT
HETATM    1  C   UNL     1     -10.898   6.276  68.479  1.00  0.00    -0.394 C  
HETATM    2  C   UNL     1      -9.948   5.725  69.530  1.00  0.00    -0.250 C  
ENDROOT
BRANCH   2   3
HETATM    3  C   UNL     1     -10.574   5.777  70.922  1.00  0.00    -0.329 C  
BRANCH   3   4
HETATM    4  C   UNL     1     -11.901   6.525  70.910  1.00  0.00    -0.331 C  
BRANCH   4   5
HETATM    5  O   UNL     1     -11.862   7.527  71.933  1.00  0.00    -0.278 OA 
BRANCH   5   6
HETATM    6  C   UNL     1     -12.075   8.812  71.493  1.00  0.00    -0.329 A  
HETATM    7  C   UNL     1     -13.156   9.508  72.068  1.00  0.00    -0.438 A  
HETATM    8  C   UNL     1     -13.365  10.846  71.718  1.00  0.00    -0.413 A  
HETATM    9  N   UNL     1     -13.884   8.948  73.133  1.00  0.00    -1.176 NA 
HETATM   10  H1  UNL     1     -14.666   9.451  73.550  1.00  0.00     0.000 HD 
HETATM   11  C   UNL     1     -12.612  11.444  70.705  1.00  0.00    -0.409 A  
HETATM   12  H2  UNL     1     -13.228   8.708  73.877  1.00  0.00     0.000 HD 
HETATM   13  C   UNL     1     -11.612  10.714  70.059  1.00  0.00    -0.406 A  
HETATM   14  C   UNL     1     -11.332   9.405  70.472  1.00  0.00    -0.328 A  
BRANCH  13  15
HETATM   15  C   UNL     1     -10.969  11.300  68.853  1.00  0.00    -0.223 C  
HETATM   16  O   UNL     1      -9.788  11.592  68.779  1.00  0.00    -0.193 OA 
BRANCH  15  17
HETATM   17  O   UNL     1     -11.927  11.614  67.948  1.00  0.00    -0.599 OA 
BRANCH  17  18
HETATM   18  C   UNL     1     -11.502  12.525  66.919  1.00  0.00    -0.353 C  
BRANCH  18  19
HETATM   19  C   UNL     1     -12.157  13.887  67.226  1.00  0.00    -0.368 C  
BRANCH  19  20
HETATM   20  N   UNL     1     -11.284  14.948  67.760  1.00  0.00    -0.309 NA 
BRANCH  20  21
HETATM   21  C   UNL     1     -11.084  14.864  69.213  1.00  0.00    -0.271 C  
HETATM   22  C   UNL     1     -12.210  15.414  70.083  1.00  0.00    -0.407 C  
ENDBRANCH  20  21
BRANCH  20  23
HETATM   23  C   UNL     1     -10.034  14.983  66.979  1.00  0.00    -0.242 C  
HETATM   24  C   UNL     1     -10.162  15.646  65.612  1.00  0.00    -0.402 C  
ENDBRANCH  20  23
ENDBRANCH  19  20
ENDBRANCH  18  19
ENDBRANCH  17  18
ENDBRANCH  15  17
ENDBRANCH  13  15
ENDBRANCH   5   6
ENDBRANCH   4   5
ENDBRANCH   3   4
ENDBRANCH   2   3
TORSDOF 11
ENDMDL
MODEL       13
REMARK 921   NORMALIZED FREE ENERGY PREDICTED BY IDOCK:   -5.22 KCAL/MOL
REMARK 922        TOTAL FREE ENERGY PREDICTED BY IDOCK:   -9.59 KCAL/MOL
REMARK 923 INTER-LIGAND FREE ENERGY PREDICTED BY IDOCK:   -8.68 KCAL/MOL
REMARK 924 INTRA-LIGAND FREE ENERGY PREDICTED BY IDOCK:   -0.91 KCAL/MOL
REMARK 927      BINDING AFFINITY PREDICTED BY RF-SCORE:    0.00 PKD
ROOT
HETATM    1  C   UNL     1     -10.723   7.501  67.226  1.00  0.00    -0.365 C  
HETATM    2  C   UNL     1     -10.902   6.157  67.914  1.00  0.00    -0.406 C  
ENDROOT
BRANCH   2   3
HETATM    3  C   UNL     1     -10.662   6.271  69.418  1.00  0.00    -0.364 C  
BRANCH   3   4
HETATM    4  C   UNL     1      -9.752   7.445  69.751  1.00  0.00    -0.170 C  
BRANCH   4   5
HETATM    5  O   UNL     1     -10.117   7.947  71.042  1.00  0.00    -0.191 OA 
BRANCH   5   6
HETATM    6  C   UNL     1     -10.977   9.019  71.024  1.00  0.00    -0.284 A  
HETATM    7  C   UNL     1     -12.071   8.969  71.909  1.00  0.00    -0.378 A  
HETATM    8  C   UNL     1     -12.929  10.071  71.991  1.00  0.00    -0.514 A  
HETATM    9  N   UNL     1     -12.184   7.930  72.851  1.00  0.00    -0.612 NA 
HETATM   10  H1  UNL     1     -12.976   7.894  73.492  1.00  0.00     0.000 HD 
HETATM   11  C   UNL     1     -12.797  11.145  71.108  1.00  0.00    -0.473 A  
HETATM   12  H2  UNL     1     -11.326   7.905  73.402  1.00  0.00     0.000 HD 
HETATM   13  C   UNL     1     -11.775  11.140  70.155  1.00  0.00    -0.439 A  
HETATM   14  C   UNL     1     -10.854  10.085  70.132  1.00  0.00    -0.365 A  
BRANCH  13  15
HETATM   15  C   UNL     1     -11.782  12.187  69.099  1.00  0.00    -0.328 C  
HETATM   16  O   UNL     1     -11.661  13.379  69.316  1.00  0.00    -0.289 OA 
BRANCH  15  17
HETATM   17  O   UNL     1     -12.119  11.621  67.915  1.00  0.00    -0.613 OA 
BRANCH  17  18
HETATM   18  C   UNL     1     -11.261  11.975  66.817  1.00  0.00    -0.322 C  
BRANCH  18  19
HETATM   19  C   UNL     1     -12.129  12.745  65.799  1.00  0.00    -0.448 C  
BRANCH  19  20
HETATM   20  N   UNL     1     -11.429  13.394  64.675  1.00  0.00    -0.334 NA 
BRANCH  20  21
HETATM   21  C   UNL     1     -11.325  12.542  63.482  1.00  0.00    -0.486 C  
HETATM   22  C   UNL     1     -10.002  11.810  63.289  1.00  0.00    -0.435 C  
ENDBRANCH  20  21
BRANCH  20  23
HETATM   23  C   UNL     1     -12.038  14.713  64.425  1.00  0.00    -0.462 C  
HETATM   24  C   UNL     1     -11.126  15.896  64.729  1.00  0.00    -0.397 C  
ENDBRANCH  20  23
ENDBRANCH  19  20
ENDBRANCH  18  19
ENDBRANCH  17  18
ENDBRANCH  15  17
ENDBRANCH  13  15
ENDBRANCH   5   6
ENDBRANCH   4   5
ENDBRANCH   3   4
ENDBRANCH   2   3
TORSDOF 11
ENDMDL
MODEL       14
REMARK 921   NORMALIZED FREE ENERGY PREDICTED BY IDOCK:   -5.21 KCAL/MOL
REMARK 922        TOTAL FREE ENERGY PREDICTED BY IDOCK:   -9.57 KCAL/MOL
REMARK 923 INTER-LIGAND FREE ENERGY PREDICTED BY IDOCK:   -8.65 KCAL/MOL
REMARK 924 INTRA-LIGAND FREE ENERGY PREDICTED BY IDOCK:   -0.92 KCAL/MOL
REMARK 927      BINDING AFFINITY PREDICTED BY RF-SCORE:    0.00 PKD
ROOT
HETATM    1  C   UNL     1     -12.486  10.885  70.944  1.00  0.00    -0.507 C  
HETATM    2  C   UNL     1     -12.012  11.516  69.645  1.00  0.00    -0.407 C  
ENDROOT
BRANCH   2   3
HETATM    3  C   UNL     1     -11.096  10.569  68.873  1.00  0.00    -0.312 C  
BRANCH   3   4
HETATM    4  C   UNL     1     -10.979  10.975  67.410  1.00  0.00    -0.291 C  
BRANCH   4   5
HETATM    5  O   UNL     1     -11.963  11.982  67.142  1.00  0.00    -0.601 OA 
BRANCH   5   6
HETATM    6  C   UNL     1     -11.493  13.085  66.469  1.00  0.00    -0.340 A  
HETATM    7  C   UNL     1     -12.063  13.349  65.209  1.00  0.00    -0.413 A  
HETATM    8  C   UNL     1     -11.682  14.505  64.520  1.00  0.00    -0.421 A  
HETATM    9  N   UNL     1     -13.152  12.590  64.742  1.00  0.00    -0.814 NA 
HETATM   10  H1  UNL     1     -13.565  12.781  63.830  1.00  0.00     0.000 HD 
HETATM   11  C   UNL     1     -10.645  15.311  64.998  1.00  0.00    -0.444 A  
HETATM   12  H2  UNL     1     -13.892  12.631  65.442  1.00  0.00     0.000 HD 
HETATM   13  C   UNL     1     -10.006  14.982  66.195  1.00  0.00    -0.313 A  
HETATM   14  C   UNL     1     -10.448  13.881  66.939  1.00  0.00    -0.276 A  
BRANCH  13  15
HETATM   15  C   UNL     1      -8.777  15.731  66.573  1.00  0.00    -0.319 C  
HETATM   16  O   UNL     1      -8.025  15.403  67.474  1.00  0.00    -0.143 OA 
BRANCH  15  17
HETATM   17  O   UNL     1      -8.740  16.899  65.888  1.00  0.00    -0.516 OA 
BRANCH  17  18
HETATM   18  C   UNL     1      -7.593  17.720  66.167  1.00  0.00    -0.267 C  
BRANCH  18  19
HETATM   19  C   UNL     1      -8.093  19.177  66.256  1.00  0.00    -0.297 C  
BRANCH  19  20
HETATM   20  N   UNL     1      -8.357  19.715  67.603  1.00  0.00    -0.300 NA 
BRANCH  20  21
HETATM   21  C   UNL     1      -9.781  19.975  67.859  1.00  0.00    -0.390 C  
HETATM   22  C   UNL     1     -10.751  19.573  66.753  1.00  0.00    -0.569 C  
ENDBRANCH  20  21
BRANCH  20  23
HETATM   23  C   UNL     1      -7.711  18.848  68.605  1.00  0.00    -0.340 C  
HETATM   24  C   UNL     1      -6.652  19.545  69.452  1.00  0.00    -0.373 C  
ENDBRANCH  20  23
ENDBRANCH  19  20
ENDBRANCH  18  19
ENDBRANCH  17  18
ENDBRANCH  15  17
ENDBRANCH  13  15
ENDBRANCH   5   6
ENDBRANCH   4   5
ENDBRANCH   3   4
ENDBRANCH   2   3
TORSDOF 11
ENDMDL
MODEL       15
REMARK 921   NORMALIZED FREE ENERGY PREDICTED BY IDOCK:   -5.20 KCAL/MOL
REMARK 922        TOTAL FREE ENERGY PREDICTED BY IDOCK:   -9.56 KCAL/MOL
REMARK 923 INTER-LIGAND FREE ENERGY PREDICTED BY IDOCK:   -8.38 KCAL/MOL
REMARK 924 INTRA-LIGAND FREE ENERGY PREDICTED BY IDOCK:   -1.18 KCAL/MOL
REMARK 927      BINDING AFFINITY PREDICTED BY RF-SCORE:    0.00 PKD
ROOT
HETATM    1  C   UNL     1     -14.045  14.063  72.236  1.00  0.00    -0.633 C  
HETATM    2  C   UNL     1     -13.672  15.162  71.254  1.00  0.00    -0.555 C  
ENDROOT
BRANCH   2   3
HETATM    3  C   UNL     1     -12.314  15.770  71.596  1.00  0.00    -0.521 C  
BRANCH   3   4
HETATM    4  C   UNL     1     -11.255  15.381  70.573  1.00  0.00    -0.333 C  
BRANCH   4   5
HETATM    5  O   UNL     1     -11.173  16.420  69.591  1.00  0.00    -0.323 OA 
BRANCH   5   6
HETATM    6  C   UNL     1     -11.105  15.981  68.289  1.00  0.00    -0.351 A  
HETATM    7  C   UNL     1     -10.534  16.863  67.352  1.00  0.00    -0.310 A  
HETATM    8  C   UNL     1     -10.364  16.434  66.032  1.00  0.00    -0.365 A  
HETATM    9  N   UNL     1      -9.946  18.070  67.770  1.00  0.00    -0.311 NA 
HETATM   10  H1  UNL     1      -9.532  18.709  67.092  1.00  0.00     0.000 HD 
HETATM   11  C   UNL     1     -10.884  15.209  65.607  1.00  0.00    -0.367 A  
HETATM   12  H2  UNL     1      -9.241  17.854  68.475  1.00  0.00     0.000 HD 
HETATM   13  C   UNL     1     -11.549  14.384  66.517  1.00  0.00    -0.388 A  
HETATM   14  C   UNL     1     -11.638  14.764  67.862  1.00  0.00    -0.373 A  
BRANCH  13  15
HETATM   15  C   UNL     1     -12.270  13.190  65.999  1.00  0.00    -0.414 C  
HETATM   16  O   UNL     1     -13.014  13.205  65.034  1.00  0.00    -0.729 OA 
BRANCH  15  17
HETATM   17  O   UNL     1     -12.107  12.162  66.866  1.00  0.00    -0.600 OA 
BRANCH  17  18
HETATM   18  C   UNL     1     -10.906  11.397  66.667  1.00  0.00    -0.289 C  
BRANCH  18  19
HETATM   19  C   UNL     1     -10.997  10.169  67.596  1.00  0.00    -0.268 C  
BRANCH  19  20
HETATM   20  N   UNL     1     -10.330  10.267  68.907  1.00  0.00    -0.192 NA 
BRANCH  20  21
HETATM   21  C   UNL     1     -11.263  10.220  70.042  1.00  0.00    -0.311 C  
HETATM   22  C   UNL     1     -12.064  11.489  70.311  1.00  0.00    -0.444 C  
ENDBRANCH  20  21
BRANCH  20  23
HETATM   23  C   UNL     1      -9.246   9.270  68.974  1.00  0.00    -0.144 C  
HETATM   24  C   UNL     1      -9.717   7.843  69.230  1.00  0.00    -0.159 C  
ENDBRANCH  20  23
ENDBRANCH  19  20
ENDBRANCH  18  19
ENDBRANCH  17  18
ENDBRANCH  15  17
ENDBRANCH  13  15
ENDBRANCH   5   6
ENDBRANCH   4   5
ENDBRANCH   3   4
ENDBRANCH   2   3
TORSDOF 11
ENDMDL
MODEL       16
REMARK 921   NORMALIZED FREE ENERGY PREDICTED BY IDOCK:   -5.19 KCAL/MOL
REMARK 922        TOTAL FREE ENERGY PREDICTED BY IDOCK:   -9.54 KCAL/MOL
REMARK 923 INTER-LIGAND FREE ENERGY PREDICTED BY IDOCK:   -8.56 KCAL/MOL
REMARK 924 INTRA-LIGAND FREE ENERGY PREDICTED BY IDOCK:   -0.98 KCAL/MOL
REMARK 927      BINDING AFFINITY PREDICTED BY RF-SCORE:    0.00 PKD
ROOT
HETATM    1  C   UNL     1     -12.109   7.727  71.201  1.00  0.00    -0.306 C  
HETATM    2  C   UNL     1     -11.559   9.064  71.668  1.00  0.00    -0.426 C  
ENDROOT
BRANCH   2   3
HETATM    3  C   UNL     1     -10.797   9.770  70.548  1.00  0.00    -0.387 C  
BRANCH   3   4
HETATM    4  C   UNL     1     -11.651  10.838  69.879  1.00  0.00    -0.331 C  
BRANCH   4   5
HETATM    5  O   UNL     1     -12.365  11.548  70.898  1.00  0.00    -0.377 OA 
BRANCH   5   6
HETATM    6  C   UNL     1     -12.369  12.916  70.755  1.00  0.00    -0.299 A  
HETATM    7  C   UNL     1     -13.191  13.642  71.639  1.00  0.00    -0.367 A  
HETATM    8  C   UNL     1     -13.168  15.040  71.592  1.00  0.00    -0.464 A  
HETATM    9  N   UNL     1     -13.859  12.994  72.693  1.00  0.00    -0.742 NA 
HETATM   10  H1  UNL     1     -14.454  13.519  73.333  1.00  0.00     0.000 HD 
HETATM   11  C   UNL     1     -12.460  15.709  70.592  1.00  0.00    -0.463 A  
HETATM   12  H2  UNL     1     -13.168  12.487  73.245  1.00  0.00     0.000 HD 
HETATM   13  C   UNL     1     -11.733  14.979  69.648  1.00  0.00    -0.353 A  
HETATM   14  C   UNL     1     -11.673  13.583  69.747  1.00  0.00    -0.363 A  
BRANCH  13  15
HETATM   15  C   UNL     1     -11.162  15.698  68.479  1.00  0.00    -0.342 C  
HETATM   16  O   UNL     1     -11.019  16.907  68.421  1.00  0.00    -0.356 OA 
BRANCH  15  17
HETATM   17  O   UNL     1     -11.004  14.826  67.454  1.00  0.00    -0.295 OA 
BRANCH  17  18
HETATM   18  C   UNL     1     -10.754  15.441  66.179  1.00  0.00    -0.314 C  
BRANCH  18  19
HETATM   19  C   UNL     1     -10.621  14.300  65.148  1.00  0.00    -0.406 C  
BRANCH  19  20
HETATM   20  N   UNL     1     -11.191  12.992  65.517  1.00  0.00    -0.285 NA 
BRANCH  20  21
HETATM   21  C   UNL     1     -12.484  12.716  64.874  1.00  0.00    -0.494 C  
HETATM   22  C   UNL     1     -12.428  12.180  63.447  1.00  0.00    -0.625 C  
ENDBRANCH  20  21
BRANCH  20  23
HETATM   23  C   UNL     1     -10.175  11.944  65.304  1.00  0.00    -0.272 C  
HETATM   24  C   UNL     1     -10.192  10.830  66.343  1.00  0.00    -0.294 C  
ENDBRANCH  20  23
ENDBRANCH  19  20
ENDBRANCH  18  19
ENDBRANCH  17  18
ENDBRANCH  15  17
ENDBRANCH  13  15
ENDBRANCH   5   6
ENDBRANCH   4   5
ENDBRANCH   3   4
ENDBRANCH   2   3
TORSDOF 11
ENDMDL
MODEL       17
REMARK 921   NORMALIZED FREE ENERGY PREDICTED BY IDOCK:   -5.18 KCAL/MOL
REMARK 922        TOTAL FREE ENERGY PREDICTED BY IDOCK:   -9.53 KCAL/MOL
REMARK 923 INTER-LIGAND FREE ENERGY PREDICTED BY IDOCK:   -8.69 KCAL/MOL
REMARK 924 INTRA-LIGAND FREE ENERGY PREDICTED BY IDOCK:   -0.84 KCAL/MOL
REMARK 927      BINDING AFFINITY PREDICTED BY RF-SCORE:    0.00 PKD
ROOT
HETATM    1  C   UNL     1     -10.706   7.211  68.010  1.00  0.00    -0.232 C  
HETATM    2  C   UNL     1     -10.692   5.854  68.693  1.00  0.00    -0.339 C  
ENDROOT
BRANCH   2   3
HETATM    3  C   UNL     1     -11.081   5.972  70.165  1.00  0.00    -0.432 C  
BRANCH   3   4
HETATM    4  C   UNL     1     -10.842   7.381  70.693  1.00  0.00    -0.242 C  
BRANCH   4   5
HETATM    5  O   UNL     1     -12.041   7.831  71.335  1.00  0.00    -0.297 OA 
BRANCH   5   6
HETATM    6  C   UNL     1     -12.292   9.177  71.214  1.00  0.00    -0.315 A  
HETATM    7  C   UNL     1     -13.221   9.732  72.115  1.00  0.00    -0.436 A  
HETATM    8  C   UNL     1     -13.449  11.112  72.090  1.00  0.00    -0.193 A  
HETATM    9  N   UNL     1     -13.751   8.961  73.164  1.00  0.00    -1.100 NA 
HETATM   10  H1  UNL     1     -14.423   9.362  73.817  1.00  0.00     0.000 HD 
HETATM   11  C   UNL     1     -12.882  11.911  71.094  1.00  0.00    -0.346 A  
HETATM   12  H2  UNL     1     -12.973   8.578  73.703  1.00  0.00     0.000 HD 
HETATM   13  C   UNL     1     -12.047  11.336  70.133  1.00  0.00    -0.448 A  
HETATM   14  C   UNL     1     -11.737   9.972  70.211  1.00  0.00    -0.327 A  
BRANCH  13  15
HETATM   15  C   UNL     1     -11.627  12.162  68.970  1.00  0.00    -0.319 C  
HETATM   16  O   UNL     1     -11.158  13.284  69.060  1.00  0.00    -0.255 OA 
BRANCH  15  17
HETATM   17  O   UNL     1     -12.011  11.547  67.826  1.00  0.00    -0.623 OA 
BRANCH  17  18
HETATM   18  C   UNL     1     -10.928  11.059  67.016  1.00  0.00    -0.272 C  
BRANCH  18  19
HETATM   19  C   UNL     1     -10.799  12.017  65.813  1.00  0.00    -0.287 C  
BRANCH  19  20
HETATM   20  N   UNL     1     -12.049  12.463  65.172  1.00  0.00    -0.441 NA 
BRANCH  20  21
HETATM   21  C   UNL     1     -12.447  13.826  65.553  1.00  0.00    -0.512 C  
HETATM   22  C   UNL     1     -11.443  14.932  65.248  1.00  0.00    -0.336 C  
ENDBRANCH  20  21
BRANCH  20  23
HETATM   23  C   UNL     1     -11.950  12.247  63.717  1.00  0.00    -0.519 C  
HETATM   24  C   UNL     1     -10.552  11.888  63.227  1.00  0.00    -0.420 C  
ENDBRANCH  20  23
ENDBRANCH  19  20
ENDBRANCH  18  19
ENDBRANCH  17  18
ENDBRANCH  15  17
ENDBRANCH  13  15
ENDBRANCH   5   6
ENDBRANCH   4   5
ENDBRANCH   3   4
ENDBRANCH   2   3
TORSDOF 11
ENDMDL
MODEL       18
REMARK 921   NORMALIZED FREE ENERGY PREDICTED BY IDOCK:   -5.18 KCAL/MOL
REMARK 922        TOTAL FREE ENERGY PREDICTED BY IDOCK:   -9.52 KCAL/MOL
REMARK 923 INTER-LIGAND FREE ENERGY PREDICTED BY IDOCK:   -8.04 KCAL/MOL
REMARK 924 INTRA-LIGAND FREE ENERGY PREDICTED BY IDOCK:   -1.48 KCAL/MOL
REMARK 927      BINDING AFFINITY PREDICTED BY RF-SCORE:    0.00 PKD
ROOT
HETATM    1  C   UNL     1     -10.084  11.056  63.371  1.00  0.00    -0.424 C  
HETATM    2  C   UNL     1     -10.789  12.400  63.453  1.00  0.00    -0.417 C  
ENDROOT
BRANCH   2   3
HETATM    3  C   UNL     1     -12.253  12.233  63.854  1.00  0.00    -0.608 C  
BRANCH   3   4
HETATM    4  C   UNL     1     -12.505  12.734  65.270  1.00  0.00    -0.465 C  
BRANCH   4   5
HETATM    5  O   UNL     1     -11.570  12.095  66.147  1.00  0.00    -0.364 OA 
BRANCH   5   6
HETATM    6  C   UNL     1     -11.701  12.428  67.475  1.00  0.00    -0.357 A  
HETATM    7  C   UNL     1     -11.799  11.362  68.389  1.00  0.00    -0.274 A  
HETATM    8  C   UNL     1     -11.849  11.644  69.758  1.00  0.00    -0.428 A  
HETATM    9  N   UNL     1     -11.631  10.032  67.961  1.00  0.00    -0.621 NA 
HETATM   10  H1  UNL     1     -11.702   9.260  68.622  1.00  0.00     0.000 HD 
HETATM   11  C   UNL     1     -11.952  12.961  70.212  1.00  0.00    -0.359 A  
HETATM   12  H2  UNL     1     -10.733   9.962  67.484  1.00  0.00     0.000 HD 
HETATM   13  C   UNL     1     -11.967  14.013  69.293  1.00  0.00    -0.396 A  
HETATM   14  C   UNL     1     -11.818  13.743  67.926  1.00  0.00    -0.413 A  
BRANCH  13  15
HETATM   15  C   UNL     1     -12.284  15.381  69.783  1.00  0.00    -0.306 C  
HETATM   16  O   UNL     1     -12.948  15.616  70.777  1.00  0.00    -0.478 OA 
BRANCH  15  17
HETATM   17  O   UNL     1     -11.876  16.288  68.863  1.00  0.00    -0.284 OA 
BRANCH  17  18
HETATM   18  C   UNL     1     -10.626  16.930  69.169  1.00  0.00    -0.330 C  
BRANCH  18  19
HETATM   19  C   UNL     1      -9.862  17.084  67.837  1.00  0.00    -0.269 C  
BRANCH  19  20
HETATM   20  N   UNL     1      -8.779  16.122  67.568  1.00  0.00    -0.183 NA 
BRANCH  20  21
HETATM   21  C   UNL     1      -8.519  15.207  68.689  1.00  0.00    -0.170 C  
HETATM   22  C   UNL     1      -8.196  13.762  68.320  1.00  0.00    -0.156 C  
ENDBRANCH  20  21
BRANCH  20  23
HETATM   23  C   UNL     1      -9.041  15.445  66.284  1.00  0.00    -0.320 C  
HETATM   24  C   UNL     1     -10.315  15.900  65.581  1.00  0.00    -0.413 C  
ENDBRANCH  20  23
ENDBRANCH  19  20
ENDBRANCH  18  19
ENDBRANCH  17  18
ENDBRANCH  15  17
ENDBRANCH  13  15
ENDBRANCH   5   6
ENDBRANCH   4   5
ENDBRANCH   3   4
ENDBRANCH   2   3
TORSDOF 11
ENDMDL
MODEL       19
REMARK 921   NORMALIZED FREE ENERGY PREDICTED BY IDOCK:   -5.15 KCAL/MOL
REMARK 922        TOTAL FREE ENERGY PREDICTED BY IDOCK:   -9.47 KCAL/MOL
REMARK 923 INTER-LIGAND FREE ENERGY PREDICTED BY IDOCK:   -8.82 KCAL/MOL
REMARK 924 INTRA-LIGAND FREE ENERGY PREDICTED BY IDOCK:   -0.65 KCAL/MOL
REMARK 927      BINDING AFFINITY PREDICTED BY RF-SCORE:    0.00 PKD
ROOT
HETATM    1  C   UNL     1     -12.335  12.123  63.441  1.00  0.00    -0.648 C  
HETATM    2  C   UNL     1     -11.996  13.441  64.117  1.00  0.00    -0.505 C  
ENDROOT
BRANCH   2   3
HETATM    3  C   UNL     1     -12.430  13.439  65.581  1.00  0.00    -0.519 C  
BRANCH   3   4
HETATM    4  C   UNL     1     -11.332  12.897  66.488  1.00  0.00    -0.318 C  
BRANCH   4   5
HETATM    5  O   UNL     1     -11.434  11.469  66.513  1.00  0.00    -0.404 OA 
BRANCH   5   6
HETATM    6  C   UNL     1     -11.342  10.904  67.764  1.00  0.00    -0.292 A  
HETATM    7  C   UNL     1     -10.592   9.717  67.870  1.00  0.00    -0.259 A  
HETATM    8  C   UNL     1     -10.397   9.149  69.133  1.00  0.00    -0.223 A  
HETATM    9  N   UNL     1      -9.868   9.226  66.768  1.00  0.00    -0.206 NA 
HETATM   10  H1  UNL     1      -9.325   8.367  66.845  1.00  0.00     0.000 HD 
HETATM   11  C   UNL     1     -11.055   9.659  70.254  1.00  0.00    -0.327 A  
HETATM   12  H2  UNL     1      -9.249   9.966  66.437  1.00  0.00     0.000 HD 
HETATM   13  C   UNL     1     -11.888  10.772  70.124  1.00  0.00    -0.427 A  
HETATM   14  C   UNL     1     -12.011  11.405  68.881  1.00  0.00    -0.371 A  
BRANCH  13  15
HETATM   15  C   UNL     1     -12.734  11.166  71.282  1.00  0.00    -0.426 C  
HETATM   16  O   UNL     1     -13.082  10.405  72.167  1.00  0.00    -0.445 OA 
BRANCH  15  17
HETATM   17  O   UNL     1     -13.186  12.429  71.093  1.00  0.00    -0.125 OA 
BRANCH  17  18
HETATM   18  C   UNL     1     -13.584  13.109  72.296  1.00  0.00    -0.581 C  
BRANCH  18  19
HETATM   19  C   UNL     1     -14.154  14.479  71.871  1.00  0.00    -0.508 C  
BRANCH  19  20
HETATM   20  N   UNL     1     -13.316  15.664  72.129  1.00  0.00    -0.457 NA 
BRANCH  20  21
HETATM   21  C   UNL     1     -13.383  16.134  73.520  1.00  0.00    -0.330 C  
HETATM   22  C   UNL     1     -12.194  15.784  74.409  1.00  0.00    -0.695 C  
ENDBRANCH  20  21
BRANCH  20  23
HETATM   23  C   UNL     1     -11.948  15.404  71.644  1.00  0.00    -0.387 C  
HETATM   24  C   UNL     1     -11.708  15.803  70.193  1.00  0.00    -0.367 C  
ENDBRANCH  20  23
ENDBRANCH  19  20
ENDBRANCH  18  19
ENDBRANCH  17  18
ENDBRANCH  15  17
ENDBRANCH  13  15
ENDBRANCH   5   6
ENDBRANCH   4   5
ENDBRANCH   3   4
ENDBRANCH   2   3
TORSDOF 11
ENDMDL
MODEL       20
REMARK 921   NORMALIZED FREE ENERGY PREDICTED BY IDOCK:   -5.14 KCAL/MOL
REMARK 922        TOTAL FREE ENERGY PREDICTED BY IDOCK:   -9.46 KCAL/MOL
REMARK 923 INTER-LIGAND FREE ENERGY PREDICTED BY IDOCK:   -8.29 KCAL/MOL
REMARK 924 INTRA-LIGAND FREE ENERGY PREDICTED BY IDOCK:   -1.17 KCAL/MOL
REMARK 927      BINDING AFFINITY PREDICTED BY RF-SCORE:    0.00 PKD
ROOT
HETATM    1  C   UNL     1     -10.408   5.465  69.507  1.00  0.00    -0.350 C  
HETATM    2  C   UNL     1      -9.650   5.586  70.819  1.00  0.00    -0.220 C  
ENDROOT
BRANCH   2   3
HETATM    3  C   UNL     1     -10.600   5.532  72.013  1.00  0.00    -0.284 C  
BRANCH   3   4
HETATM    4  C   UNL     1     -10.973   6.928  72.494  1.00  0.00    -0.260 C  
BRANCH   4   5
HETATM    5  O   UNL     1     -12.223   7.291  71.895  1.00  0.00    -0.301 OA 
BRANCH   5   6
HETATM    6  C   UNL     1     -12.304   8.597  71.471  1.00  0.00    -0.324 A  
HETATM    7  C   UNL     1     -13.240   9.419  72.128  1.00  0.00    -0.460 A  
HETATM    8  C   UNL     1     -13.304  10.776  71.794  1.00  0.00    -0.429 A  
HETATM    9  N   UNL     1     -13.948   8.946  73.248  1.00  0.00    -1.217 NA 
HETATM   10  H1  UNL     1     -14.626   9.541  73.724  1.00  0.00     0.000 HD 
HETATM   11  C   UNL     1     -12.561  11.283  70.725  1.00  0.00    -0.425 A  
HETATM   12  H2  UNL     1     -13.272   8.619  73.938  1.00  0.00     0.000 HD 
HETATM   13  C   UNL     1     -11.715  10.437  70.004  1.00  0.00    -0.366 A  
HETATM   14  C   UNL     1     -11.573   9.099  70.395  1.00  0.00    -0.181 A  
BRANCH  13  15
HETATM   15  C   UNL     1     -11.099  10.948  68.750  1.00  0.00    -0.256 C  
HETATM   16  O   UNL     1      -9.899  10.991  68.545  1.00  0.00    -0.177 OA 
BRANCH  15  17
HETATM   17  O   UNL     1     -12.061  11.508  67.978  1.00  0.00    -0.617 OA 
BRANCH  17  18
HETATM   18  C   UNL     1     -11.567  12.232  66.839  1.00  0.00    -0.361 C  
BRANCH  18  19
HETATM   19  C   UNL     1     -11.855  13.726  67.096  1.00  0.00    -0.406 C  
BRANCH  19  20
HETATM   20  N   UNL     1     -10.697  14.599  67.356  1.00  0.00    -0.276 NA 
BRANCH  20  21
HETATM   21  C   UNL     1     -10.652  15.785  66.489  1.00  0.00    -0.306 C  
HETATM   22  C   UNL     1     -10.775  15.530  64.990  1.00  0.00    -0.463 C  
ENDBRANCH  20  21
BRANCH  20  23
HETATM   23  C   UNL     1     -10.634  14.903  68.798  1.00  0.00    -0.247 C  
HETATM   24  C   UNL     1     -11.953  14.715  69.539  1.00  0.00    -0.361 C  
ENDBRANCH  20  23
ENDBRANCH  19  20
ENDBRANCH  18  19
ENDBRANCH  17  18
ENDBRANCH  15  17
ENDBRANCH  13  15
ENDBRANCH   5   6
ENDBRANCH   4   5
ENDBRANCH   3   4
ENDBRANCH   2   3
TORSDOF 11
ENDMDL
MODEL       21
REMARK 921   NORMALIZED FREE ENERGY PREDICTED BY IDOCK:   -5.13 KCAL/MOL
REMARK 922        TOTAL FREE ENERGY PREDICTED BY IDOCK:   -9.44 KCAL/MOL
REMARK 923 INTER-LIGAND FREE ENERGY PREDICTED BY IDOCK:   -8.69 KCAL/MOL
REMARK 924 INTRA-LIGAND FREE ENERGY PREDICTED BY IDOCK:   -0.76 KCAL/MOL
REMARK 927      BINDING AFFINITY PREDICTED BY RF-SCORE:    0.00 PKD
ROOT
HETATM    1  C   UNL     1      -8.384  20.099  67.296  1.00  0.00    -0.394 C  
HETATM    2  C   UNL     1      -9.795  19.736  66.864  1.00  0.00    -0.520 C  
ENDROOT
BRANCH   2   3
HETATM    3  C   UNL     1     -10.358  18.599  67.715  1.00  0.00    -0.454 C  
BRANCH   3   4
HETATM    4  C   UNL     1      -9.730  17.262  67.345  1.00  0.00    -0.258 C  
BRANCH   4   5
HETATM    5  O   UNL     1     -10.168  16.908  66.028  1.00  0.00    -0.335 OA 
BRANCH   5   6
HETATM    6  C   UNL     1     -10.854  15.719  65.946  1.00  0.00    -0.268 A  
HETATM    7  C   UNL     1     -11.638  15.517  64.794  1.00  0.00    -0.256 A  
HETATM    8  C   UNL     1     -12.289  14.291  64.622  1.00  0.00    -0.433 A  
HETATM    9  N   UNL     1     -11.600  16.437  63.731  1.00  0.00    -1.515 NA 
HETATM   10  H1  UNL     1     -12.167  16.292  62.897  1.00  0.00     0.000 HD 
HETATM   11  C   UNL     1     -12.288  13.334  65.639  1.00  0.00    -0.521 A  
HETATM   12  H2  UNL     1     -10.629  16.548  63.440  1.00  0.00     0.000 HD 
HETATM   13  C   UNL     1     -11.599  13.585  66.828  1.00  0.00    -0.397 A  
HETATM   14  C   UNL     1     -10.865  14.769  66.968  1.00  0.00    -0.315 A  
BRANCH  13  15
HETATM   15  C   UNL     1     -11.784  12.647  67.969  1.00  0.00    -0.350 C  
HETATM   16  O   UNL     1     -11.705  12.971  69.141  1.00  0.00    -0.290 OA 
BRANCH  15  17
HETATM   17  O   UNL     1     -11.869  11.382  67.493  1.00  0.00    -0.614 OA 
BRANCH  17  18
HETATM   18  C   UNL     1     -10.888  10.475  68.027  1.00  0.00    -0.263 C  
BRANCH  18  19
HETATM   19  C   UNL     1      -9.946  10.097  66.865  1.00  0.00    -0.207 C  
BRANCH  19  20
HETATM   20  N   UNL     1     -10.020   8.712  66.364  1.00  0.00    -0.278 NA 
BRANCH  20  21
HETATM   21  C   UNL     1      -8.749   8.223  65.810  1.00  0.00    -0.166 C  
HETATM   22  C   UNL     1      -8.343   8.789  64.453  1.00  0.00    -0.165 C  
ENDBRANCH  20  21
BRANCH  20  23
HETATM   23  C   UNL     1     -10.593   7.849  67.414  1.00  0.00    -0.272 C  
HETATM   24  C   UNL     1     -10.976   6.452  66.940  1.00  0.00    -0.413 C  
ENDBRANCH  20  23
ENDBRANCH  19  20
ENDBRANCH  18  19
ENDBRANCH  17  18
ENDBRANCH  15  17
ENDBRANCH  13  15
ENDBRANCH   5   6
ENDBRANCH   4   5
ENDBRANCH   3   4
ENDBRANCH   2   3
TORSDOF 11
ENDMDL
MODEL       22
REMARK 921   NORMALIZED FREE ENERGY PREDICTED BY IDOCK:   -5.13 KCAL/MOL
REMARK 922        TOTAL FREE ENERGY PREDICTED BY IDOCK:   -9.44 KCAL/MOL
REMARK 923 INTER-LIGAND FREE ENERGY PREDICTED BY IDOCK:   -8.63 KCAL/MOL
REMARK 924 INTRA-LIGAND FREE ENERGY PREDICTED BY IDOCK:   -0.81 KCAL/MOL
REMARK 927      BINDING AFFINITY PREDICTED BY RF-SCORE:    0.00 PKD
ROOT
HETATM    1  C   UNL     1     -12.431   6.857  71.321  1.00  0.00    -0.409 C  
HETATM    2  C   UNL     1     -12.356   8.076  72.225  1.00  0.00    -0.336 C  
ENDROOT
BRANCH   2   3
HETATM    3  C   UNL     1     -13.505   9.043  71.946  1.00  0.00    -0.481 C  
BRANCH   3   4
HETATM    4  C   UNL     1     -13.006  10.475  71.801  1.00  0.00    -0.476 C  
BRANCH   4   5
HETATM    5  O   UNL     1     -11.970  10.493  70.812  1.00  0.00    -0.311 OA 
BRANCH   5   6
HETATM    6  C   UNL     1     -11.978  11.592  69.986  1.00  0.00    -0.351 A  
HETATM    7  C   UNL     1     -11.692  11.364  68.626  1.00  0.00    -0.329 A  
HETATM    8  C   UNL     1     -11.770  12.433  67.728  1.00  0.00    -0.413 A  
HETATM    9  N   UNL     1     -11.544  10.054  68.134  1.00  0.00    -0.636 NA 
HETATM   10  H1  UNL     1     -11.337   9.889  67.150  1.00  0.00     0.000 HD 
HETATM   11  C   UNL     1     -11.980  13.736  68.186  1.00  0.00    -0.394 A  
HETATM   12  H2  UNL     1     -12.382   9.526  68.377  1.00  0.00     0.000 HD 
HETATM   13  C   UNL     1     -12.153  13.973  69.552  1.00  0.00    -0.397 A  
HETATM   14  C   UNL     1     -12.173  12.894  70.445  1.00  0.00    -0.381 A  
BRANCH  13  15
HETATM   15  C   UNL     1     -12.167  15.380  70.033  1.00  0.00    -0.361 C  
HETATM   16  O   UNL     1     -12.634  15.734  71.101  1.00  0.00    -0.443 OA 
BRANCH  15  17
HETATM   17  O   UNL     1     -11.751  16.195  69.034  1.00  0.00    -0.345 OA 
BRANCH  17  18
HETATM   18  C   UNL     1     -10.453  16.779  69.241  1.00  0.00    -0.331 C  
BRANCH  18  19
HETATM   19  C   UNL     1     -10.367  18.019  68.326  1.00  0.00    -0.380 C  
BRANCH  19  20
HETATM   20  N   UNL     1      -9.682  17.853  67.032  1.00  0.00    -0.287 NA 
BRANCH  20  21
HETATM   21  C   UNL     1      -9.240  16.475  66.777  1.00  0.00    -0.234 C  
HETATM   22  C   UNL     1     -10.052  15.683  65.757  1.00  0.00    -0.394 C  
ENDBRANCH  20  21
BRANCH  20  23
HETATM   23  C   UNL     1     -10.521  18.426  65.964  1.00  0.00    -0.374 C  
HETATM   24  C   UNL     1     -10.524  19.949  65.913  1.00  0.00    -0.567 C  
ENDBRANCH  20  23
ENDBRANCH  19  20
ENDBRANCH  18  19
ENDBRANCH  17  18
ENDBRANCH  15  17
ENDBRANCH  13  15
ENDBRANCH   5   6
ENDBRANCH   4   5
ENDBRANCH   3   4
ENDBRANCH   2   3
TORSDOF 11
ENDMDL
MODEL       23
REMARK 921   NORMALIZED FREE ENERGY PREDICTED BY IDOCK:   -5.12 KCAL/MOL
REMARK 922        TOTAL FREE ENERGY PREDICTED BY IDOCK:   -9.43 KCAL/MOL
REMARK 923 INTER-LIGAND FREE ENERGY PREDICTED BY IDOCK:   -8.36 KCAL/MOL
REMARK 924 INTRA-LIGAND FREE ENERGY PREDICTED BY IDOCK:   -1.07 KCAL/MOL
REMARK 927      BINDING AFFINITY PREDICTED BY RF-SCORE:    0.00 PKD
ROOT
HETATM    1  C   UNL     1     -12.619  15.916  73.546  1.00  0.00    -0.695 C  
HETATM    2  C   UNL     1     -11.840  15.429  72.335  1.00  0.00    -0.558 C  
ENDROOT
BRANCH   2   3
HETATM    3  C   UNL     1     -12.644  14.407  71.535  1.00  0.00    -0.424 C  
BRANCH   3   4
HETATM    4  C   UNL     1     -12.080  14.228  70.132  1.00  0.00    -0.339 C  
BRANCH   4   5
HETATM    5  O   UNL     1     -11.857  15.525  69.567  1.00  0.00    -0.334 OA 
BRANCH   5   6
HETATM    6  C   UNL     1     -11.459  15.522  68.251  1.00  0.00    -0.353 A  
HETATM    7  C   UNL     1     -10.709  16.631  67.813  1.00  0.00    -0.327 A  
HETATM    8  C   UNL     1     -10.207  16.638  66.508  1.00  0.00    -0.314 A  
HETATM    9  N   UNL     1     -10.283  17.614  68.726  1.00  0.00    -0.370 NA 
HETATM   10  H1  UNL     1      -9.740  18.416  68.409  1.00  0.00     0.000 HD 
HETATM   11  C   UNL     1     -10.564  15.638  65.601  1.00  0.00    -0.393 A  
HETATM   12  H2  UNL     1      -9.764  17.152  69.472  1.00  0.00     0.000 HD 
HETATM   13  C   UNL     1     -11.400  14.597  66.009  1.00  0.00    -0.344 A  
HETATM   14  C   UNL     1     -11.827  14.531  67.341  1.00  0.00    -0.416 A  
BRANCH  13  15
HETATM   15  C   UNL     1     -11.931  13.665  64.978  1.00  0.00    -0.378 C  
HETATM   16  O   UNL     1     -13.080  13.261  64.945  1.00  0.00    -0.737 OA 
BRANCH  15  17
HETATM   17  O   UNL     1     -10.904  13.215  64.216  1.00  0.00    -0.374 OA 
BRANCH  17  18
HETATM   18  C   UNL     1     -10.955  11.810  63.913  1.00  0.00    -0.407 C  
BRANCH  18  19
HETATM   19  C   UNL     1      -9.808  11.139  64.698  1.00  0.00    -0.280 C  
BRANCH  19  20
HETATM   20  N   UNL     1     -10.186  10.194  65.764  1.00  0.00    -0.246 NA 
BRANCH  20  21
HETATM   21  C   UNL     1      -9.399   8.953  65.750  1.00  0.00    -0.219 C  
HETATM   22  C   UNL     1      -9.801   7.888  66.765  1.00  0.00    -0.318 C  
ENDBRANCH  20  21
BRANCH  20  23
HETATM   23  C   UNL     1     -10.179  10.900  67.059  1.00  0.00    -0.214 C  
HETATM   24  C   UNL     1     -11.524  10.913  67.776  1.00  0.00    -0.323 C  
ENDBRANCH  20  23
ENDBRANCH  19  20
ENDBRANCH  18  19
ENDBRANCH  17  18
ENDBRANCH  15  17
ENDBRANCH  13  15
ENDBRANCH   5   6
ENDBRANCH   4   5
ENDBRANCH   3   4
ENDBRANCH   2   3
TORSDOF 11
ENDMDL
MODEL       24
REMARK 921   NORMALIZED FREE ENERGY PREDICTED BY IDOCK:   -5.11 KCAL/MOL
REMARK 922        TOTAL FREE ENERGY PREDICTED BY IDOCK:   -9.41 KCAL/MOL
REMARK 923 INTER-LIGAND FREE ENERGY PREDICTED BY IDOCK:   -8.25 KCAL/MOL
REMARK 924 INTRA-LIGAND FREE ENERGY PREDICTED BY IDOCK:   -1.16 KCAL/MOL
REMARK 927      BINDING AFFINITY PREDICTED BY RF-SCORE:    0.00 PKD
ROOT
HETATM    1  C   UNL     1     -11.649  12.562  64.733  1.00  0.00    -0.387 C  
HETATM    2  C   UNL     1     -11.751  12.269  66.221  1.00  0.00    -0.431 C  
ENDROOT
BRANCH   2   3
HETATM    3  C   UNL     1     -10.718  11.230  66.652  1.00  0.00    -0.321 C  
BRANCH   3   4
HETATM    4  C   UNL     1     -10.359  11.377  68.125  1.00  0.00    -0.188 C  
BRANCH   4   5
HETATM    5  O   UNL     1     -11.340  10.677  68.899  1.00  0.00    -0.249 OA 
BRANCH   5   6
HETATM    6  C   UNL     1     -11.935  11.422  69.890  1.00  0.00    -0.359 A  
HETATM    7  C   UNL     1     -12.641  10.712  70.879  1.00  0.00    -0.407 A  
HETATM    8  C   UNL     1     -13.194  11.415  71.955  1.00  0.00    -0.485 A  
HETATM    9  N   UNL     1     -12.611   9.306  70.912  1.00  0.00    -0.498 NA 
HETATM   10  H1  UNL     1     -13.122   8.792  71.629  1.00  0.00     0.000 HD 
HETATM   11  C   UNL     1     -13.180  12.812  71.977  1.00  0.00    -0.538 A  
HETATM   12  H2  UNL     1     -11.636   9.008  70.940  1.00  0.00     0.000 HD 
HETATM   13  C   UNL     1     -12.575  13.517  70.934  1.00  0.00    -0.414 A  
HETATM   14  C   UNL     1     -11.934  12.817  69.904  1.00  0.00    -0.368 A  
BRANCH  13  15
HETATM   15  C   UNL     1     -12.754  14.992  70.875  1.00  0.00    -0.375 C  
HETATM   16  O   UNL     1     -13.497  15.622  71.607  1.00  0.00    -0.490 OA 
BRANCH  15  17
HETATM   17  O   UNL     1     -12.109  15.475  69.786  1.00  0.00    -0.351 OA 
BRANCH  17  18
HETATM   18  C   UNL     1     -11.054  16.407  70.078  1.00  0.00    -0.294 C  
BRANCH  18  19
HETATM   19  C   UNL     1      -9.854  16.021  69.188  1.00  0.00    -0.247 C  
BRANCH  19  20
HETATM   20  N   UNL     1      -9.609  16.851  67.995  1.00  0.00    -0.242 NA 
BRANCH  20  21
HETATM   21  C   UNL     1     -10.337  16.390  66.804  1.00  0.00    -0.293 C  
HETATM   22  C   UNL     1      -9.586  15.437  65.879  1.00  0.00    -0.386 C  
ENDBRANCH  20  21
BRANCH  20  23
HETATM   23  C   UNL     1      -9.841  18.267  68.334  1.00  0.00    -0.369 C  
HETATM   24  C   UNL     1     -10.735  19.012  67.350  1.00  0.00    -0.559 C  
ENDBRANCH  20  23
ENDBRANCH  19  20
ENDBRANCH  18  19
ENDBRANCH  17  18
ENDBRANCH  15  17
ENDBRANCH  13  15
ENDBRANCH   5   6
ENDBRANCH   4   5
ENDBRANCH   3   4
ENDBRANCH   2   3
TORSDOF 11
ENDMDL
MODEL       25
REMARK 921   NORMALIZED FREE ENERGY PREDICTED BY IDOCK:   -5.11 KCAL/MOL
REMARK 922        TOTAL FREE ENERGY PREDICTED BY IDOCK:   -9.40 KCAL/MOL
REMARK 923 INTER-LIGAND FREE ENERGY PREDICTED BY IDOCK:   -8.03 KCAL/MOL
REMARK 924 INTRA-LIGAND FREE ENERGY PREDICTED BY IDOCK:   -1.37 KCAL/MOL
REMARK 927      BINDING AFFINITY PREDICTED BY RF-SCORE:    0.00 PKD
ROOT
HETATM    1  C   UNL     1     -10.573  11.717  63.612  1.00  0.00    -0.496 C  
HETATM    2  C   UNL     1     -11.693  12.739  63.505  1.00  0.00    -0.597 C  
ENDROOT
BRANCH   2   3
HETATM    3  C   UNL     1     -12.661  12.621  64.680  1.00  0.00    -0.458 C  
BRANCH   3   4
HETATM    4  C   UNL     1     -11.931  12.703  66.015  1.00  0.00    -0.417 C  
BRANCH   4   5
HETATM    5  O   UNL     1     -12.308  13.925  66.660  1.00  0.00    -0.435 OA 
BRANCH   5   6
HETATM    6  C   UNL     1     -11.275  14.604  67.263  1.00  0.00    -0.337 A  
HETATM    7  C   UNL     1     -11.490  15.041  68.584  1.00  0.00    -0.311 A  
HETATM    8  C   UNL     1     -10.442  15.661  69.272  1.00  0.00    -0.247 A  
HETATM    9  N   UNL     1     -12.655  14.674  69.280  1.00  0.00    -0.556 NA 
HETATM   10  H1  UNL     1     -12.811  14.990  70.237  1.00  0.00     0.000 HD 
HETATM   11  C   UNL     1      -9.249  15.980  68.619  1.00  0.00    -0.216 A  
HETATM   12  H2  UNL     1     -12.728  13.656  69.265  1.00  0.00     0.000 HD 
HETATM   13  C   UNL     1      -9.082  15.642  67.273  1.00  0.00    -0.217 A  
HETATM   14  C   UNL     1     -10.090  14.934  66.606  1.00  0.00    -0.264 A  
BRANCH  13  15
HETATM   15  C   UNL     1      -7.896  16.173  66.549  1.00  0.00    -0.228 C  
HETATM   16  O   UNL     1      -6.758  15.771  66.713  1.00  0.00    -0.227 OA 
BRANCH  15  17
HETATM   17  O   UNL     1      -8.263  17.265  65.836  1.00  0.00    -0.534 OA 
BRANCH  17  18
HETATM   18  C   UNL     1      -7.382  18.393  65.975  1.00  0.00    -0.238 C  
BRANCH  18  19
HETATM   19  C   UNL     1      -8.261  19.608  66.336  1.00  0.00    -0.337 C  
BRANCH  19  20
HETATM   20  N   UNL     1      -8.453  19.896  67.769  1.00  0.00    -0.312 NA 
BRANCH  20  21
HETATM   21  C   UNL     1      -9.809  19.595  68.249  1.00  0.00    -0.419 C  
HETATM   22  C   UNL     1     -10.808  19.119  67.199  1.00  0.00    -0.507 C  
ENDBRANCH  20  21
BRANCH  20  23
HETATM   23  C   UNL     1      -7.380  19.243  68.541  1.00  0.00    -0.320 C  
HETATM   24  C   UNL     1      -6.325  20.199  69.087  1.00  0.00    -0.358 C  
ENDBRANCH  20  23
ENDBRANCH  19  20
ENDBRANCH  18  19
ENDBRANCH  17  18
ENDBRANCH  15  17
ENDBRANCH  13  15
ENDBRANCH   5   6
ENDBRANCH   4   5
ENDBRANCH   3   4
ENDBRANCH   2   3
TORSDOF 11
ENDMDL
MODEL       26
REMARK 921   NORMALIZED FREE ENERGY PREDICTED BY IDOCK:   -5.10 KCAL/MOL
REMARK 922        TOTAL FREE ENERGY PREDICTED BY IDOCK:   -9.38 KCAL/MOL
REMARK 923 INTER-LIGAND FREE ENERGY PREDICTED BY IDOCK:   -8.63 KCAL/MOL
REMARK 924 INTRA-LIGAND FREE ENERGY PREDICTED BY IDOCK:   -0.75 KCAL/MOL
REMARK 927      BINDING AFFINITY PREDICTED BY RF-SCORE:    0.00 PKD
ROOT
HETATM    1  C   UNL     1     -11.161   7.728  72.788  1.00  0.00    -0.456 C  
HETATM    2  C   UNL     1     -12.108   8.142  71.673  1.00  0.00    -0.342 C  
ENDROOT
BRANCH   2   3
HETATM    3  C   UNL     1     -13.249   9.005  72.209  1.00  0.00    -0.519 C  
BRANCH   3   4
HETATM    4  C   UNL     1     -13.105  10.456  71.767  1.00  0.00    -0.462 C  
BRANCH   4   5
HETATM    5  O   UNL     1     -11.932  10.565  70.952  1.00  0.00    -0.329 OA 
BRANCH   5   6
HETATM    6  C   UNL     1     -11.946  11.607  70.056  1.00  0.00    -0.351 A  
HETATM    7  C   UNL     1     -11.669  11.291  68.712  1.00  0.00    -0.338 A  
HETATM    8  C   UNL     1     -11.753  12.300  67.746  1.00  0.00    -0.403 A  
HETATM    9  N   UNL     1     -11.524   9.952  68.306  1.00  0.00    -0.557 NA 
HETATM   10  H1  UNL     1     -11.323   9.723  67.333  1.00  0.00     0.000 HD 
HETATM   11  C   UNL     1     -11.960  13.629  68.120  1.00  0.00    -0.390 A  
HETATM   12  H2  UNL     1     -12.360   9.441  68.588  1.00  0.00     0.000 HD 
HETATM   13  C   UNL     1     -12.124  13.955  69.468  1.00  0.00    -0.393 A  
HETATM   14  C   UNL     1     -12.138  12.937  70.431  1.00  0.00    -0.385 A  
BRANCH  13  15
HETATM   15  C   UNL     1     -12.134  15.390  69.857  1.00  0.00    -0.355 C  
HETATM   16  O   UNL     1     -12.468  15.800  70.955  1.00  0.00    -0.431 OA 
BRANCH  15  17
HETATM   17  O   UNL     1     -11.894  16.149  68.761  1.00  0.00    -0.339 OA 
BRANCH  17  18
HETATM   18  C   UNL     1     -10.688  16.930  68.826  1.00  0.00    -0.333 C  
BRANCH  18  19
HETATM   19  C   UNL     1     -10.318  17.308  67.377  1.00  0.00    -0.338 C  
BRANCH  19  20
HETATM   20  N   UNL     1      -9.002  17.935  67.161  1.00  0.00    -0.246 NA 
BRANCH  20  21
HETATM   21  C   UNL     1      -9.081  19.249  66.506  1.00  0.00    -0.350 C  
HETATM   22  C   UNL     1     -10.464  19.686  66.036  1.00  0.00    -0.622 C  
ENDBRANCH  20  21
BRANCH  20  23
HETATM   23  C   UNL     1      -8.254  17.938  68.432  1.00  0.00    -0.300 C  
HETATM   24  C   UNL     1      -7.608  19.274  68.780  1.00  0.00    -0.393 C  
ENDBRANCH  20  23
ENDBRANCH  19  20
ENDBRANCH  18  19
ENDBRANCH  17  18
ENDBRANCH  15  17
ENDBRANCH  13  15
ENDBRANCH   5   6
ENDBRANCH   4   5
ENDBRANCH   3   4
ENDBRANCH   2   3
TORSDOF 11
ENDMDL
MODEL       27
REMARK 921   NORMALIZED FREE ENERGY PREDICTED BY IDOCK:   -5.09 KCAL/MOL
REMARK 922        TOTAL FREE ENERGY PREDICTED BY IDOCK:   -9.37 KCAL/MOL
REMARK 923 INTER-LIGAND FREE ENERGY PREDICTED BY IDOCK:   -8.26 KCAL/MOL
REMARK 924 INTRA-LIGAND FREE ENERGY PREDICTED BY IDOCK:   -1.11 KCAL/MOL
REMARK 927      BINDING AFFINITY PREDICTED BY RF-SCORE:    0.00 PKD
ROOT
HETATM    1  C   UNL     1     -13.825  15.467  72.330  1.00  0.00    -0.661 C  
HETATM    2  C   UNL     1     -13.132  15.372  70.981  1.00  0.00    -0.565 C  
ENDROOT
BRANCH   2   3
HETATM    3  C   UNL     1     -12.667  13.945  70.698  1.00  0.00    -0.351 C  
BRANCH   3   4
HETATM    4  C   UNL     1     -11.609  13.910  69.603  1.00  0.00    -0.286 C  
BRANCH   4   5
HETATM    5  O   UNL     1     -12.274  13.891  68.335  1.00  0.00    -0.339 OA 
BRANCH   5   6
HETATM    6  C   UNL     1     -11.590  14.509  67.314  1.00  0.00    -0.385 A  
HETATM    7  C   UNL     1     -12.117  14.358  66.017  1.00  0.00    -0.357 A  
HETATM    8  C   UNL     1     -11.509  15.036  64.955  1.00  0.00    -0.399 A  
HETATM    9  N   UNL     1     -13.355  13.721  65.815  1.00  0.00    -0.484 NA 
HETATM   10  H1  UNL     1     -13.736  13.612  64.876  1.00  0.00     0.000 HD 
HETATM   11  C   UNL     1     -10.312  15.730  65.143  1.00  0.00    -0.331 A  
HETATM   12  H2  UNL     1     -14.053  14.191  66.391  1.00  0.00     0.000 HD 
HETATM   13  C   UNL     1      -9.732  15.783  66.413  1.00  0.00    -0.305 A  
HETATM   14  C   UNL     1     -10.387  15.190  67.500  1.00  0.00    -0.242 A  
BRANCH  13  15
HETATM   15  C   UNL     1      -8.362  16.347  66.547  1.00  0.00    -0.302 C  
HETATM   16  O   UNL     1      -7.515  15.915  67.308  1.00  0.00    -0.169 OA 
BRANCH  15  17
HETATM   17  O   UNL     1      -8.284  17.497  65.835  1.00  0.00    -0.538 OA 
BRANCH  17  18
HETATM   18  C   UNL     1      -7.183  18.349  66.194  1.00  0.00    -0.263 C  
BRANCH  18  19
HETATM   19  C   UNL     1      -7.785  19.694  66.650  1.00  0.00    -0.276 C  
BRANCH  19  20
HETATM   20  N   UNL     1      -8.152  19.819  68.072  1.00  0.00    -0.307 NA 
BRANCH  20  21
HETATM   21  C   UNL     1      -9.521  19.372  68.364  1.00  0.00    -0.374 C  
HETATM   22  C   UNL     1     -10.542  19.548  67.244  1.00  0.00    -0.610 C  
ENDBRANCH  20  21
BRANCH  20  23
HETATM   23  C   UNL     1      -7.116  19.169  68.897  1.00  0.00    -0.337 C  
HETATM   24  C   UNL     1      -6.070  20.122  69.462  1.00  0.00    -0.375 C  
ENDBRANCH  20  23
ENDBRANCH  19  20
ENDBRANCH  18  19
ENDBRANCH  17  18
ENDBRANCH  15  17
ENDBRANCH  13  15
ENDBRANCH   5   6
ENDBRANCH   4   5
ENDBRANCH   3   4
ENDBRANCH   2   3
TORSDOF 11
ENDMDL
MODEL       28
REMARK 921   NORMALIZED FREE ENERGY PREDICTED BY IDOCK:   -5.08 KCAL/MOL
REMARK 922        TOTAL FREE ENERGY PREDICTED BY IDOCK:   -9.35 KCAL/MOL
REMARK 923 INTER-LIGAND FREE ENERGY PREDICTED BY IDOCK:   -8.46 KCAL/MOL
REMARK 924 INTRA-LIGAND FREE ENERGY PREDICTED BY IDOCK:   -0.89 KCAL/MOL
REMARK 927      BINDING AFFINITY PREDICTED BY RF-SCORE:    0.00 PKD
ROOT
HETATM    1  C   UNL     1     -11.329   6.302  69.690  1.00  0.00    -0.492 C  
HETATM    2  C   UNL     1     -11.826   7.155  70.845  1.00  0.00    -0.379 C  
ENDROOT
BRANCH   2   3
HETATM    3  C   UNL     1     -10.724   8.073  71.368  1.00  0.00    -0.270 C  
BRANCH   3   4
HETATM    4  C   UNL     1     -10.621   9.348  70.541  1.00  0.00    -0.271 C  
BRANCH   4   5
HETATM    5  O   UNL     1     -11.947   9.790  70.228  1.00  0.00    -0.204 OA 
BRANCH   5   6
HETATM    6  C   UNL     1     -12.184  11.124  70.467  1.00  0.00    -0.384 A  
HETATM    7  C   UNL     1     -13.005  11.433  71.569  1.00  0.00    -0.399 A  
HETATM    8  C   UNL     1     -13.209  12.775  71.907  1.00  0.00    -0.511 A  
HETATM    9  N   UNL     1     -13.438  10.423  72.446  1.00  0.00    -0.548 NA 
HETATM   10  H1  UNL     1     -14.032  10.647  73.244  1.00  0.00     0.000 HD 
HETATM   11  C   UNL     1     -12.733  13.799  71.084  1.00  0.00    -0.438 A  
HETATM   12  H2  UNL     1     -12.616   9.926  72.791  1.00  0.00     0.000 HD 
HETATM   13  C   UNL     1     -12.012  13.484  69.930  1.00  0.00    -0.416 A  
HETATM   14  C   UNL     1     -11.721  12.145  69.637  1.00  0.00    -0.396 A  
BRANCH  13  15
HETATM   15  C   UNL     1     -11.698  14.574  68.968  1.00  0.00    -0.311 C  
HETATM   16  O   UNL     1     -12.024  15.738  69.121  1.00  0.00    -0.387 OA 
BRANCH  15  17
HETATM   17  O   UNL     1     -11.168  14.035  67.844  1.00  0.00    -0.255 OA 
BRANCH  17  18
HETATM   18  C   UNL     1     -11.971  14.203  66.663  1.00  0.00    -0.444 C  
BRANCH  18  19
HETATM   19  C   UNL     1     -12.017  12.835  65.951  1.00  0.00    -0.449 C  
BRANCH  19  20
HETATM   20  N   UNL     1     -10.773  12.366  65.314  1.00  0.00    -0.278 NA 
BRANCH  20  21
HETATM   21  C   UNL     1      -9.981  11.470  66.168  1.00  0.00    -0.224 C  
HETATM   22  C   UNL     1      -9.977   9.995  65.780  1.00  0.00    -0.346 C  
ENDBRANCH  20  21
BRANCH  20  23
HETATM   23  C   UNL     1     -11.090  11.811  63.986  1.00  0.00    -0.390 C  
HETATM   24  C   UNL     1     -12.487  12.149  63.478  1.00  0.00    -0.666 C  
ENDBRANCH  20  23
ENDBRANCH  19  20
ENDBRANCH  18  19
ENDBRANCH  17  18
ENDBRANCH  15  17
ENDBRANCH  13  15
ENDBRANCH   5   6
ENDBRANCH   4   5
ENDBRANCH   3   4
ENDBRANCH   2   3
TORSDOF 11
ENDMDL
MODEL       29
REMARK 921   NORMALIZED FREE ENERGY PREDICTED BY IDOCK:   -5.07 KCAL/MOL
REMARK 922        TOTAL FREE ENERGY PREDICTED BY IDOCK:   -9.34 KCAL/MOL
REMARK 923 INTER-LIGAND FREE ENERGY PREDICTED BY IDOCK:   -8.36 KCAL/MOL
REMARK 924 INTRA-LIGAND FREE ENERGY PREDICTED BY IDOCK:   -0.99 KCAL/MOL
REMARK 927      BINDING AFFINITY PREDICTED BY RF-SCORE:    0.00 PKD
ROOT
HETATM    1  C   UNL     1     -10.127   8.066  67.175  1.00  0.00    -0.334 C  
HETATM    2  C   UNL     1     -10.910   6.772  67.330  1.00  0.00    -0.443 C  
ENDROOT
BRANCH   2   3
HETATM    3  C   UNL     1     -10.805   6.231  68.754  1.00  0.00    -0.398 C  
BRANCH   3   4
HETATM    4  C   UNL     1      -9.856   7.068  69.601  1.00  0.00    -0.164 C  
BRANCH   4   5
HETATM    5  O   UNL     1     -10.443   7.243  70.896  1.00  0.00    -0.212 OA 
BRANCH   5   6
HETATM    6  C   UNL     1     -11.326   8.293  70.994  1.00  0.00    -0.269 A  
HETATM    7  C   UNL     1     -12.530   8.045  71.681  1.00  0.00    -0.320 A  
HETATM    8  C   UNL     1     -13.426   9.100  71.882  1.00  0.00    -0.492 A  
HETATM    9  N   UNL     1     -12.738   6.822  72.344  1.00  0.00    -0.509 NA 
HETATM   10  H1  UNL     1     -13.610   6.643  72.842  1.00  0.00     0.000 HD 
HETATM   11  C   UNL     1     -13.208  10.344  71.286  1.00  0.00    -0.431 A  
HETATM   12  H2  UNL     1     -11.965   6.675  72.992  1.00  0.00     0.000 HD 
HETATM   13  C   UNL     1     -12.065  10.553  70.511  1.00  0.00    -0.437 A  
HETATM   14  C   UNL     1     -11.115   9.530  70.386  1.00  0.00    -0.330 A  
BRANCH  13  15
HETATM   15  C   UNL     1     -11.960  11.809  69.722  1.00  0.00    -0.322 C  
HETATM   16  O   UNL     1     -11.923  12.924  70.212  1.00  0.00    -0.341 OA 
BRANCH  15  17
HETATM   17  O   UNL     1     -12.092  11.519  68.405  1.00  0.00    -0.556 OA 
BRANCH  17  18
HETATM   18  C   UNL     1     -11.164  12.203  67.546  1.00  0.00    -0.297 C  
BRANCH  18  19
HETATM   19  C   UNL     1     -11.995  13.115  66.621  1.00  0.00    -0.389 C  
BRANCH  19  20
HETATM   20  N   UNL     1     -11.302  13.710  65.464  1.00  0.00    -0.296 NA 
BRANCH  20  21
HETATM   21  C   UNL     1     -12.022  13.529  64.195  1.00  0.00    -0.448 C  
HETATM   22  C   UNL     1     -12.046  12.114  63.628  1.00  0.00    -0.648 C  
ENDBRANCH  20  21
BRANCH  20  23
HETATM   23  C   UNL     1     -10.964  15.112  65.772  1.00  0.00    -0.349 C  
HETATM   24  C   UNL     1      -9.469  15.400  65.836  1.00  0.00    -0.369 C  
ENDBRANCH  20  23
ENDBRANCH  19  20
ENDBRANCH  18  19
ENDBRANCH  17  18
ENDBRANCH  15  17
ENDBRANCH  13  15
ENDBRANCH   5   6
ENDBRANCH   4   5
ENDBRANCH   3   4
ENDBRANCH   2   3
TORSDOF 11
ENDMDL
MODEL       30
REMARK 921   NORMALIZED FREE ENERGY PREDICTED BY IDOCK:   -5.07 KCAL/MOL
REMARK 922        TOTAL FREE ENERGY PREDICTED BY IDOCK:   -9.34 KCAL/MOL
REMARK 923 INTER-LIGAND FREE ENERGY PREDICTED BY IDOCK:   -8.54 KCAL/MOL
REMARK 924 INTRA-LIGAND FREE ENERGY PREDICTED BY IDOCK:   -0.80 KCAL/MOL
REMARK 927      BINDING AFFINITY PREDICTED BY RF-SCORE:    0.00 PKD
ROOT
HETATM    1  C   UNL     1     -10.382  19.947  67.376  1.00  0.00    -0.565 C  
HETATM    2  C   UNL     1     -10.147  18.857  68.409  1.00  0.00    -0.449 C  
ENDROOT
BRANCH   2   3
HETATM    3  C   UNL     1      -9.404  17.670  67.800  1.00  0.00    -0.255 C  
BRANCH   3   4
HETATM    4  C   UNL     1     -10.325  16.472  67.610  1.00  0.00    -0.291 C  
BRANCH   4   5
HETATM    5  O   UNL     1     -10.488  16.247  66.205  1.00  0.00    -0.312 OA 
BRANCH   5   6
HETATM    6  C   UNL     1     -10.979  15.006  65.871  1.00  0.00    -0.343 A  
HETATM    7  C   UNL     1     -11.740  14.923  64.689  1.00  0.00    -0.404 A  
HETATM    8  C   UNL     1     -12.191  13.671  64.259  1.00  0.00    -0.445 A  
HETATM    9  N   UNL     1     -11.865  16.036  63.838  1.00  0.00    -1.338 NA 
HETATM   10  H1  UNL     1     -12.416  15.976  62.982  1.00  0.00     0.000 HD 
HETATM   11  C   UNL     1     -12.022  12.539  65.059  1.00  0.00    -0.478 A  
HETATM   12  H2  UNL     1     -10.929  16.356  63.592  1.00  0.00     0.000 HD 
HETATM   13  C   UNL     1     -11.362  12.646  66.286  1.00  0.00    -0.376 A  
HETATM   14  C   UNL     1     -10.822  13.878  66.677  1.00  0.00    -0.289 A  
BRANCH  13  15
HETATM   15  C   UNL     1     -11.378  11.479  67.207  1.00  0.00    -0.290 C  
HETATM   16  O   UNL     1     -12.244  11.273  68.038  1.00  0.00    -0.621 OA 
BRANCH  15  17
HETATM   17  O   UNL     1     -10.207  10.806  67.091  1.00  0.00    -0.196 OA 
BRANCH  17  18
HETATM   18  C   UNL     1      -9.454  10.701  68.311  1.00  0.00    -0.159 C  
BRANCH  18  19
HETATM   19  C   UNL     1      -9.413   9.205  68.686  1.00  0.00    -0.143 C  
BRANCH  19  20
HETATM   20  N   UNL     1     -10.557   8.671  69.448  1.00  0.00    -0.218 NA 
BRANCH  20  21
HETATM   21  C   UNL     1     -10.500   7.215  69.643  1.00  0.00    -0.229 C  
HETATM   22  C   UNL     1     -11.021   6.359  68.493  1.00  0.00    -0.396 C  
ENDBRANCH  20  21
BRANCH  20  23
HETATM   23  C   UNL     1     -10.709   9.442  70.696  1.00  0.00    -0.290 C  
HETATM   24  C   UNL     1     -12.150   9.613  71.159  1.00  0.00    -0.448 C  
ENDBRANCH  20  23
ENDBRANCH  19  20
ENDBRANCH  18  19
ENDBRANCH  17  18
ENDBRANCH  15  17
ENDBRANCH  13  15
ENDBRANCH   5   6
ENDBRANCH   4   5
ENDBRANCH   3   4
ENDBRANCH   2   3
TORSDOF 11
ENDMDL
MODEL       31
REMARK 921   NORMALIZED FREE ENERGY PREDICTED BY IDOCK:   -5.07 KCAL/MOL
REMARK 922        TOTAL FREE ENERGY PREDICTED BY IDOCK:   -9.34 KCAL/MOL
REMARK 923 INTER-LIGAND FREE ENERGY PREDICTED BY IDOCK:   -8.42 KCAL/MOL
REMARK 924 INTRA-LIGAND FREE ENERGY PREDICTED BY IDOCK:   -0.92 KCAL/MOL
REMARK 927      BINDING AFFINITY PREDICTED BY RF-SCORE:    0.00 PKD
ROOT
HETATM    1  C   UNL     1     -14.368  15.269  72.168  1.00  0.00    -0.651 C  
HETATM    2  C   UNL     1     -13.008  15.241  72.846  1.00  0.00    -0.564 C  
ENDROOT
BRANCH   2   3
HETATM    3  C   UNL     1     -11.991  16.083  72.080  1.00  0.00    -0.629 C  
BRANCH   3   4
HETATM    4  C   UNL     1     -11.595  15.422  70.766  1.00  0.00    -0.347 C  
BRANCH   4   5
HETATM    5  O   UNL     1     -11.235  16.449  69.836  1.00  0.00    -0.332 OA 
BRANCH   5   6
HETATM    6  C   UNL     1     -11.127  16.034  68.529  1.00  0.00    -0.347 A  
HETATM    7  C   UNL     1     -10.565  16.949  67.618  1.00  0.00    -0.325 A  
HETATM    8  C   UNL     1     -10.355  16.546  66.295  1.00  0.00    -0.327 A  
HETATM    9  N   UNL     1     -10.022  18.166  68.067  1.00  0.00    -0.326 NA 
HETATM   10  H1  UNL     1      -9.615  18.829  67.408  1.00  0.00     0.000 HD 
HETATM   11  C   UNL     1     -10.828  15.314  65.840  1.00  0.00    -0.345 A  
HETATM   12  H2  UNL     1      -9.326  17.960  68.783  1.00  0.00     0.000 HD 
HETATM   13  C   UNL     1     -11.486  14.453  66.723  1.00  0.00    -0.381 A  
HETATM   14  C   UNL     1     -11.612  14.809  68.072  1.00  0.00    -0.367 A  
BRANCH  13  15
HETATM   15  C   UNL     1     -12.159  13.247  66.172  1.00  0.00    -0.421 C  
HETATM   16  O   UNL     1     -12.271  12.192  66.770  1.00  0.00    -0.553 OA 
BRANCH  15  17
HETATM   17  O   UNL     1     -12.452  13.460  64.867  1.00  0.00    -0.471 OA 
BRANCH  17  18
HETATM   18  C   UNL     1     -12.154  12.353  63.999  1.00  0.00    -0.475 C  
BRANCH  18  19
HETATM   19  C   UNL     1     -10.708  12.552  63.497  1.00  0.00    -0.376 C  
BRANCH  19  20
HETATM   20  N   UNL     1      -9.775  11.425  63.671  1.00  0.00    -0.295 NA 
BRANCH  20  21
HETATM   21  C   UNL     1     -10.186  10.483  64.722  1.00  0.00    -0.303 C  
HETATM   22  C   UNL     1      -9.341  10.477  65.992  1.00  0.00    -0.215 C  
ENDBRANCH  20  21
BRANCH  20  23
HETATM   23  C   UNL     1      -9.526  10.796  62.360  1.00  0.00    -0.189 C  
HETATM   24  C   UNL     1      -8.473   9.695  62.379  1.00  0.00    -0.182 C  
ENDBRANCH  20  23
ENDBRANCH  19  20
ENDBRANCH  18  19
ENDBRANCH  17  18
ENDBRANCH  15  17
ENDBRANCH  13  15
ENDBRANCH   5   6
ENDBRANCH   4   5
ENDBRANCH   3   4
ENDBRANCH   2   3
TORSDOF 11
ENDMDL
MODEL       32
REMARK 921   NORMALIZED FREE ENERGY PREDICTED BY IDOCK:   -5.06 KCAL/MOL
REMARK 922        TOTAL FREE ENERGY PREDICTED BY IDOCK:   -9.32 KCAL/MOL
REMARK 923 INTER-LIGAND FREE ENERGY PREDICTED BY IDOCK:   -8.45 KCAL/MOL
REMARK 924 INTRA-LIGAND FREE ENERGY PREDICTED BY IDOCK:   -0.87 KCAL/MOL
REMARK 927      BINDING AFFINITY PREDICTED BY RF-SCORE:    0.00 PKD
ROOT
HETATM    1  C   UNL     1     -13.103   9.892  71.623  1.00  0.00    -0.538 C  
HETATM    2  C   UNL     1     -12.691  11.237  71.049  1.00  0.00    -0.457 C  
ENDROOT
BRANCH   2   3
HETATM    3  C   UNL     1     -11.623  11.074  69.970  1.00  0.00    -0.427 C  
BRANCH   3   4
HETATM    4  C   UNL     1     -11.694  12.195  68.940  1.00  0.00    -0.327 C  
BRANCH   4   5
HETATM    5  O   UNL     1     -12.154  11.641  67.702  1.00  0.00    -0.615 OA 
BRANCH   5   6
HETATM    6  C   UNL     1     -11.622  12.223  66.575  1.00  0.00    -0.377 A  
HETATM    7  C   UNL     1     -10.568  11.534  65.944  1.00  0.00    -0.268 A  
HETATM    8  C   UNL     1     -10.048  12.039  64.748  1.00  0.00    -0.286 A  
HETATM    9  N   UNL     1     -10.186  10.253  66.380  1.00  0.00    -0.233 NA 
HETATM   10  H1  UNL     1      -9.423   9.754  65.923  1.00  0.00     0.000 HD 
HETATM   11  C   UNL     1     -10.459  13.282  64.260  1.00  0.00    -0.372 A  
HETATM   12  H2  UNL     1     -11.010   9.653  66.369  1.00  0.00     0.000 HD 
HETATM   13  C   UNL     1     -11.427  14.014  64.951  1.00  0.00    -0.358 A  
HETATM   14  C   UNL     1     -12.022  13.470  66.096  1.00  0.00    -0.454 A  
BRANCH  13  15
HETATM   15  C   UNL     1     -11.694  15.415  64.529  1.00  0.00    -0.277 C  
HETATM   16  O   UNL     1     -12.699  15.774  63.941  1.00  0.00    -0.672 OA 
BRANCH  15  17
HETATM   17  O   UNL     1     -10.584  16.162  64.741  1.00  0.00    -0.630 OA 
BRANCH  17  18
HETATM   18  C   UNL     1     -10.785  17.303  65.594  1.00  0.00    -0.120 C  
BRANCH  18  19
HETATM   19  C   UNL     1      -9.583  17.358  66.560  1.00  0.00    -0.280 C  
BRANCH  19  20
HETATM   20  N   UNL     1      -9.882  17.481  67.998  1.00  0.00    -0.285 NA 
BRANCH  20  21
HETATM   21  C   UNL     1     -10.082  18.870  68.437  1.00  0.00    -0.392 C  
HETATM   22  C   UNL     1      -9.346  19.942  67.640  1.00  0.00    -0.464 C  
ENDBRANCH  20  21
BRANCH  20  23
HETATM   23  C   UNL     1     -10.993  16.574  68.340  1.00  0.00    -0.348 C  
HETATM   24  C   UNL     1     -10.706  15.638  69.509  1.00  0.00    -0.271 C  
ENDBRANCH  20  23
ENDBRANCH  19  20
ENDBRANCH  18  19
ENDBRANCH  17  18
ENDBRANCH  15  17
ENDBRANCH  13  15
ENDBRANCH   5   6
ENDBRANCH   4   5
ENDBRANCH   3   4
ENDBRANCH   2   3
TORSDOF 11
ENDMDL
MODEL       33
REMARK 921   NORMALIZED FREE ENERGY PREDICTED BY IDOCK:   -5.06 KCAL/MOL
REMARK 922        TOTAL FREE ENERGY PREDICTED BY IDOCK:   -9.32 KCAL/MOL
REMARK 923 INTER-LIGAND FREE ENERGY PREDICTED BY IDOCK:   -8.31 KCAL/MOL
REMARK 924 INTRA-LIGAND FREE ENERGY PREDICTED BY IDOCK:   -1.01 KCAL/MOL
REMARK 927      BINDING AFFINITY PREDICTED BY RF-SCORE:    0.00 PKD
ROOT
HETATM    1  C   UNL     1     -10.846   8.958  71.753  1.00  0.00    -0.436 C  
HETATM    2  C   UNL     1     -11.041   9.475  70.337  1.00  0.00    -0.330 C  
ENDROOT
BRANCH   2   3
HETATM    3  C   UNL     1     -11.780  10.811  70.334  1.00  0.00    -0.445 C  
BRANCH   3   4
HETATM    4  C   UNL     1     -11.745  11.464  68.958  1.00  0.00    -0.343 C  
BRANCH   4   5
HETATM    5  O   UNL     1     -10.978  10.630  68.083  1.00  0.00    -0.227 OA 
BRANCH   5   6
HETATM    6  C   UNL     1     -10.966  11.029  66.767  1.00  0.00    -0.217 A  
HETATM    7  C   UNL     1     -10.157  10.284  65.887  1.00  0.00    -0.251 A  
HETATM    8  C   UNL     1     -10.174  10.595  64.523  1.00  0.00    -0.399 A  
HETATM    9  N   UNL     1      -9.511   9.114  66.323  1.00  0.00    -0.216 NA 
HETATM   10  H1  UNL     1      -8.926   8.575  65.686  1.00  0.00     0.000 HD 
HETATM   11  C   UNL     1     -10.862  11.717  64.055  1.00  0.00    -0.455 A  
HETATM   12  H2  UNL     1     -10.215   8.488  66.716  1.00  0.00     0.000 HD 
HETATM   13  C   UNL     1     -11.574  12.519  64.951  1.00  0.00    -0.386 A  
HETATM   14  C   UNL     1     -11.641  12.157  66.302  1.00  0.00    -0.424 A  
BRANCH  13  15
HETATM   15  C   UNL     1     -12.121  13.814  64.466  1.00  0.00    -0.428 C  
HETATM   16  O   UNL     1     -12.573  13.991  63.348  1.00  0.00    -0.845 OA 
BRANCH  15  17
HETATM   17  O   UNL     1     -11.870  14.775  65.387  1.00  0.00    -0.330 OA 
BRANCH  17  18
HETATM   18  C   UNL     1     -11.014  15.835  64.927  1.00  0.00    -0.427 C  
BRANCH  18  19
HETATM   19  C   UNL     1      -9.984  16.098  66.045  1.00  0.00    -0.348 C  
BRANCH  19  20
HETATM   20  N   UNL     1     -10.483  16.717  67.287  1.00  0.00    -0.320 NA 
BRANCH  20  21
HETATM   21  C   UNL     1     -10.411  15.826  68.453  1.00  0.00    -0.233 C  
HETATM   22  C   UNL     1     -11.740  15.297  68.982  1.00  0.00    -0.368 C  
ENDBRANCH  20  21
BRANCH  20  23
HETATM   23  C   UNL     1      -9.817  18.019  67.478  1.00  0.00    -0.309 C  
HETATM   24  C   UNL     1     -10.631  19.218  67.008  1.00  0.00    -0.571 C  
ENDBRANCH  20  23
ENDBRANCH  19  20
ENDBRANCH  18  19
ENDBRANCH  17  18
ENDBRANCH  15  17
ENDBRANCH  13  15
ENDBRANCH   5   6
ENDBRANCH   4   5
ENDBRANCH   3   4
ENDBRANCH   2   3
TORSDOF 11
ENDMDL
MODEL       34
REMARK 921   NORMALIZED FREE ENERGY PREDICTED BY IDOCK:   -5.05 KCAL/MOL
REMARK 922        TOTAL FREE ENERGY PREDICTED BY IDOCK:   -9.31 KCAL/MOL
REMARK 923 INTER-LIGAND FREE ENERGY PREDICTED BY IDOCK:   -8.08 KCAL/MOL
REMARK 924 INTRA-LIGAND FREE ENERGY PREDICTED BY IDOCK:   -1.23 KCAL/MOL
REMARK 927      BINDING AFFINITY PREDICTED BY RF-SCORE:    0.00 PKD
ROOT
HETATM    1  C   UNL     1      -9.569  20.195  66.933  1.00  0.00    -0.564 C  
HETATM    2  C   UNL     1      -8.552  19.092  67.175  1.00  0.00    -0.298 C  
ENDROOT
BRANCH   2   3
HETATM    3  C   UNL     1      -9.146  17.969  68.023  1.00  0.00    -0.274 C  
BRANCH   3   4
HETATM    4  C   UNL     1     -10.482  17.496  67.465  1.00  0.00    -0.355 C  
BRANCH   4   5
HETATM    5  O   UNL     1     -10.238  16.808  66.233  1.00  0.00    -0.309 OA 
BRANCH   5   6
HETATM    6  C   UNL     1     -10.916  15.620  66.090  1.00  0.00    -0.206 A  
HETATM    7  C   UNL     1     -11.630  15.439  64.890  1.00  0.00    -0.248 A  
HETATM    8  C   UNL     1     -12.268  14.216  64.657  1.00  0.00    -0.465 A  
HETATM    9  N   UNL     1     -11.530  16.379  63.848  1.00  0.00    -1.618 NA 
HETATM   10  H1  UNL     1     -12.047  16.248  62.979  1.00  0.00     0.000 HD 
HETATM   11  C   UNL     1     -12.326  13.241  65.655  1.00  0.00    -0.521 A  
HETATM   12  H2  UNL     1     -10.544  16.495  63.617  1.00  0.00     0.000 HD 
HETATM   13  C   UNL     1     -11.709  13.470  66.888  1.00  0.00    -0.424 A  
HETATM   14  C   UNL     1     -10.986  14.652  67.092  1.00  0.00    -0.316 A  
BRANCH  13  15
HETATM   15  C   UNL     1     -11.960  12.512  67.998  1.00  0.00    -0.223 C  
HETATM   16  O   UNL     1     -11.968  12.818  69.177  1.00  0.00    -0.291 OA 
BRANCH  15  17
HETATM   17  O   UNL     1     -11.993  11.253  67.499  1.00  0.00    -0.612 OA 
BRANCH  17  18
HETATM   18  C   UNL     1     -10.993  10.371  68.035  1.00  0.00    -0.291 C  
BRANCH  18  19
HETATM   19  C   UNL     1     -10.017  10.044  66.885  1.00  0.00    -0.209 C  
BRANCH  19  20
HETATM   20  N   UNL     1      -9.046  11.088  66.510  1.00  0.00    -0.168 NA 
BRANCH  20  21
HETATM   21  C   UNL     1      -7.660  10.749  66.861  1.00  0.00    -0.123 C  
HETATM   22  C   UNL     1      -6.731  10.415  65.698  1.00  0.00    -0.127 C  
ENDBRANCH  20  21
BRANCH  20  23
HETATM   23  C   UNL     1      -9.241  11.443  65.092  1.00  0.00    -0.103 C  
HETATM   24  C   UNL     1     -10.243  10.562  64.354  1.00  0.00    -0.337 C  
ENDBRANCH  20  23
ENDBRANCH  19  20
ENDBRANCH  18  19
ENDBRANCH  17  18
ENDBRANCH  15  17
ENDBRANCH  13  15
ENDBRANCH   5   6
ENDBRANCH   4   5
ENDBRANCH   3   4
ENDBRANCH   2   3
TORSDOF 11
ENDMDL
MODEL       35
REMARK 921   NORMALIZED FREE ENERGY PREDICTED BY IDOCK:   -5.04 KCAL/MOL
REMARK 922        TOTAL FREE ENERGY PREDICTED BY IDOCK:   -9.29 KCAL/MOL
REMARK 923 INTER-LIGAND FREE ENERGY PREDICTED BY IDOCK:   -8.06 KCAL/MOL
REMARK 924 INTRA-LIGAND FREE ENERGY PREDICTED BY IDOCK:   -1.23 KCAL/MOL
REMARK 927      BINDING AFFINITY PREDICTED BY RF-SCORE:    0.00 PKD
ROOT
HETATM    1  C   UNL     1      -9.911   5.963  67.416  1.00  0.00    -0.172 C  
HETATM    2  C   UNL     1     -11.143   6.230  68.265  1.00  0.00    -0.364 C  
ENDROOT
BRANCH   2   3
HETATM    3  C   UNL     1     -10.796   6.244  69.752  1.00  0.00    -0.399 C  
BRANCH   3   4
HETATM    4  C   UNL     1     -11.959   6.758  70.591  1.00  0.00    -0.362 C  
BRANCH   4   5
HETATM    5  O   UNL     1     -11.456   7.744  71.501  1.00  0.00    -0.254 OA 
BRANCH   5   6
HETATM    6  C   UNL     1     -11.780   9.042  71.185  1.00  0.00    -0.302 A  
HETATM    7  C   UNL     1     -12.840   9.624  71.907  1.00  0.00    -0.425 A  
HETATM    8  C   UNL     1     -13.155  10.969  71.684  1.00  0.00    -0.543 A  
HETATM    9  N   UNL     1     -13.432   8.942  72.985  1.00  0.00    -0.952 NA 
HETATM   10  H1  UNL     1     -14.199   9.364  73.508  1.00  0.00     0.000 HD 
HETATM   11  C   UNL     1     -12.534  11.686  70.659  1.00  0.00    -0.386 A  
HETATM   12  H2  UNL     1     -12.697   8.690  73.646  1.00  0.00     0.000 HD 
HETATM   13  C   UNL     1     -11.560  11.070  69.871  1.00  0.00    -0.416 A  
HETATM   14  C   UNL     1     -11.170   9.754  70.152  1.00  0.00    -0.324 A  
BRANCH  13  15
HETATM   15  C   UNL     1     -11.066  11.783  68.663  1.00  0.00    -0.238 C  
HETATM   16  O   UNL     1      -9.942  12.238  68.547  1.00  0.00    -0.213 OA 
BRANCH  15  17
HETATM   17  O   UNL     1     -12.103  11.994  67.817  1.00  0.00    -0.537 OA 
BRANCH  17  18
HETATM   18  C   UNL     1     -11.776  12.767  66.650  1.00  0.00    -0.393 C  
BRANCH  18  19
HETATM   19  C   UNL     1     -11.485  11.764  65.513  1.00  0.00    -0.179 C  
BRANCH  19  20
HETATM   20  N   UNL     1     -10.141  11.803  64.910  1.00  0.00    -0.253 NA 
BRANCH  20  21
HETATM   21  C   UNL     1      -9.300  10.656  65.280  1.00  0.00    -0.214 C  
HETATM   22  C   UNL     1     -10.000   9.513  66.009  1.00  0.00    -0.348 C  
ENDBRANCH  20  21
BRANCH  20  23
HETATM   23  C   UNL     1     -10.271  12.012  63.456  1.00  0.00    -0.450 C  
HETATM   24  C   UNL     1      -9.298  11.197  62.613  1.00  0.00    -0.336 C  
ENDBRANCH  20  23
ENDBRANCH  19  20
ENDBRANCH  18  19
ENDBRANCH  17  18
ENDBRANCH  15  17
ENDBRANCH  13  15
ENDBRANCH   5   6
ENDBRANCH   4   5
ENDBRANCH   3   4
ENDBRANCH   2   3
TORSDOF 11
ENDMDL
MODEL       36
REMARK 921   NORMALIZED FREE ENERGY PREDICTED BY IDOCK:   -5.04 KCAL/MOL
REMARK 922        TOTAL FREE ENERGY PREDICTED BY IDOCK:   -9.28 KCAL/MOL
REMARK 923 INTER-LIGAND FREE ENERGY PREDICTED BY IDOCK:   -8.46 KCAL/MOL
REMARK 924 INTRA-LIGAND FREE ENERGY PREDICTED BY IDOCK:   -0.83 KCAL/MOL
REMARK 927      BINDING AFFINITY PREDICTED BY RF-SCORE:    0.00 PKD
ROOT
HETATM    1  C   UNL     1     -13.313   9.111  72.113  1.00  0.00    -0.525 C  
HETATM    2  C   UNL     1     -12.860  10.452  71.561  1.00  0.00    -0.569 C  
ENDROOT
BRANCH   2   3
HETATM    3  C   UNL     1     -11.541  10.322  70.803  1.00  0.00    -0.446 C  
BRANCH   3   4
HETATM    4  C   UNL     1     -11.580  11.078  69.481  1.00  0.00    -0.313 C  
BRANCH   4   5
HETATM    5  O   UNL     1     -11.025  10.236  68.463  1.00  0.00    -0.228 OA 
BRANCH   5   6
HETATM    6  C   UNL     1     -10.969  10.802  67.211  1.00  0.00    -0.297 A  
HETATM    7  C   UNL     1     -10.166  10.150  66.257  1.00  0.00    -0.219 A  
HETATM    8  C   UNL     1     -10.141  10.635  64.945  1.00  0.00    -0.402 A  
HETATM    9  N   UNL     1      -9.570   8.909  66.548  1.00  0.00    -0.211 NA 
HETATM   10  H1  UNL     1      -8.989   8.437  65.857  1.00  0.00     0.000 HD 
HETATM   11  C   UNL     1     -10.779  11.833  64.615  1.00  0.00    -0.363 A  
HETATM   12  H2  UNL     1     -10.303   8.264  66.843  1.00  0.00     0.000 HD 
HETATM   13  C   UNL     1     -11.484  12.537  65.595  1.00  0.00    -0.400 A  
HETATM   14  C   UNL     1     -11.595  12.006  66.886  1.00  0.00    -0.389 A  
BRANCH  13  15
HETATM   15  C   UNL     1     -11.976  13.903  65.273  1.00  0.00    -0.375 C  
HETATM   16  O   UNL     1     -13.126  14.272  65.433  1.00  0.00    -0.685 OA 
BRANCH  15  17
HETATM   17  O   UNL     1     -11.002  14.584  64.623  1.00  0.00    -0.382 OA 
BRANCH  17  18
HETATM   18  C   UNL     1     -10.868  15.960  65.020  1.00  0.00    -0.426 C  
BRANCH  18  19
HETATM   19  C   UNL     1      -9.815  16.003  66.147  1.00  0.00    -0.325 C  
BRANCH  19  20
HETATM   20  N   UNL     1      -9.706  17.254  66.918  1.00  0.00    -0.263 NA 
BRANCH  20  21
HETATM   21  C   UNL     1     -10.517  18.350  66.370  1.00  0.00    -0.383 C  
HETATM   22  C   UNL     1     -10.621  19.608  67.227  1.00  0.00    -0.598 C  
ENDBRANCH  20  21
BRANCH  20  23
HETATM   23  C   UNL     1      -9.960  16.968  68.342  1.00  0.00    -0.289 C  
HETATM   24  C   UNL     1     -11.194  16.112  68.603  1.00  0.00    -0.369 C  
ENDBRANCH  20  23
ENDBRANCH  19  20
ENDBRANCH  18  19
ENDBRANCH  17  18
ENDBRANCH  15  17
ENDBRANCH  13  15
ENDBRANCH   5   6
ENDBRANCH   4   5
ENDBRANCH   3   4
ENDBRANCH   2   3
TORSDOF 11
ENDMDL
MODEL       37
REMARK 921   NORMALIZED FREE ENERGY PREDICTED BY IDOCK:   -5.03 KCAL/MOL
REMARK 922        TOTAL FREE ENERGY PREDICTED BY IDOCK:   -9.28 KCAL/MOL
REMARK 923 INTER-LIGAND FREE ENERGY PREDICTED BY IDOCK:   -8.19 KCAL/MOL
REMARK 924 INTRA-LIGAND FREE ENERGY PREDICTED BY IDOCK:   -1.09 KCAL/MOL
REMARK 927      BINDING AFFINITY PREDICTED BY RF-SCORE:    0.00 PKD
ROOT
HETATM    1  C   UNL     1      -9.895  10.814  65.103  1.00  0.00    -0.333 C  
HETATM    2  C   UNL     1     -10.407  10.911  63.675  1.00  0.00    -0.364 C  
ENDROOT
BRANCH   2   3
HETATM    3  C   UNL     1     -10.916  12.318  63.366  1.00  0.00    -0.467 C  
BRANCH   3   4
HETATM    4  C   UNL     1     -12.409  12.444  63.642  1.00  0.00    -0.548 C  
BRANCH   4   5
HETATM    5  O   UNL     1     -12.697  13.816  63.940  1.00  0.00    -0.673 OA 
BRANCH   5   6
HETATM    6  C   UNL     1     -12.164  14.275  65.122  1.00  0.00    -0.421 A  
HETATM    7  C   UNL     1     -11.450  15.487  65.066  1.00  0.00    -0.218 A  
HETATM    8  C   UNL     1     -10.960  16.041  66.253  1.00  0.00    -0.071 A  
HETATM    9  N   UNL     1     -11.412  16.243  63.881  1.00  0.00    -1.539 NA 
HETATM   10  H1  UNL     1     -10.895  17.121  63.840  1.00  0.00     0.000 HD 
HETATM   11  C   UNL     1     -11.042  15.337  67.457  1.00  0.00    -0.324 A  
HETATM   12  H2  UNL     1     -12.372  16.424  63.587  1.00  0.00     0.000 HD 
HETATM   13  C   UNL     1     -11.655  14.082  67.487  1.00  0.00    -0.397 A  
HETATM   14  C   UNL     1     -12.234  13.565  66.321  1.00  0.00    -0.468 A  
BRANCH  13  15
HETATM   15  C   UNL     1     -11.547  13.267  68.726  1.00  0.00    -0.312 C  
HETATM   16  O   UNL     1     -11.770  13.692  69.846  1.00  0.00    -0.288 OA 
BRANCH  15  17
HETATM   17  O   UNL     1     -10.998  12.067  68.422  1.00  0.00    -0.210 OA 
BRANCH  17  18
HETATM   18  C   UNL     1     -11.768  10.931  68.851  1.00  0.00    -0.306 C  
BRANCH  18  19
HETATM   19  C   UNL     1     -11.030  10.318  70.059  1.00  0.00    -0.311 C  
BRANCH  19  20
HETATM   20  N   UNL     1      -9.864   9.463  69.771  1.00  0.00    -0.188 NA 
BRANCH  20  21
HETATM   21  C   UNL     1      -9.237   8.905  70.978  1.00  0.00    -0.245 C  
HETATM   22  C   UNL     1      -7.726   9.081  71.096  1.00  0.00    -0.143 C  
ENDBRANCH  20  21
BRANCH  20  23
HETATM   23  C   UNL     1     -10.242   8.454  68.765  1.00  0.00    -0.207 C  
HETATM   24  C   UNL     1      -9.199   8.228  67.677  1.00  0.00    -0.150 C  
ENDBRANCH  20  23
ENDBRANCH  19  20
ENDBRANCH  18  19
ENDBRANCH  17  18
ENDBRANCH  15  17
ENDBRANCH  13  15
ENDBRANCH   5   6
ENDBRANCH   4   5
ENDBRANCH   3   4
ENDBRANCH   2   3
TORSDOF 11
ENDMDL
MODEL       38
REMARK 921   NORMALIZED FREE ENERGY PREDICTED BY IDOCK:   -5.03 KCAL/MOL
REMARK 922        TOTAL FREE ENERGY PREDICTED BY IDOCK:   -9.28 KCAL/MOL
REMARK 923 INTER-LIGAND FREE ENERGY PREDICTED BY IDOCK:   -8.14 KCAL/MOL
REMARK 924 INTRA-LIGAND FREE ENERGY PREDICTED BY IDOCK:   -1.13 KCAL/MOL
REMARK 927      BINDING AFFINITY PREDICTED BY RF-SCORE:    0.00 PKD
ROOT
HETATM    1  C   UNL     1     -12.881  13.547  71.514  1.00  0.00    -0.440 C  
HETATM    2  C   UNL     1     -13.298  12.161  71.976  1.00  0.00    -0.470 C  
ENDROOT
BRANCH   2   3
HETATM    3  C   UNL     1     -12.655  11.075  71.116  1.00  0.00    -0.522 C  
BRANCH   3   4
HETATM    4  C   UNL     1     -11.855  11.675  69.967  1.00  0.00    -0.355 C  
BRANCH   4   5
HETATM    5  O   UNL     1     -11.432  10.609  69.108  1.00  0.00    -0.259 OA 
BRANCH   5   6
HETATM    6  C   UNL     1     -11.247  10.964  67.793  1.00  0.00    -0.317 A  
HETATM    7  C   UNL     1     -10.294  10.226  67.065  1.00  0.00    -0.243 A  
HETATM    8  C   UNL     1     -10.128  10.490  65.701  1.00  0.00    -0.333 A  
HETATM    9  N   UNL     1      -9.674   9.098  67.634  1.00  0.00    -0.153 NA 
HETATM   10  H1  UNL     1      -8.984   8.564  67.107  1.00  0.00     0.000 HD 
HETATM   11  C   UNL     1     -10.783  11.566  65.098  1.00  0.00    -0.348 A  
HETATM   12  H2  UNL     1     -10.403   8.457  67.947  1.00  0.00     0.000 HD 
HETATM   13  C   UNL     1     -11.644  12.366  65.853  1.00  0.00    -0.449 A  
HETATM   14  C   UNL     1     -11.891  12.047  67.194  1.00  0.00    -0.251 A  
BRANCH  13  15
HETATM   15  C   UNL     1     -12.165  13.621  65.246  1.00  0.00    -0.439 C  
HETATM   16  O   UNL     1     -13.325  13.985  65.314  1.00  0.00    -0.741 OA 
BRANCH  15  17
HETATM   17  O   UNL     1     -11.198  14.174  64.474  1.00  0.00    -0.373 OA 
BRANCH  17  18
HETATM   18  C   UNL     1     -11.041  15.594  64.639  1.00  0.00    -0.373 C  
BRANCH  18  19
HETATM   19  C   UNL     1     -10.245  15.809  65.943  1.00  0.00    -0.355 C  
BRANCH  19  20
HETATM   20  N   UNL     1     -10.759  16.819  66.886  1.00  0.00    -0.205 NA 
BRANCH  20  21
HETATM   21  C   UNL     1     -10.951  16.302  68.248  1.00  0.00    -0.348 C  
HETATM   22  C   UNL     1     -10.175  15.038  68.607  1.00  0.00    -0.231 C  
ENDBRANCH  20  21
BRANCH  20  23
HETATM   23  C   UNL     1      -9.914  18.025  66.811  1.00  0.00    -0.346 C  
HETATM   24  C   UNL     1     -10.562  19.284  67.375  1.00  0.00    -0.594 C  
ENDBRANCH  20  23
ENDBRANCH  19  20
ENDBRANCH  18  19
ENDBRANCH  17  18
ENDBRANCH  15  17
ENDBRANCH  13  15
ENDBRANCH   5   6
ENDBRANCH   4   5
ENDBRANCH   3   4
ENDBRANCH   2   3
TORSDOF 11
ENDMDL
MODEL       39
REMARK 921   NORMALIZED FREE ENERGY PREDICTED BY IDOCK:   -5.02 KCAL/MOL
REMARK 922        TOTAL FREE ENERGY PREDICTED BY IDOCK:   -9.26 KCAL/MOL
REMARK 923 INTER-LIGAND FREE ENERGY PREDICTED BY IDOCK:   -8.60 KCAL/MOL
REMARK 924 INTRA-LIGAND FREE ENERGY PREDICTED BY IDOCK:   -0.66 KCAL/MOL
REMARK 927      BINDING AFFINITY PREDICTED BY RF-SCORE:    0.00 PKD
ROOT
HETATM    1  C   UNL     1     -11.041   8.606  72.081  1.00  0.00    -0.434 C  
HETATM    2  C   UNL     1     -12.526   8.297  71.996  1.00  0.00    -0.393 C  
ENDROOT
BRANCH   2   3
HETATM    3  C   UNL     1     -13.333   9.551  71.663  1.00  0.00    -0.485 C  
BRANCH   3   4
HETATM    4  C   UNL     1     -12.429  10.696  71.224  1.00  0.00    -0.410 C  
BRANCH   4   5
HETATM    5  O   UNL     1     -12.979  11.920  71.724  1.00  0.00    -0.414 OA 
BRANCH   5   6
HETATM    6  C   UNL     1     -12.672  13.037  70.982  1.00  0.00    -0.262 A  
HETATM    7  C   UNL     1     -12.978  14.284  71.559  1.00  0.00    -0.340 A  
HETATM    8  C   UNL     1     -12.610  15.453  70.884  1.00  0.00    -0.496 A  
HETATM    9  N   UNL     1     -13.445  14.366  72.883  1.00  0.00    -0.624 NA 
HETATM   10  H1  UNL     1     -13.666  15.270  73.302  1.00  0.00     0.000 HD 
HETATM   11  C   UNL     1     -12.084  15.394  69.592  1.00  0.00    -0.354 A  
HETATM   12  H2  UNL     1     -12.776  13.891  73.488  1.00  0.00     0.000 HD 
HETATM   13  C   UNL     1     -11.886  14.155  68.978  1.00  0.00    -0.384 A  
HETATM   14  C   UNL     1     -12.160  12.979  69.686  1.00  0.00    -0.304 A  
BRANCH  13  15
HETATM   15  C   UNL     1     -11.523  14.126  67.535  1.00  0.00    -0.340 C  
HETATM   16  O   UNL     1     -12.119  13.480  66.692  1.00  0.00    -0.399 OA 
BRANCH  15  17
HETATM   17  O   UNL     1     -10.345  14.773  67.361  1.00  0.00    -0.241 OA 
BRANCH  17  18
HETATM   18  C   UNL     1     -10.262  15.546  66.151  1.00  0.00    -0.306 C  
BRANCH  18  19
HETATM   19  C   UNL     1      -8.947  16.350  66.221  1.00  0.00    -0.333 C  
BRANCH  19  20
HETATM   20  N   UNL     1      -9.011  17.777  65.857  1.00  0.00    -0.506 NA 
BRANCH  20  21
HETATM   21  C   UNL     1     -10.300  18.405  66.180  1.00  0.00    -0.407 C  
HETATM   22  C   UNL     1     -10.271  19.906  66.452  1.00  0.00    -0.617 C  
ENDBRANCH  20  21
BRANCH  20  23
HETATM   23  C   UNL     1      -7.841  18.474  66.423  1.00  0.00    -0.271 C  
HETATM   24  C   UNL     1      -6.674  18.634  65.455  1.00  0.00    -0.285 C  
ENDBRANCH  20  23
ENDBRANCH  19  20
ENDBRANCH  18  19
ENDBRANCH  17  18
ENDBRANCH  15  17
ENDBRANCH  13  15
ENDBRANCH   5   6
ENDBRANCH   4   5
ENDBRANCH   3   4
ENDBRANCH   2   3
TORSDOF 11
ENDMDL
MODEL       40
REMARK 921   NORMALIZED FREE ENERGY PREDICTED BY IDOCK:   -5.01 KCAL/MOL
REMARK 922        TOTAL FREE ENERGY PREDICTED BY IDOCK:   -9.24 KCAL/MOL
REMARK 923 INTER-LIGAND FREE ENERGY PREDICTED BY IDOCK:   -8.20 KCAL/MOL
REMARK 924 INTRA-LIGAND FREE ENERGY PREDICTED BY IDOCK:   -1.04 KCAL/MOL
REMARK 927      BINDING AFFINITY PREDICTED BY RF-SCORE:    0.00 PKD
ROOT
HETATM    1  C   UNL     1     -10.459  19.489  66.029  1.00  0.00    -0.611 C  
HETATM    2  C   UNL     1     -10.255  18.036  66.425  1.00  0.00    -0.393 C  
ENDROOT
BRANCH   2   3
HETATM    3  C   UNL     1     -10.801  17.090  65.357  1.00  0.00    -0.079 C  
BRANCH   3   4
HETATM    4  C   UNL     1     -10.168  15.708  65.459  1.00  0.00    -0.385 C  
BRANCH   4   5
HETATM    5  O   UNL     1     -11.131  14.739  65.030  1.00  0.00    -0.359 OA 
BRANCH   5   6
HETATM    6  C   UNL     1     -10.998  13.497  65.606  1.00  0.00    -0.289 A  
HETATM    7  C   UNL     1     -10.533  12.460  64.775  1.00  0.00    -0.304 A  
HETATM    8  C   UNL     1     -10.300  11.198  65.332  1.00  0.00    -0.331 A  
HETATM    9  N   UNL     1     -10.102  12.730  63.464  1.00  0.00    -0.680 NA 
HETATM   10  H1  UNL     1      -9.765  11.979  62.862  1.00  0.00     0.000 HD 
HETATM   11  C   UNL     1     -10.660  10.923  66.653  1.00  0.00    -0.305 A  
HETATM   12  H2  UNL     1      -9.382  13.451  63.507  1.00  0.00     0.000 HD 
HETATM   13  C   UNL     1     -11.226  11.927  67.442  1.00  0.00    -0.366 A  
HETATM   14  C   UNL     1     -11.372  13.219  66.921  1.00  0.00    -0.351 A  
BRANCH  13  15
HETATM   15  C   UNL     1     -11.789  11.557  68.768  1.00  0.00    -0.330 C  
HETATM   16  O   UNL     1     -12.534  10.612  68.956  1.00  0.00    -0.311 OA 
BRANCH  15  17
HETATM   17  O   UNL     1     -11.487  12.527  69.665  1.00  0.00    -0.250 OA 
BRANCH  17  18
HETATM   18  C   UNL     1     -12.409  12.634  70.763  1.00  0.00    -0.283 C  
BRANCH  18  19
HETATM   19  C   UNL     1     -12.697  14.136  70.964  1.00  0.00    -0.362 C  
BRANCH  19  20
HETATM   20  N   UNL     1     -11.591  14.971  71.468  1.00  0.00    -0.361 NA 
BRANCH  20  21
HETATM   21  C   UNL     1     -11.012  15.853  70.445  1.00  0.00    -0.350 C  
HETATM   22  C   UNL     1     -11.773  15.950  69.127  1.00  0.00    -0.369 C  
ENDBRANCH  20  21
BRANCH  20  23
HETATM   23  C   UNL     1     -12.031  15.669  72.690  1.00  0.00    -0.473 C  
HETATM   24  C   UNL     1     -13.533  15.616  72.940  1.00  0.00    -0.657 C  
ENDBRANCH  20  23
ENDBRANCH  19  20
ENDBRANCH  18  19
ENDBRANCH  17  18
ENDBRANCH  15  17
ENDBRANCH  13  15
ENDBRANCH   5   6
ENDBRANCH   4   5
ENDBRANCH   3   4
ENDBRANCH   2   3
TORSDOF 11
ENDMDL
MODEL       41
REMARK 921   NORMALIZED FREE ENERGY PREDICTED BY IDOCK:   -5.00 KCAL/MOL
REMARK 922        TOTAL FREE ENERGY PREDICTED BY IDOCK:   -9.23 KCAL/MOL
REMARK 923 INTER-LIGAND FREE ENERGY PREDICTED BY IDOCK:   -8.58 KCAL/MOL
REMARK 924 INTRA-LIGAND FREE ENERGY PREDICTED BY IDOCK:   -0.65 KCAL/MOL
REMARK 927      BINDING AFFINITY PREDICTED BY RF-SCORE:    0.00 PKD
ROOT
HETATM    1  C   UNL     1      -5.757  17.954  66.238  1.00  0.00    -0.224 C  
HETATM    2  C   UNL     1      -7.105  17.271  66.076  1.00  0.00    -0.200 C  
ENDROOT
BRANCH   2   3
HETATM    3  C   UNL     1      -7.973  17.461  67.318  1.00  0.00    -0.218 C  
BRANCH   3   4
HETATM    4  C   UNL     1      -9.321  16.767  67.168  1.00  0.00    -0.229 C  
BRANCH   4   5
HETATM    5  O   UNL     1      -9.467  16.358  65.803  1.00  0.00    -0.464 OA 
BRANCH   5   6
HETATM    6  C   UNL     1     -10.294  15.276  65.608  1.00  0.00    -0.366 A  
HETATM    7  C   UNL     1     -11.326  15.430  64.663  1.00  0.00    -0.355 A  
HETATM    8  C   UNL     1     -12.143  14.334  64.366  1.00  0.00    -0.490 A  
HETATM    9  N   UNL     1     -11.406  16.589  63.871  1.00  0.00    -1.559 NA 
HETATM   10  H1  UNL     1     -12.154  16.700  63.186  1.00  0.00     0.000 HD 
HETATM   11  C   UNL     1     -12.039  13.148  65.097  1.00  0.00    -0.463 A  
HETATM   12  H2  UNL     1     -10.514  16.710  63.391  1.00  0.00     0.000 HD 
HETATM   13  C   UNL     1     -11.085  13.039  66.112  1.00  0.00    -0.311 A  
HETATM   14  C   UNL     1     -10.199  14.098  66.348  1.00  0.00    -0.292 A  
BRANCH  13  15
HETATM   15  C   UNL     1     -11.132  11.852  67.008  1.00  0.00    -0.302 C  
HETATM   16  O   UNL     1     -10.503  10.826  66.819  1.00  0.00    -0.234 OA 
BRANCH  15  17
HETATM   17  O   UNL     1     -12.102  12.035  67.936  1.00  0.00    -0.531 OA 
BRANCH  17  18
HETATM   18  C   UNL     1     -11.662  11.887  69.297  1.00  0.00    -0.328 C  
BRANCH  18  19
HETATM   19  C   UNL     1     -12.172  10.516  69.787  1.00  0.00    -0.181 C  
BRANCH  19  20
HETATM   20  N   UNL     1     -11.933  10.177  71.202  1.00  0.00    -0.364 NA 
BRANCH  20  21
HETATM   21  C   UNL     1     -13.127  10.322  72.047  1.00  0.00    -0.425 C  
HETATM   22  C   UNL     1     -14.117   9.162  72.022  1.00  0.00    -0.380 C  
ENDBRANCH  20  21
BRANCH  20  23
HETATM   23  C   UNL     1     -11.295   8.849  71.280  1.00  0.00    -0.300 C  
HETATM   24  C   UNL     1      -9.772   8.882  71.301  1.00  0.00    -0.359 C  
ENDBRANCH  20  23
ENDBRANCH  19  20
ENDBRANCH  18  19
ENDBRANCH  17  18
ENDBRANCH  15  17
ENDBRANCH  13  15
ENDBRANCH   5   6
ENDBRANCH   4   5
ENDBRANCH   3   4
ENDBRANCH   2   3
TORSDOF 11
ENDMDL
MODEL       42
REMARK 921   NORMALIZED FREE ENERGY PREDICTED BY IDOCK:   -4.98 KCAL/MOL
REMARK 922        TOTAL FREE ENERGY PREDICTED BY IDOCK:   -9.19 KCAL/MOL
REMARK 923 INTER-LIGAND FREE ENERGY PREDICTED BY IDOCK:   -8.55 KCAL/MOL
REMARK 924 INTRA-LIGAND FREE ENERGY PREDICTED BY IDOCK:   -0.65 KCAL/MOL
REMARK 927      BINDING AFFINITY PREDICTED BY RF-SCORE:    0.00 PKD
ROOT
HETATM    1  C   UNL     1     -11.043  11.764  63.592  1.00  0.00    -0.518 C  
HETATM    2  C   UNL     1     -12.304  12.611  63.631  1.00  0.00    -0.584 C  
ENDROOT
BRANCH   2   3
HETATM    3  C   UNL     1     -12.054  13.943  64.333  1.00  0.00    -0.477 C  
BRANCH   3   4
HETATM    4  C   UNL     1     -12.342  13.849  65.826  1.00  0.00    -0.486 C  
BRANCH   4   5
HETATM    5  O   UNL     1     -11.302  14.539  66.530  1.00  0.00    -0.337 OA 
BRANCH   5   6
HETATM    6  C   UNL     1     -11.526  14.704  67.876  1.00  0.00    -0.329 A  
HETATM    7  C   UNL     1     -11.138  15.937  68.436  1.00  0.00    -0.345 A  
HETATM    8  C   UNL     1     -11.420  16.189  69.783  1.00  0.00    -0.282 A  
HETATM    9  N   UNL     1     -10.674  16.982  67.617  1.00  0.00    -0.328 NA 
HETATM   10  H1  UNL     1     -10.394  17.875  68.022  1.00  0.00     0.000 HD 
HETATM   11  C   UNL     1     -11.941  15.186  70.603  1.00  0.00    -0.371 A  
HETATM   12  H2  UNL     1     -11.379  17.164  66.902  1.00  0.00     0.000 HD 
HETATM   13  C   UNL     1     -12.221  13.926  70.067  1.00  0.00    -0.408 A  
HETATM   14  C   UNL     1     -12.033  13.697  68.698  1.00  0.00    -0.395 A  
BRANCH  13  15
HETATM   15  C   UNL     1     -12.577  12.821  70.996  1.00  0.00    -0.271 C  
HETATM   16  O   UNL     1     -13.195  12.972  72.035  1.00  0.00    -0.438 OA 
BRANCH  15  17
HETATM   17  O   UNL     1     -11.956  11.686  70.594  1.00  0.00    -0.358 OA 
BRANCH  17  18
HETATM   18  C   UNL     1     -12.528  10.474  71.117  1.00  0.00    -0.412 C  
BRANCH  18  19
HETATM   19  C   UNL     1     -11.376   9.456  71.254  1.00  0.00    -0.366 C  
BRANCH  19  20
HETATM   20  N   UNL     1     -11.653   8.228  72.019  1.00  0.00    -0.315 NA 
BRANCH  20  21
HETATM   21  C   UNL     1     -12.295   7.174  71.221  1.00  0.00    -0.379 C  
HETATM   22  C   UNL     1     -11.443   6.545  70.123  1.00  0.00    -0.477 C  
ENDBRANCH  20  21
BRANCH  20  23
HETATM   23  C   UNL     1     -10.421   7.799  72.707  1.00  0.00    -0.328 C  
HETATM   24  C   UNL     1      -9.170   8.566  72.295  1.00  0.00    -0.343 C  
ENDBRANCH  20  23
ENDBRANCH  19  20
ENDBRANCH  18  19
ENDBRANCH  17  18
ENDBRANCH  15  17
ENDBRANCH  13  15
ENDBRANCH   5   6
ENDBRANCH   4   5
ENDBRANCH   3   4
ENDBRANCH   2   3
TORSDOF 11
ENDMDL
MODEL       43
REMARK 921   NORMALIZED FREE ENERGY PREDICTED BY IDOCK:   -4.98 KCAL/MOL
REMARK 922        TOTAL FREE ENERGY PREDICTED BY IDOCK:   -9.19 KCAL/MOL
REMARK 923 INTER-LIGAND FREE ENERGY PREDICTED BY IDOCK:   -8.33 KCAL/MOL
REMARK 924 INTRA-LIGAND FREE ENERGY PREDICTED BY IDOCK:   -0.86 KCAL/MOL
REMARK 927      BINDING AFFINITY PREDICTED BY RF-SCORE:    0.00 PKD
ROOT
HETATM    1  C   UNL     1     -12.107  14.657  71.157  1.00  0.00    -0.403 C  
HETATM    2  C   UNL     1     -11.962  15.238  69.760  1.00  0.00    -0.374 C  
ENDROOT
BRANCH   2   3
HETATM    3  C   UNL     1     -12.027  14.143  68.697  1.00  0.00    -0.373 C  
BRANCH   3   4
HETATM    4  C   UNL     1     -11.641  14.677  67.323  1.00  0.00    -0.387 C  
BRANCH   4   5
HETATM    5  O   UNL     1     -12.446  14.014  66.341  1.00  0.00    -0.452 OA 
BRANCH   5   6
HETATM    6  C   UNL     1     -11.808  13.008  65.654  1.00  0.00    -0.399 A  
HETATM    7  C   UNL     1     -11.884  13.055  64.248  1.00  0.00    -0.396 A  
HETATM    8  C   UNL     1     -11.182  12.105  63.499  1.00  0.00    -0.536 A  
HETATM    9  N   UNL     1     -12.469  14.156  63.598  1.00  0.00    -1.071 NA 
HETATM   10  H1  UNL     1     -12.524  14.190  62.580  1.00  0.00     0.000 HD 
HETATM   11  C   UNL     1     -10.538  11.036  64.126  1.00  0.00    -0.412 A  
HETATM   12  H2  UNL     1     -12.001  15.003  63.920  1.00  0.00     0.000 HD 
HETATM   13  C   UNL     1     -10.560  10.932  65.519  1.00  0.00    -0.240 A  
HETATM   14  C   UNL     1     -11.177  11.933  66.280  1.00  0.00    -0.392 A  
BRANCH  13  15
HETATM   15  C   UNL     1     -10.050   9.684  66.147  1.00  0.00    -0.258 C  
HETATM   16  O   UNL     1      -9.280   8.910  65.607  1.00  0.00    -0.218 OA 
BRANCH  15  17
HETATM   17  O   UNL     1     -10.710   9.471  67.311  1.00  0.00    -0.263 OA 
BRANCH  17  18
HETATM   18  C   UNL     1     -10.320   8.277  68.010  1.00  0.00    -0.213 C  
BRANCH  18  19
HETATM   19  C   UNL     1     -10.154   8.658  69.496  1.00  0.00    -0.203 C  
BRANCH  19  20
HETATM   20  N   UNL     1     -11.344   8.541  70.357  1.00  0.00    -0.228 NA 
BRANCH  20  21
HETATM   21  C   UNL     1     -11.287   7.400  71.281  1.00  0.00    -0.265 C  
HETATM   22  C   UNL     1     -11.379   7.730  72.768  1.00  0.00    -0.446 C  
ENDBRANCH  20  21
BRANCH  20  23
HETATM   23  C   UNL     1     -11.596   9.838  71.012  1.00  0.00    -0.376 C  
HETATM   24  C   UNL     1     -12.262  10.878  70.118  1.00  0.00    -0.423 C  
ENDBRANCH  20  23
ENDBRANCH  19  20
ENDBRANCH  18  19
ENDBRANCH  17  18
ENDBRANCH  15  17
ENDBRANCH  13  15
ENDBRANCH   5   6
ENDBRANCH   4   5
ENDBRANCH   3   4
ENDBRANCH   2   3
TORSDOF 11
ENDMDL
MODEL       44
REMARK 921   NORMALIZED FREE ENERGY PREDICTED BY IDOCK:   -4.97 KCAL/MOL
REMARK 922        TOTAL FREE ENERGY PREDICTED BY IDOCK:   -9.18 KCAL/MOL
REMARK 923 INTER-LIGAND FREE ENERGY PREDICTED BY IDOCK:   -7.96 KCAL/MOL
REMARK 924 INTRA-LIGAND FREE ENERGY PREDICTED BY IDOCK:   -1.22 KCAL/MOL
REMARK 927      BINDING AFFINITY PREDICTED BY RF-SCORE:    0.00 PKD
ROOT
HETATM    1  C   UNL     1     -10.539   9.402  68.776  1.00  0.00    -0.234 C  
HETATM    2  C   UNL     1     -10.914  10.289  67.601  1.00  0.00    -0.356 C  
ENDROOT
BRANCH   2   3
HETATM    3  C   UNL     1     -10.154   9.886  66.340  1.00  0.00    -0.308 C  
BRANCH   3   4
HETATM    4  C   UNL     1      -9.097  10.919  65.971  1.00  0.00    -0.191 C  
BRANCH   4   5
HETATM    5  O   UNL     1      -9.411  11.441  64.674  1.00  0.00    -0.218 OA 
BRANCH   5   6
HETATM    6  C   UNL     1     -10.186  12.577  64.680  1.00  0.00    -0.290 A  
HETATM    7  C   UNL     1     -11.244  12.627  63.752  1.00  0.00    -0.463 A  
HETATM    8  C   UNL     1     -12.113  13.723  63.772  1.00  0.00    -0.385 A  
HETATM    9  N   UNL     1     -11.559  11.506  62.963  1.00  0.00    -0.856 NA 
HETATM   10  H1  UNL     1     -12.325  11.542  62.291  1.00  0.00     0.000 HD 
HETATM   11  C   UNL     1     -11.857  14.822  64.595  1.00  0.00    -0.442 A  
HETATM   12  H2  UNL     1     -11.717  10.713  63.584  1.00  0.00     0.000 HD 
HETATM   13  C   UNL     1     -10.741  14.815  65.435  1.00  0.00    -0.385 A  
HETATM   14  C   UNL     1      -9.921  13.681  65.491  1.00  0.00    -0.244 A  
BRANCH  13  15
HETATM   15  C   UNL     1     -10.376  16.072  66.142  1.00  0.00    -0.328 C  
HETATM   16  O   UNL     1     -10.309  17.164  65.607  1.00  0.00    -0.557 OA 
BRANCH  15  17
HETATM   17  O   UNL     1      -9.966  15.772  67.398  1.00  0.00    -0.232 OA 
BRANCH  17  18
HETATM   18  C   UNL     1     -10.557  16.580  68.430  1.00  0.00    -0.323 C  
BRANCH  18  19
HETATM   19  C   UNL     1     -11.792  15.814  68.949  1.00  0.00    -0.341 C  
BRANCH  19  20
HETATM   20  N   UNL     1     -11.579  14.870  70.061  1.00  0.00    -0.273 NA 
BRANCH  20  21
HETATM   21  C   UNL     1     -12.552  15.023  71.151  1.00  0.00    -0.348 C  
HETATM   22  C   UNL     1     -12.241  16.096  72.189  1.00  0.00    -0.549 C  
ENDBRANCH  20  21
BRANCH  20  23
HETATM   23  C   UNL     1     -11.486  13.501  69.521  1.00  0.00    -0.255 C  
HETATM   24  C   UNL     1     -12.080  12.426  70.423  1.00  0.00    -0.381 C  
ENDBRANCH  20  23
ENDBRANCH  19  20
ENDBRANCH  18  19
ENDBRANCH  17  18
ENDBRANCH  15  17
ENDBRANCH  13  15
ENDBRANCH   5   6
ENDBRANCH   4   5
ENDBRANCH   3   4
ENDBRANCH   2   3
TORSDOF 11
ENDMDL
MODEL       45
REMARK 921   NORMALIZED FREE ENERGY PREDICTED BY IDOCK:   -4.97 KCAL/MOL
REMARK 922        TOTAL FREE ENERGY PREDICTED BY IDOCK:   -9.17 KCAL/MOL
REMARK 923 INTER-LIGAND FREE ENERGY PREDICTED BY IDOCK:   -8.49 KCAL/MOL
REMARK 924 INTRA-LIGAND FREE ENERGY PREDICTED BY IDOCK:   -0.69 KCAL/MOL
REMARK 927      BINDING AFFINITY PREDICTED BY RF-SCORE:    0.00 PKD
ROOT
HETATM    1  C   UNL     1     -10.626   5.362  66.672  1.00  0.00    -0.359 C  
HETATM    2  C   UNL     1     -10.980   6.762  67.144  1.00  0.00    -0.458 C  
ENDROOT
BRANCH   2   3
HETATM    3  C   UNL     1      -9.858   7.750  66.832  1.00  0.00    -0.305 C  
BRANCH   3   4
HETATM    4  C   UNL     1     -10.394   9.166  66.657  1.00  0.00    -0.218 C  
BRANCH   4   5
HETATM    5  O   UNL     1     -10.734   9.681  67.949  1.00  0.00    -0.251 OA 
BRANCH   5   6
HETATM    6  C   UNL     1     -11.139  10.996  67.960  1.00  0.00    -0.286 A  
HETATM    7  C   UNL     1     -11.457  11.550  69.214  1.00  0.00    -0.305 A  
HETATM    8  C   UNL     1     -11.792  12.906  69.291  1.00  0.00    -0.363 A  
HETATM    9  N   UNL     1     -11.234  10.823  70.397  1.00  0.00    -0.448 NA 
HETATM   10  H1  UNL     1     -11.464  11.224  71.306  1.00  0.00     0.000 HD 
HETATM   11  C   UNL     1     -11.957  13.667  68.132  1.00  0.00    -0.390 A  
HETATM   12  H2  UNL     1     -10.256  10.534  70.415  1.00  0.00     0.000 HD 
HETATM   13  C   UNL     1     -11.748  13.081  66.881  1.00  0.00    -0.441 A  
HETATM   14  C   UNL     1     -11.317  11.751  66.801  1.00  0.00    -0.385 A  
BRANCH  13  15
HETATM   15  C   UNL     1     -12.129  13.848  65.664  1.00  0.00    -0.421 C  
HETATM   16  O   UNL     1     -13.270  13.950  65.248  1.00  0.00    -0.774 OA 
BRANCH  15  17
HETATM   17  O   UNL     1     -11.006  14.245  65.020  1.00  0.00    -0.344 OA 
BRANCH  17  18
HETATM   18  C   UNL     1     -10.807  15.669  64.988  1.00  0.00    -0.450 C  
BRANCH  18  19
HETATM   19  C   UNL     1      -9.631  15.980  65.938  1.00  0.00    -0.335 C  
BRANCH  19  20
HETATM   20  N   UNL     1      -9.333  17.400  66.196  1.00  0.00    -0.464 NA 
BRANCH  20  21
HETATM   21  C   UNL     1     -10.379  18.086  66.967  1.00  0.00    -0.369 C  
HETATM   22  C   UNL     1     -10.258  19.603  67.071  1.00  0.00    -0.559 C  
ENDBRANCH  20  21
BRANCH  20  23
HETATM   23  C   UNL     1      -7.982  17.513  66.777  1.00  0.00    -0.241 C  
HETATM   24  C   UNL     1      -6.936  18.093  65.833  1.00  0.00    -0.319 C  
ENDBRANCH  20  23
ENDBRANCH  19  20
ENDBRANCH  18  19
ENDBRANCH  17  18
ENDBRANCH  15  17
ENDBRANCH  13  15
ENDBRANCH   5   6
ENDBRANCH   4   5
ENDBRANCH   3   4
ENDBRANCH   2   3
TORSDOF 11
ENDMDL
MODEL       46
REMARK 921   NORMALIZED FREE ENERGY PREDICTED BY IDOCK:   -4.96 KCAL/MOL
REMARK 922        TOTAL FREE ENERGY PREDICTED BY IDOCK:   -9.17 KCAL/MOL
REMARK 923 INTER-LIGAND FREE ENERGY PREDICTED BY IDOCK:   -8.25 KCAL/MOL
REMARK 924 INTRA-LIGAND FREE ENERGY PREDICTED BY IDOCK:   -0.92 KCAL/MOL
REMARK 927      BINDING AFFINITY PREDICTED BY RF-SCORE:    0.00 PKD
ROOT
HETATM    1  C   UNL     1     -12.423  11.182  71.194  1.00  0.00    -0.498 C  
HETATM    2  C   UNL     1     -11.710  11.702  69.957  1.00  0.00    -0.402 C  
ENDROOT
BRANCH   2   3
HETATM    3  C   UNL     1     -11.879  10.745  68.779  1.00  0.00    -0.250 C  
BRANCH   3   4
HETATM    4  C   UNL     1     -11.234  11.298  67.514  1.00  0.00    -0.291 C  
BRANCH   4   5
HETATM    5  O   UNL     1     -12.243  11.969  66.750  1.00  0.00    -0.545 OA 
BRANCH   5   6
HETATM    6  C   UNL     1     -11.864  13.184  66.230  1.00  0.00    -0.401 A  
HETATM    7  C   UNL     1     -12.206  13.433  64.887  1.00  0.00    -0.408 A  
HETATM    8  C   UNL     1     -11.918  14.686  64.335  1.00  0.00    -0.454 A  
HETATM    9  N   UNL     1     -13.014  12.530  64.174  1.00  0.00    -0.761 NA 
HETATM   10  H1  UNL     1     -13.262  12.710  63.201  1.00  0.00     0.000 HD 
HETATM   11  C   UNL     1     -11.171  15.626  65.049  1.00  0.00    -0.335 A  
HETATM   12  H2  UNL     1     -13.875  12.387  64.701  1.00  0.00     0.000 HD 
HETATM   13  C   UNL     1     -10.737  15.330  66.344  1.00  0.00    -0.318 A  
HETATM   14  C   UNL     1     -11.105  14.116  66.938  1.00  0.00    -0.312 A  
BRANCH  13  15
HETATM   15  C   UNL     1      -9.775  16.255  67.000  1.00  0.00    -0.239 C  
HETATM   16  O   UNL     1      -9.830  16.582  68.172  1.00  0.00    -0.235 OA 
BRANCH  15  17
HETATM   17  O   UNL     1      -8.965  16.795  66.057  1.00  0.00    -0.437 OA 
BRANCH  17  18
HETATM   18  C   UNL     1      -7.601  16.977  66.474  1.00  0.00    -0.291 C  
BRANCH  18  19
HETATM   19  C   UNL     1      -7.342  18.497  66.515  1.00  0.00    -0.232 C  
BRANCH  19  20
HETATM   20  N   UNL     1      -7.958  19.255  67.619  1.00  0.00    -0.273 NA 
BRANCH  20  21
HETATM   21  C   UNL     1      -7.014  19.593  68.693  1.00  0.00    -0.326 C  
HETATM   22  C   UNL     1      -5.964  20.649  68.362  1.00  0.00    -0.368 C  
ENDBRANCH  20  21
BRANCH  20  23
HETATM   23  C   UNL     1      -8.683  20.413  67.065  1.00  0.00    -0.287 C  
HETATM   24  C   UNL     1     -10.131  20.127  66.685  1.00  0.00    -0.584 C  
ENDBRANCH  20  23
ENDBRANCH  19  20
ENDBRANCH  18  19
ENDBRANCH  17  18
ENDBRANCH  15  17
ENDBRANCH  13  15
ENDBRANCH   5   6
ENDBRANCH   4   5
ENDBRANCH   3   4
ENDBRANCH   2   3
TORSDOF 11
ENDMDL
MODEL       47
REMARK 921   NORMALIZED FREE ENERGY PREDICTED BY IDOCK:   -4.95 KCAL/MOL
REMARK 922        TOTAL FREE ENERGY PREDICTED BY IDOCK:   -9.15 KCAL/MOL
REMARK 923 INTER-LIGAND FREE ENERGY PREDICTED BY IDOCK:   -8.25 KCAL/MOL
REMARK 924 INTRA-LIGAND FREE ENERGY PREDICTED BY IDOCK:   -0.90 KCAL/MOL
REMARK 927      BINDING AFFINITY PREDICTED BY RF-SCORE:    0.00 PKD
ROOT
HETATM    1  C   UNL     1     -12.345   6.597  71.664  1.00  0.00    -0.382 C  
HETATM    2  C   UNL     1     -13.716   7.161  71.331  1.00  0.00    -0.364 C  
ENDROOT
BRANCH   2   3
HETATM    3  C   UNL     1     -13.895   8.560  71.915  1.00  0.00    -0.473 C  
BRANCH   3   4
HETATM    4  C   UNL     1     -12.756   9.486  71.505  1.00  0.00    -0.372 C  
BRANCH   4   5
HETATM    5  O   UNL     1     -13.019  10.788  72.040  1.00  0.00    -0.463 OA 
BRANCH   5   6
HETATM    6  C   UNL     1     -12.717  11.832  71.196  1.00  0.00    -0.305 A  
HETATM    7  C   UNL     1     -13.126  13.115  71.605  1.00  0.00    -0.353 A  
HETATM    8  C   UNL     1     -12.771  14.221  70.826  1.00  0.00    -0.419 A  
HETATM    9  N   UNL     1     -13.691  13.316  72.878  1.00  0.00    -0.626 NA 
HETATM   10  H1  UNL     1     -13.987  14.246  73.174  1.00  0.00     0.000 HD 
HETATM   11  C   UNL     1     -12.151  14.051  69.586  1.00  0.00    -0.408 A  
HETATM   12  H2  UNL     1     -13.043  12.950  73.576  1.00  0.00     0.000 HD 
HETATM   13  C   UNL     1     -11.847  12.765  69.133  1.00  0.00    -0.352 A  
HETATM   14  C   UNL     1     -12.111  11.660  69.951  1.00  0.00    -0.373 A  
BRANCH  13  15
HETATM   15  C   UNL     1     -11.380  12.597  67.730  1.00  0.00    -0.297 C  
HETATM   16  O   UNL     1     -11.913  11.867  66.914  1.00  0.00    -0.614 OA 
BRANCH  15  17
HETATM   17  O   UNL     1     -10.194  13.233  67.578  1.00  0.00    -0.220 OA 
BRANCH  17  18
HETATM   18  C   UNL     1     -10.050  13.940  66.334  1.00  0.00    -0.295 C  
BRANCH  18  19
HETATM   19  C   UNL     1     -10.824  15.267  66.478  1.00  0.00    -0.311 C  
BRANCH  19  20
HETATM   20  N   UNL     1     -10.051  16.455  66.881  1.00  0.00    -0.274 NA 
BRANCH  20  21
HETATM   21  C   UNL     1     -10.381  17.658  66.104  1.00  0.00    -0.334 C  
HETATM   22  C   UNL     1     -10.619  18.935  66.903  1.00  0.00    -0.495 C  
ENDBRANCH  20  21
BRANCH  20  23
HETATM   23  C   UNL     1     -10.160  16.631  68.341  1.00  0.00    -0.268 C  
HETATM   24  C   UNL     1      -8.976  16.086  69.132  1.00  0.00    -0.252 C  
ENDBRANCH  20  23
ENDBRANCH  19  20
ENDBRANCH  18  19
ENDBRANCH  17  18
ENDBRANCH  15  17
ENDBRANCH  13  15
ENDBRANCH   5   6
ENDBRANCH   4   5
ENDBRANCH   3   4
ENDBRANCH   2   3
TORSDOF 11
ENDMDL
MODEL       48
REMARK 921   NORMALIZED FREE ENERGY PREDICTED BY IDOCK:   -4.95 KCAL/MOL
REMARK 922        TOTAL FREE ENERGY PREDICTED BY IDOCK:   -9.15 KCAL/MOL
REMARK 923 INTER-LIGAND FREE ENERGY PREDICTED BY IDOCK:   -8.37 KCAL/MOL
REMARK 924 INTRA-LIGAND FREE ENERGY PREDICTED BY IDOCK:   -0.78 KCAL/MOL
REMARK 927      BINDING AFFINITY PREDICTED BY RF-SCORE:    0.00 PKD
ROOT
HETATM    1  C   UNL     1     -10.237  20.037  66.281  1.00  0.00    -0.595 C  
HETATM    2  C   UNL     1     -10.421  18.528  66.283  1.00  0.00    -0.441 C  
ENDROOT
BRANCH   2   3
HETATM    3  C   UNL     1      -9.550  17.868  67.350  1.00  0.00    -0.271 C  
BRANCH   3   4
HETATM    4  C   UNL     1      -9.097  16.479  66.918  1.00  0.00    -0.220 C  
BRANCH   4   5
HETATM    5  O   UNL     1      -9.645  16.209  65.623  1.00  0.00    -0.424 OA 
BRANCH   5   6
HETATM    6  C   UNL     1     -10.480  15.118  65.563  1.00  0.00    -0.379 A  
HETATM    7  C   UNL     1     -11.551  15.189  64.651  1.00  0.00    -0.357 A  
HETATM    8  C   UNL     1     -12.381  14.075  64.491  1.00  0.00    -0.409 A  
HETATM    9  N   UNL     1     -11.661  16.271  63.758  1.00  0.00    -1.488 NA 
HETATM   10  H1  UNL     1     -12.436  16.322  63.098  1.00  0.00     0.000 HD 
HETATM   11  C   UNL     1     -12.249  12.961  65.324  1.00  0.00    -0.524 A  
HETATM   12  H2  UNL     1     -10.790  16.342  63.234  1.00  0.00     0.000 HD 
HETATM   13  C   UNL     1     -11.254  12.941  66.304  1.00  0.00    -0.337 A  
HETATM   14  C   UNL     1     -10.358  14.013  66.405  1.00  0.00    -0.289 A  
BRANCH  13  15
HETATM   15  C   UNL     1     -11.267  11.843  67.307  1.00  0.00    -0.317 C  
HETATM   16  O   UNL     1     -12.142  11.686  68.140  1.00  0.00    -0.577 OA 
BRANCH  15  17
HETATM   17  O   UNL     1     -10.086  11.181  67.255  1.00  0.00    -0.181 OA 
BRANCH  17  18
HETATM   18  C   UNL     1     -10.194   9.754  67.399  1.00  0.00    -0.230 C  
BRANCH  18  19
HETATM   19  C   UNL     1      -9.124   9.324  68.424  1.00  0.00    -0.128 C  
BRANCH  19  20
HETATM   20  N   UNL     1      -9.599   8.683  69.664  1.00  0.00    -0.169 NA 
BRANCH  20  21
HETATM   21  C   UNL     1     -10.217   9.625  70.608  1.00  0.00    -0.278 C  
HETATM   22  C   UNL     1     -11.503   9.159  71.282  1.00  0.00    -0.405 C  
ENDBRANCH  20  21
BRANCH  20  23
HETATM   23  C   UNL     1     -10.451   7.530  69.316  1.00  0.00    -0.214 C  
HETATM   24  C   UNL     1      -9.696   6.344  68.728  1.00  0.00    -0.135 C  
ENDBRANCH  20  23
ENDBRANCH  19  20
ENDBRANCH  18  19
ENDBRANCH  17  18
ENDBRANCH  15  17
ENDBRANCH  13  15
ENDBRANCH   5   6
ENDBRANCH   4   5
ENDBRANCH   3   4
ENDBRANCH   2   3
TORSDOF 11
ENDMDL
MODEL       49
REMARK 921   NORMALIZED FREE ENERGY PREDICTED BY IDOCK:   -4.93 KCAL/MOL
REMARK 922        TOTAL FREE ENERGY PREDICTED BY IDOCK:   -9.12 KCAL/MOL
REMARK 923 INTER-LIGAND FREE ENERGY PREDICTED BY IDOCK:   -8.29 KCAL/MOL
REMARK 924 INTRA-LIGAND FREE ENERGY PREDICTED BY IDOCK:   -0.83 KCAL/MOL
REMARK 927      BINDING AFFINITY PREDICTED BY RF-SCORE:    0.00 PKD
ROOT
HETATM    1  C   UNL     1     -10.007  10.974  64.048  1.00  0.00    -0.390 C  
HETATM    2  C   UNL     1     -10.754  12.135  63.414  1.00  0.00    -0.461 C  
ENDROOT
BRANCH   2   3
HETATM    3  C   UNL     1     -12.260  11.884  63.403  1.00  0.00    -0.561 C  
BRANCH   3   4
HETATM    4  C   UNL     1     -12.970  12.704  64.472  1.00  0.00    -0.146 C  
BRANCH   4   5
HETATM    5  O   UNL     1     -12.364  14.001  64.522  1.00  0.00    -0.525 OA 
BRANCH   5   6
HETATM    6  C   UNL     1     -11.934  14.391  65.768  1.00  0.00    -0.357 A  
HETATM    7  C   UNL     1     -11.037  15.476  65.818  1.00  0.00    -0.217 A  
HETATM    8  C   UNL     1     -10.635  15.967  67.065  1.00  0.00    -0.306 A  
HETATM    9  N   UNL     1     -10.717  16.195  64.653  1.00  0.00    -0.821 NA 
HETATM   10  H1  UNL     1     -10.068  16.981  64.689  1.00  0.00     0.000 HD 
HETATM   11  C   UNL     1     -10.994  15.306  68.241  1.00  0.00    -0.276 A  
HETATM   12  H2  UNL     1     -11.586  16.520  64.229  1.00  0.00     0.000 HD 
HETATM   13  C   UNL     1     -11.794  14.163  68.180  1.00  0.00    -0.387 A  
HETATM   14  C   UNL     1     -12.281  13.723  66.942  1.00  0.00    -0.408 A  
BRANCH  13  15
HETATM   15  C   UNL     1     -11.989  13.363  69.419  1.00  0.00    -0.315 C  
HETATM   16  O   UNL     1     -12.575  13.765  70.408  1.00  0.00    -0.314 OA 
BRANCH  15  17
HETATM   17  O   UNL     1     -11.267  12.220  69.327  1.00  0.00    -0.246 OA 
BRANCH  17  18
HETATM   18  C   UNL     1     -12.017  11.018  69.571  1.00  0.00    -0.342 C  
BRANCH  18  19
HETATM   19  C   UNL     1     -11.154  10.128  70.489  1.00  0.00    -0.327 C  
BRANCH  19  20
HETATM   20  N   UNL     1     -11.715   9.776  71.806  1.00  0.00    -0.314 NA 
BRANCH  20  21
HETATM   21  C   UNL     1     -13.151  10.064  71.925  1.00  0.00    -0.460 C  
HETATM   22  C   UNL     1     -14.056   8.874  72.226  1.00  0.00    -0.512 C  
ENDBRANCH  20  21
BRANCH  20  23
HETATM   23  C   UNL     1     -11.348   8.385  72.132  1.00  0.00    -0.366 C  
HETATM   24  C   UNL     1     -10.760   7.599  70.966  1.00  0.00    -0.239 C  
ENDBRANCH  20  23
ENDBRANCH  19  20
ENDBRANCH  18  19
ENDBRANCH  17  18
ENDBRANCH  15  17
ENDBRANCH  13  15
ENDBRANCH   5   6
ENDBRANCH   4   5
ENDBRANCH   3   4
ENDBRANCH   2   3
TORSDOF 11
ENDMDL
MODEL       50
REMARK 921   NORMALIZED FREE ENERGY PREDICTED BY IDOCK:   -4.93 KCAL/MOL
REMARK 922        TOTAL FREE ENERGY PREDICTED BY IDOCK:   -9.10 KCAL/MOL
REMARK 923 INTER-LIGAND FREE ENERGY PREDICTED BY IDOCK:   -8.07 KCAL/MOL
REMARK 924 INTRA-LIGAND FREE ENERGY PREDICTED BY IDOCK:   -1.04 KCAL/MOL
REMARK 927      BINDING AFFINITY PREDICTED BY RF-SCORE:    0.00 PKD
ROOT
HETATM    1  C   UNL     1     -14.149  13.921  72.133  1.00  0.00    -0.630 C  
HETATM    2  C   UNL     1     -13.790  15.380  71.901  1.00  0.00    -0.619 C  
ENDROOT
BRANCH   2   3
HETATM    3  C   UNL     1     -12.302  15.627  72.138  1.00  0.00    -0.517 C  
BRANCH   3   4
HETATM    4  C   UNL     1     -11.468  15.209  70.934  1.00  0.00    -0.323 C  
BRANCH   4   5
HETATM    5  O   UNL     1     -12.112  15.695  69.750  1.00  0.00    -0.361 OA 
BRANCH   5   6
HETATM    6  C   UNL     1     -11.534  15.289  68.569  1.00  0.00    -0.342 A  
HETATM    7  C   UNL     1     -10.852  16.272  67.828  1.00  0.00    -0.315 A  
HETATM    8  C   UNL     1     -10.175  15.895  66.663  1.00  0.00    -0.293 A  
HETATM    9  N   UNL     1     -10.664  17.564  68.351  1.00  0.00    -0.328 NA 
HETATM   10  H1  UNL     1     -10.170  18.276  67.814  1.00  0.00     0.000 HD 
HETATM   11  C   UNL     1     -10.294  14.599  66.157  1.00  0.00    -0.309 A  
HETATM   12  H2  UNL     1     -10.209  17.477  69.260  1.00  0.00     0.000 HD 
HETATM   13  C   UNL     1     -11.065  13.655  66.839  1.00  0.00    -0.314 A  
HETATM   14  C   UNL     1     -11.665  13.999  68.057  1.00  0.00    -0.394 A  
BRANCH  13  15
HETATM   15  C   UNL     1     -11.345  12.352  66.177  1.00  0.00    -0.352 C  
HETATM   16  O   UNL     1     -12.345  12.117  65.523  1.00  0.00    -0.548 OA 
BRANCH  15  17
HETATM   17  O   UNL     1     -10.414  11.448  66.567  1.00  0.00    -0.231 OA 
BRANCH  17  18
HETATM   18  C   UNL     1     -10.925  10.378  67.380  1.00  0.00    -0.270 C  
BRANCH  18  19
HETATM   19  C   UNL     1     -10.380  10.599  68.807  1.00  0.00    -0.193 C  
BRANCH  19  20
HETATM   20  N   UNL     1     -11.145  10.005  69.918  1.00  0.00    -0.270 NA 
BRANCH  20  21
HETATM   21  C   UNL     1     -10.297   9.395  70.952  1.00  0.00    -0.310 C  
HETATM   22  C   UNL     1      -9.794   7.984  70.667  1.00  0.00    -0.192 C  
ENDBRANCH  20  21
BRANCH  20  23
HETATM   23  C   UNL     1     -12.102  11.003  70.433  1.00  0.00    -0.373 C  
HETATM   24  C   UNL     1     -12.868  10.559  71.673  1.00  0.00    -0.581 C  
ENDBRANCH  20  23
ENDBRANCH  19  20
ENDBRANCH  18  19
ENDBRANCH  17  18
ENDBRANCH  15  17
ENDBRANCH  13  15
ENDBRANCH   5   6
ENDBRANCH   4   5
ENDBRANCH   3   4
ENDBRANCH   2   3
TORSDOF 11
ENDMDL
MODEL       51
REMARK 921   NORMALIZED FREE ENERGY PREDICTED BY IDOCK:   -4.92 KCAL/MOL
REMARK 922        TOTAL FREE ENERGY PREDICTED BY IDOCK:   -9.10 KCAL/MOL
REMARK 923 INTER-LIGAND FREE ENERGY PREDICTED BY IDOCK:   -8.39 KCAL/MOL
REMARK 924 INTRA-LIGAND FREE ENERGY PREDICTED BY IDOCK:   -0.71 KCAL/MOL
REMARK 927      BINDING AFFINITY PREDICTED BY RF-SCORE:    0.00 PKD
ROOT
HETATM    1  C   UNL     1     -12.313   9.940  71.445  1.00  0.00    -0.498 C  
HETATM    2  C   UNL     1     -10.939   9.290  71.457  1.00  0.00    -0.446 C  
ENDROOT
BRANCH   2   3
HETATM    3  C   UNL     1     -10.100   9.749  70.267  1.00  0.00    -0.323 C  
BRANCH   3   4
HETATM    4  C   UNL     1     -10.977  10.216  69.112  1.00  0.00    -0.230 C  
BRANCH   4   5
HETATM    5  O   UNL     1     -10.377   9.783  67.886  1.00  0.00    -0.185 OA 
BRANCH   5   6
HETATM    6  C   UNL     1     -10.666  10.565  66.792  1.00  0.00    -0.188 A  
HETATM    7  C   UNL     1     -10.080  10.185  65.570  1.00  0.00    -0.268 A  
HETATM    8  C   UNL     1     -10.409  10.896  64.410  1.00  0.00    -0.430 A  
HETATM    9  N   UNL     1      -9.351   8.987  65.465  1.00  0.00    -0.379 NA 
HETATM   10  H1  UNL     1      -8.927   8.712  64.580  1.00  0.00     0.000 HD 
HETATM   11  C   UNL     1     -11.185  12.055  64.480  1.00  0.00    -0.390 A  
HETATM   12  H2  UNL     1      -9.946   8.223  65.785  1.00  0.00     0.000 HD 
HETATM   13  C   UNL     1     -11.674  12.491  65.714  1.00  0.00    -0.478 A  
HETATM   14  C   UNL     1     -11.430  11.730  66.865  1.00  0.00    -0.364 A  
BRANCH  13  15
HETATM   15  C   UNL     1     -12.318  13.830  65.791  1.00  0.00    -0.486 C  
HETATM   16  O   UNL     1     -13.370  14.116  65.248  1.00  0.00    -0.715 OA 
BRANCH  15  17
HETATM   17  O   UNL     1     -11.469  14.696  66.395  1.00  0.00    -0.349 OA 
BRANCH  17  18
HETATM   18  C   UNL     1     -10.837  15.632  65.506  1.00  0.00    -0.346 C  
BRANCH  18  19
HETATM   19  C   UNL     1      -9.421  15.893  66.060  1.00  0.00    -0.354 C  
BRANCH  19  20
HETATM   20  N   UNL     1      -8.940  17.287  66.046  1.00  0.00    -0.520 NA 
BRANCH  20  21
HETATM   21  C   UNL     1      -9.694  18.174  66.943  1.00  0.00    -0.318 C  
HETATM   22  C   UNL     1     -10.604  19.198  66.272  1.00  0.00    -0.521 C  
ENDBRANCH  20  21
BRANCH  20  23
HETATM   23  C   UNL     1      -7.483  17.297  66.271  1.00  0.00    -0.319 C  
HETATM   24  C   UNL     1      -6.831  18.666  66.117  1.00  0.00    -0.279 C  
ENDBRANCH  20  23
ENDBRANCH  19  20
ENDBRANCH  18  19
ENDBRANCH  17  18
ENDBRANCH  15  17
ENDBRANCH  13  15
ENDBRANCH   5   6
ENDBRANCH   4   5
ENDBRANCH   3   4
ENDBRANCH   2   3
TORSDOF 11
ENDMDL
MODEL       52
REMARK 921   NORMALIZED FREE ENERGY PREDICTED BY IDOCK:   -4.91 KCAL/MOL
REMARK 922        TOTAL FREE ENERGY PREDICTED BY IDOCK:   -9.08 KCAL/MOL
REMARK 923 INTER-LIGAND FREE ENERGY PREDICTED BY IDOCK:   -7.98 KCAL/MOL
REMARK 924 INTRA-LIGAND FREE ENERGY PREDICTED BY IDOCK:   -1.10 KCAL/MOL
REMARK 927      BINDING AFFINITY PREDICTED BY RF-SCORE:    0.00 PKD
ROOT
HETATM    1  C   UNL     1     -12.157  12.803  63.258  1.00  0.00    -0.524 C  
HETATM    2  C   UNL     1     -11.302  12.216  64.369  1.00  0.00    -0.407 C  
ENDROOT
BRANCH   2   3
HETATM    3  C   UNL     1     -12.046  12.226  65.703  1.00  0.00    -0.306 C  
BRANCH   3   4
HETATM    4  C   UNL     1     -11.091  12.424  66.873  1.00  0.00    -0.287 C  
BRANCH   4   5
HETATM    5  O   UNL     1     -11.811  13.055  67.939  1.00  0.00    -0.344 OA 
BRANCH   5   6
HETATM    6  C   UNL     1     -11.417  14.342  68.221  1.00  0.00    -0.305 A  
HETATM    7  C   UNL     1     -11.443  14.730  69.574  1.00  0.00    -0.298 A  
HETATM    8  C   UNL     1     -10.972  16.000  69.925  1.00  0.00    -0.353 A  
HETATM    9  N   UNL     1     -11.728  13.793  70.584  1.00  0.00    -0.527 NA 
HETATM   10  H1  UNL     1     -11.747  14.074  71.564  1.00  0.00     0.000 HD 
HETATM   11  C   UNL     1     -10.621  16.927  68.941  1.00  0.00    -0.353 A  
HETATM   12  H2  UNL     1     -11.078  13.013  70.488  1.00  0.00     0.000 HD 
HETATM   13  C   UNL     1     -10.703  16.574  67.592  1.00  0.00    -0.311 A  
HETATM   14  C   UNL     1     -11.080  15.273  67.238  1.00  0.00    -0.325 A  
BRANCH  13  15
HETATM   15  C   UNL     1     -10.525  17.637  66.567  1.00  0.00    -0.283 C  
HETATM   16  O   UNL     1     -10.173  17.429  65.419  1.00  0.00    -0.603 OA 
BRANCH  15  17
HETATM   17  O   UNL     1     -10.640  18.850  67.160  1.00  0.00    -0.422 OA 
BRANCH  17  18
HETATM   18  C   UNL     1      -9.974  19.919  66.467  1.00  0.00    -0.474 C  
BRANCH  18  19
HETATM   19  C   UNL     1      -8.956  20.529  67.453  1.00  0.00    -0.297 C  
BRANCH  19  20
HETATM   20  N   UNL     1      -7.577  20.011  67.401  1.00  0.00    -0.269 NA 
BRANCH  20  21
HETATM   21  C   UNL     1      -7.247  19.113  68.517  1.00  0.00    -0.306 C  
HETATM   22  C   UNL     1      -6.514  19.743  69.697  1.00  0.00    -0.389 C  
ENDBRANCH  20  21
BRANCH  20  23
HETATM   23  C   UNL     1      -7.327  19.434  66.067  1.00  0.00    -0.290 C  
HETATM   24  C   UNL     1      -6.822  17.997  66.087  1.00  0.00    -0.312 C  
ENDBRANCH  20  23
ENDBRANCH  19  20
ENDBRANCH  18  19
ENDBRANCH  17  18
ENDBRANCH  15  17
ENDBRANCH  13  15
ENDBRANCH   5   6
ENDBRANCH   4   5
ENDBRANCH   3   4
ENDBRANCH   2   3
TORSDOF 11
ENDMDL
MODEL       53
REMARK 921   NORMALIZED FREE ENERGY PREDICTED BY IDOCK:   -4.91 KCAL/MOL
REMARK 922        TOTAL FREE ENERGY PREDICTED BY IDOCK:   -9.08 KCAL/MOL
REMARK 923 INTER-LIGAND FREE ENERGY PREDICTED BY IDOCK:   -8.19 KCAL/MOL
REMARK 924 INTRA-LIGAND FREE ENERGY PREDICTED BY IDOCK:   -0.90 KCAL/MOL
REMARK 927      BINDING AFFINITY PREDICTED BY RF-SCORE:    0.00 PKD
ROOT
HETATM    1  C   UNL     1      -9.315  10.143  63.500  1.00  0.00    -0.333 C  
HETATM    2  C   UNL     1     -10.269  10.930  64.384  1.00  0.00    -0.423 C  
ENDROOT
BRANCH   2   3
HETATM    3  C   UNL     1     -11.157  11.854  63.553  1.00  0.00    -0.506 C  
BRANCH   3   4
HETATM    4  C   UNL     1     -12.111  12.650  64.434  1.00  0.00    -0.415 C  
BRANCH   4   5
HETATM    5  O   UNL     1     -12.152  12.033  65.727  1.00  0.00    -0.536 OA 
BRANCH   5   6
HETATM    6  C   UNL     1     -11.709  12.826  66.760  1.00  0.00    -0.392 A  
HETATM    7  C   UNL     1     -11.755  12.267  68.051  1.00  0.00    -0.356 A  
HETATM    8  C   UNL     1     -11.239  12.998  69.126  1.00  0.00    -0.297 A  
HETATM    9  N   UNL     1     -12.109  10.918  68.237  1.00  0.00    -0.810 NA 
HETATM   10  H1  UNL     1     -12.142  10.513  69.172  1.00  0.00     0.000 HD 
HETATM   11  C   UNL     1     -10.820  14.319  68.954  1.00  0.00    -0.272 A  
HETATM   12  H2  UNL     1     -11.492  10.344  67.662  1.00  0.00     0.000 HD 
HETATM   13  C   UNL     1     -10.881  14.908  67.689  1.00  0.00    -0.286 A  
HETATM   14  C   UNL     1     -11.305  14.150  66.591  1.00  0.00    -0.352 A  
BRANCH  13  15
HETATM   15  C   UNL     1     -10.628  16.370  67.572  1.00  0.00    -0.309 C  
HETATM   16  O   UNL     1     -11.169  17.216  68.263  1.00  0.00    -0.229 OA 
BRANCH  15  17
HETATM   17  O   UNL     1      -9.860  16.601  66.481  1.00  0.00    -0.253 OA 
BRANCH  17  18
HETATM   18  C   UNL     1      -8.491  16.931  66.772  1.00  0.00    -0.234 C  
BRANCH  18  19
HETATM   19  C   UNL     1      -8.247  18.356  66.234  1.00  0.00    -0.219 C  
BRANCH  19  20
HETATM   20  N   UNL     1      -8.381  19.468  67.192  1.00  0.00    -0.281 NA 
BRANCH  20  21
HETATM   21  C   UNL     1      -9.644  20.207  67.058  1.00  0.00    -0.424 C  
HETATM   22  C   UNL     1     -10.540  19.806  65.890  1.00  0.00    -0.557 C  
ENDBRANCH  20  21
BRANCH  20  23
HETATM   23  C   UNL     1      -8.115  18.967  68.554  1.00  0.00    -0.350 C  
HETATM   24  C   UNL     1      -6.702  19.232  69.058  1.00  0.00    -0.351 C  
ENDBRANCH  20  23
ENDBRANCH  19  20
ENDBRANCH  18  19
ENDBRANCH  17  18
ENDBRANCH  15  17
ENDBRANCH  13  15
ENDBRANCH   5   6
ENDBRANCH   4   5
ENDBRANCH   3   4
ENDBRANCH   2   3
TORSDOF 11
ENDMDL
MODEL       54
REMARK 921   NORMALIZED FREE ENERGY PREDICTED BY IDOCK:   -4.91 KCAL/MOL
REMARK 922        TOTAL FREE ENERGY PREDICTED BY IDOCK:   -9.07 KCAL/MOL
REMARK 923 INTER-LIGAND FREE ENERGY PREDICTED BY IDOCK:   -8.52 KCAL/MOL
REMARK 924 INTRA-LIGAND FREE ENERGY PREDICTED BY IDOCK:   -0.55 KCAL/MOL
REMARK 927      BINDING AFFINITY PREDICTED BY RF-SCORE:    0.00 PKD
ROOT
HETATM    1  C   UNL     1      -9.442  10.806  63.905  1.00  0.00    -0.312 C  
HETATM    2  C   UNL     1     -10.352  11.618  62.999  1.00  0.00    -0.284 C  
ENDROOT
BRANCH   2   3
HETATM    3  C   UNL     1     -11.702  11.880  63.663  1.00  0.00    -0.572 C  
BRANCH   3   4
HETATM    4  C   UNL     1     -12.292  13.214  63.221  1.00  0.00    -0.283 C  
BRANCH   4   5
HETATM    5  O   UNL     1     -12.649  13.958  64.392  1.00  0.00    -0.647 OA 
BRANCH   5   6
HETATM    6  C   UNL     1     -11.590  14.326  65.188  1.00  0.00    -0.355 A  
HETATM    7  C   UNL     1     -10.957  15.545  64.878  1.00  0.00    -0.436 A  
HETATM    8  C   UNL     1      -9.929  16.006  65.708  1.00  0.00    -0.382 A  
HETATM    9  N   UNL     1     -11.482  16.393  63.886  1.00  0.00    -1.618 NA 
HETATM   10  H1  UNL     1     -11.023  17.275  63.661  1.00  0.00     0.000 HD 
HETATM   11  C   UNL     1      -9.434  15.208  66.741  1.00  0.00    -0.260 A  
HETATM   12  H2  UNL     1     -12.455  16.589  64.117  1.00  0.00     0.000 HD 
HETATM   13  C   UNL     1      -9.993  13.949  66.975  1.00  0.00    -0.258 A  
HETATM   14  C   UNL     1     -11.086  13.522  66.211  1.00  0.00    -0.308 A  
BRANCH  13  15
HETATM   15  C   UNL     1      -9.316  13.039  67.938  1.00  0.00    -0.212 C  
HETATM   16  O   UNL     1      -8.364  13.357  68.628  1.00  0.00    -0.117 OA 
BRANCH  15  17
HETATM   17  O   UNL     1      -9.809  11.786  67.785  1.00  0.00    -0.175 OA 
BRANCH  17  18
HETATM   18  C   UNL     1     -10.168  11.131  69.014  1.00  0.00    -0.176 C  
BRANCH  18  19
HETATM   19  C   UNL     1     -11.708  11.165  69.109  1.00  0.00    -0.338 C  
BRANCH  19  20
HETATM   20  N   UNL     1     -12.312  10.758  70.390  1.00  0.00    -0.330 NA 
BRANCH  20  21
HETATM   21  C   UNL     1     -11.457   9.861  71.180  1.00  0.00    -0.383 C  
HETATM   22  C   UNL     1     -12.136   8.633  71.777  1.00  0.00    -0.403 C  
ENDBRANCH  20  21
BRANCH  20  23
HETATM   23  C   UNL     1     -12.759  11.961  71.117  1.00  0.00    -0.284 C  
HETATM   24  C   UNL     1     -12.355  13.278  70.465  1.00  0.00    -0.389 C  
ENDBRANCH  20  23
ENDBRANCH  19  20
ENDBRANCH  18  19
ENDBRANCH  17  18
ENDBRANCH  15  17
ENDBRANCH  13  15
ENDBRANCH   5   6
ENDBRANCH   4   5
ENDBRANCH   3   4
ENDBRANCH   2   3
TORSDOF 11
ENDMDL
MODEL       55
REMARK 921   NORMALIZED FREE ENERGY PREDICTED BY IDOCK:   -4.90 KCAL/MOL
REMARK 922        TOTAL FREE ENERGY PREDICTED BY IDOCK:   -9.07 KCAL/MOL
REMARK 923 INTER-LIGAND FREE ENERGY PREDICTED BY IDOCK:   -8.30 KCAL/MOL
REMARK 924 INTRA-LIGAND FREE ENERGY PREDICTED BY IDOCK:   -0.76 KCAL/MOL
REMARK 927      BINDING AFFINITY PREDICTED BY RF-SCORE:    0.00 PKD
ROOT
HETATM    1  C   UNL     1     -11.764  12.348  65.151  1.00  0.00    -0.430 C  
HETATM    2  C   UNL     1     -12.186  13.806  65.076  1.00  0.00    -0.448 C  
ENDROOT
BRANCH   2   3
HETATM    3  C   UNL     1     -12.223  14.443  66.463  1.00  0.00    -0.358 C  
BRANCH   3   4
HETATM    4  C   UNL     1     -11.782  13.460  67.540  1.00  0.00    -0.366 C  
BRANCH   4   5
HETATM    5  O   UNL     1     -11.613  14.181  68.766  1.00  0.00    -0.285 OA 
BRANCH   5   6
HETATM    6  C   UNL     1     -12.213  13.606  69.863  1.00  0.00    -0.304 A  
HETATM    7  C   UNL     1     -12.835  14.480  70.775  1.00  0.00    -0.361 A  
HETATM    8  C   UNL     1     -13.532  13.942  71.862  1.00  0.00    -0.511 A  
HETATM    9  N   UNL     1     -12.946  15.853  70.491  1.00  0.00    -0.713 NA 
HETATM   10  H1  UNL     1     -13.396  16.486  71.151  1.00  0.00     0.000 HD 
HETATM   11  C   UNL     1     -13.490  12.572  72.129  1.00  0.00    -0.523 A  
HETATM   12  H2  UNL     1     -13.406  15.956  69.586  1.00  0.00     0.000 HD 
HETATM   13  C   UNL     1     -12.777  11.721  71.281  1.00  0.00    -0.420 A  
HETATM   14  C   UNL     1     -12.159  12.240  70.137  1.00  0.00    -0.364 A  
BRANCH  13  15
HETATM   15  C   UNL     1     -12.576  10.307  71.698  1.00  0.00    -0.432 C  
HETATM   16  O   UNL     1     -13.379   9.664  72.351  1.00  0.00    -0.433 OA 
BRANCH  15  17
HETATM   17  O   UNL     1     -11.310   9.931  71.395  1.00  0.00    -0.364 OA 
BRANCH  17  18
HETATM   18  C   UNL     1     -10.939   8.631  71.885  1.00  0.00    -0.342 C  
BRANCH  18  19
HETATM   19  C   UNL     1     -10.958   7.672  70.677  1.00  0.00    -0.249 C  
BRANCH  19  20
HETATM   20  N   UNL     1     -11.286   6.260  70.944  1.00  0.00    -0.326 NA 
BRANCH  20  21
HETATM   21  C   UNL     1     -10.226   5.327  70.536  1.00  0.00    -0.264 C  
HETATM   22  C   UNL     1      -8.871   5.945  70.209  1.00  0.00    -0.145 C  
ENDBRANCH  20  21
BRANCH  20  23
HETATM   23  C   UNL     1     -11.707   6.120  72.350  1.00  0.00    -0.272 C  
HETATM   24  C   UNL     1     -11.064   4.951  73.087  1.00  0.00    -0.396 C  
ENDBRANCH  20  23
ENDBRANCH  19  20
ENDBRANCH  18  19
ENDBRANCH  17  18
ENDBRANCH  15  17
ENDBRANCH  13  15
ENDBRANCH   5   6
ENDBRANCH   4   5
ENDBRANCH   3   4
ENDBRANCH   2   3
TORSDOF 11
ENDMDL
MODEL       56
REMARK 921   NORMALIZED FREE ENERGY PREDICTED BY IDOCK:   -4.90 KCAL/MOL
REMARK 922        TOTAL FREE ENERGY PREDICTED BY IDOCK:   -9.06 KCAL/MOL
REMARK 923 INTER-LIGAND FREE ENERGY PREDICTED BY IDOCK:   -8.31 KCAL/MOL
REMARK 924 INTRA-LIGAND FREE ENERGY PREDICTED BY IDOCK:   -0.75 KCAL/MOL
REMARK 927      BINDING AFFINITY PREDICTED BY RF-SCORE:    0.00 PKD
ROOT
HETATM    1  C   UNL     1     -10.766   3.852  73.239  1.00  0.00    -0.287 C  
HETATM    2  C   UNL     1     -11.030   5.348  73.201  1.00  0.00    -0.353 C  
ENDROOT
BRANCH   2   3
HETATM    3  C   UNL     1     -10.470   5.975  71.926  1.00  0.00    -0.263 C  
BRANCH   3   4
HETATM    4  C   UNL     1     -11.584   6.415  70.985  1.00  0.00    -0.325 C  
BRANCH   4   5
HETATM    5  O   UNL     1     -12.515   7.209  71.729  1.00  0.00    -0.328 OA 
BRANCH   5   6
HETATM    6  C   UNL     1     -12.490   8.553  71.438  1.00  0.00    -0.297 A  
HETATM    7  C   UNL     1     -13.329   9.383  72.207  1.00  0.00    -0.461 A  
HETATM    8  C   UNL     1     -13.279  10.767  72.010  1.00  0.00    -0.466 A  
HETATM    9  N   UNL     1     -14.045   8.863  73.300  1.00  0.00    -1.248 NA 
HETATM   10  H1  UNL     1     -14.653   9.464  73.856  1.00  0.00     0.000 HD 
HETATM   11  C   UNL     1     -12.524  11.313  70.969  1.00  0.00    -0.503 A  
HETATM   12  H2  UNL     1     -13.382   8.410  73.929  1.00  0.00     0.000 HD 
HETATM   13  C   UNL     1     -11.779  10.474  70.138  1.00  0.00    -0.410 A  
HETATM   14  C   UNL     1     -11.747   9.097  70.390  1.00  0.00    -0.124 A  
BRANCH  13  15
HETATM   15  C   UNL     1     -11.154  11.054  68.919  1.00  0.00    -0.239 C  
HETATM   16  O   UNL     1      -9.955  11.065  68.703  1.00  0.00    -0.185 OA 
BRANCH  15  17
HETATM   17  O   UNL     1     -12.100  11.707  68.203  1.00  0.00    -0.577 OA 
BRANCH  17  18
HETATM   18  C   UNL     1     -11.585  12.539  67.149  1.00  0.00    -0.368 C  
BRANCH  18  19
HETATM   19  C   UNL     1     -11.908  13.999  67.529  1.00  0.00    -0.407 C  
BRANCH  19  20
HETATM   20  N   UNL     1     -10.940  15.031  67.119  1.00  0.00    -0.323 NA 
BRANCH  20  21
HETATM   21  C   UNL     1     -10.712  16.059  68.145  1.00  0.00    -0.311 C  
HETATM   22  C   UNL     1     -10.612  17.498  67.649  1.00  0.00    -0.355 C  
ENDBRANCH  20  21
BRANCH  20  23
HETATM   23  C   UNL     1      -9.710  14.376  66.637  1.00  0.00    -0.278 C  
HETATM   24  C   UNL     1      -8.506  14.542  67.556  1.00  0.00    -0.201 C  
ENDBRANCH  20  23
ENDBRANCH  19  20
ENDBRANCH  18  19
ENDBRANCH  17  18
ENDBRANCH  15  17
ENDBRANCH  13  15
ENDBRANCH   5   6
ENDBRANCH   4   5
ENDBRANCH   3   4
ENDBRANCH   2   3
TORSDOF 11
ENDMDL
MODEL       57
REMARK 921   NORMALIZED FREE ENERGY PREDICTED BY IDOCK:   -4.89 KCAL/MOL
REMARK 922        TOTAL FREE ENERGY PREDICTED BY IDOCK:   -9.05 KCAL/MOL
REMARK 923 INTER-LIGAND FREE ENERGY PREDICTED BY IDOCK:   -8.18 KCAL/MOL
REMARK 924 INTRA-LIGAND FREE ENERGY PREDICTED BY IDOCK:   -0.87 KCAL/MOL
REMARK 927      BINDING AFFINITY PREDICTED BY RF-SCORE:    0.00 PKD
ROOT
HETATM    1  C   UNL     1     -12.166  13.340  63.745  1.00  0.00    -0.508 C  
HETATM    2  C   UNL     1     -12.429  12.479  64.970  1.00  0.00    -0.494 C  
ENDROOT
BRANCH   2   3
HETATM    3  C   UNL     1     -12.156  13.253  66.258  1.00  0.00    -0.472 C  
BRANCH   3   4
HETATM    4  C   UNL     1     -11.546  12.357  67.329  1.00  0.00    -0.365 C  
BRANCH   4   5
HETATM    5  O   UNL     1     -11.231  13.167  68.467  1.00  0.00    -0.241 OA 
BRANCH   5   6
HETATM    6  C   UNL     1     -11.913  12.841  69.616  1.00  0.00    -0.288 A  
HETATM    7  C   UNL     1     -12.385  13.913  70.398  1.00  0.00    -0.363 A  
HETATM    8  C   UNL     1     -13.158  13.637  71.531  1.00  0.00    -0.431 A  
HETATM    9  N   UNL     1     -12.273  15.238  69.941  1.00  0.00    -0.440 NA 
HETATM   10  H1  UNL     1     -12.614  16.014  70.507  1.00  0.00     0.000 HD 
HETATM   11  C   UNL     1     -13.337  12.323  71.970  1.00  0.00    -0.491 A  
HETATM   12  H2  UNL     1     -12.712  15.297  69.022  1.00  0.00     0.000 HD 
HETATM   13  C   UNL     1     -12.773  11.267  71.251  1.00  0.00    -0.510 A  
HETATM   14  C   UNL     1     -12.080  11.530  70.061  1.00  0.00    -0.408 A  
BRANCH  13  15
HETATM   15  C   UNL     1     -12.801   9.905  71.847  1.00  0.00    -0.429 C  
HETATM   16  O   UNL     1     -13.731   9.462  72.499  1.00  0.00    -0.448 OA 
BRANCH  15  17
HETATM   17  O   UNL     1     -11.583   9.331  71.701  1.00  0.00    -0.348 OA 
BRANCH  17  18
HETATM   18  C   UNL     1     -11.357   8.186  72.541  1.00  0.00    -0.401 C  
BRANCH  18  19
HETATM   19  C   UNL     1     -11.347   6.948  71.620  1.00  0.00    -0.260 C  
BRANCH  19  20
HETATM   20  N   UNL     1     -10.594   7.055  70.358  1.00  0.00    -0.217 NA 
BRANCH  20  21
HETATM   21  C   UNL     1      -9.144   7.196  70.552  1.00  0.00    -0.155 C  
HETATM   22  C   UNL     1      -8.512   8.476  70.016  1.00  0.00    -0.125 C  
ENDBRANCH  20  21
BRANCH  20  23
HETATM   23  C   UNL     1     -10.979   5.943  69.469  1.00  0.00    -0.368 C  
HETATM   24  C   UNL     1     -10.934   6.279  67.983  1.00  0.00    -0.418 C  
ENDBRANCH  20  23
ENDBRANCH  19  20
ENDBRANCH  18  19
ENDBRANCH  17  18
ENDBRANCH  15  17
ENDBRANCH  13  15
ENDBRANCH   5   6
ENDBRANCH   4   5
ENDBRANCH   3   4
ENDBRANCH   2   3
TORSDOF 11
ENDMDL
MODEL       58
REMARK 921   NORMALIZED FREE ENERGY PREDICTED BY IDOCK:   -4.86 KCAL/MOL
REMARK 922        TOTAL FREE ENERGY PREDICTED BY IDOCK:   -9.00 KCAL/MOL
REMARK 923 INTER-LIGAND FREE ENERGY PREDICTED BY IDOCK:   -8.00 KCAL/MOL
REMARK 924 INTRA-LIGAND FREE ENERGY PREDICTED BY IDOCK:   -1.00 KCAL/MOL
REMARK 927      BINDING AFFINITY PREDICTED BY RF-SCORE:    0.00 PKD
ROOT
HETATM    1  C   UNL     1     -10.992  11.593  66.677  1.00  0.00    -0.349 C  
HETATM    2  C   UNL     1     -11.888  12.356  65.715  1.00  0.00    -0.467 C  
ENDROOT
BRANCH   2   3
HETATM    3  C   UNL     1     -12.062  13.808  66.155  1.00  0.00    -0.477 C  
BRANCH   3   4
HETATM    4  C   UNL     1     -11.089  14.173  67.269  1.00  0.00    -0.305 C  
BRANCH   4   5
HETATM    5  O   UNL     1     -11.527  15.400  67.865  1.00  0.00    -0.335 OA 
BRANCH   5   6
HETATM    6  C   UNL     1     -11.787  15.327  69.214  1.00  0.00    -0.329 A  
HETATM    7  C   UNL     1     -11.170  16.294  70.031  1.00  0.00    -0.319 A  
HETATM    8  C   UNL     1     -11.468  16.317  71.398  1.00  0.00    -0.361 A  
HETATM    9  N   UNL     1     -10.439  17.352  69.462  1.00  0.00    -0.299 NA 
HETATM   10  H1  UNL     1      -9.993  18.052  70.054  1.00  0.00     0.000 HD 
HETATM   11  C   UNL     1     -12.245  15.311  71.975  1.00  0.00    -0.441 A  
HETATM   12  H2  UNL     1     -11.043  17.835  68.797  1.00  0.00     0.000 HD 
HETATM   13  C   UNL     1     -12.765  14.289  71.177  1.00  0.00    -0.430 A  
HETATM   14  C   UNL     1     -12.551  14.314  69.793  1.00  0.00    -0.152 A  
BRANCH  13  15
HETATM   15  C   UNL     1     -13.409  13.125  71.841  1.00  0.00    -0.455 C  
HETATM   16  O   UNL     1     -14.201  13.214  72.763  1.00  0.00    -0.608 OA 
BRANCH  15  17
HETATM   17  O   UNL     1     -12.844  11.982  71.383  1.00  0.00    -0.381 OA 
BRANCH  17  18
HETATM   18  C   UNL     1     -13.283  10.787  72.051  1.00  0.00    -0.361 C  
BRANCH  18  19
HETATM   19  C   UNL     1     -12.585   9.600  71.355  1.00  0.00    -0.371 C  
BRANCH  19  20
HETATM   20  N   UNL     1     -11.130   9.704  71.148  1.00  0.00    -0.359 NA 
BRANCH  20  21
HETATM   21  C   UNL     1     -10.349   8.830  72.035  1.00  0.00    -0.340 C  
HETATM   22  C   UNL     1     -11.122   7.718  72.737  1.00  0.00    -0.457 C  
ENDBRANCH  20  21
BRANCH  20  23
HETATM   23  C   UNL     1     -10.832   9.531  69.714  1.00  0.00    -0.243 C  
HETATM   24  C   UNL     1      -9.384   9.166  69.410  1.00  0.00    -0.160 C  
ENDBRANCH  20  23
ENDBRANCH  19  20
ENDBRANCH  18  19
ENDBRANCH  17  18
ENDBRANCH  15  17
ENDBRANCH  13  15
ENDBRANCH   5   6
ENDBRANCH   4   5
ENDBRANCH   3   4
ENDBRANCH   2   3
TORSDOF 11
ENDMDL
MODEL       59
REMARK 921   NORMALIZED FREE ENERGY PREDICTED BY IDOCK:   -4.86 KCAL/MOL
REMARK 922        TOTAL FREE ENERGY PREDICTED BY IDOCK:   -9.00 KCAL/MOL
REMARK 923 INTER-LIGAND FREE ENERGY PREDICTED BY IDOCK:   -7.78 KCAL/MOL
REMARK 924 INTRA-LIGAND FREE ENERGY PREDICTED BY IDOCK:   -1.22 KCAL/MOL
REMARK 927      BINDING AFFINITY PREDICTED BY RF-SCORE:    0.00 PKD
ROOT
HETATM    1  C   UNL     1      -9.435  19.949  66.698  1.00  0.00    -0.513 C  
HETATM    2  C   UNL     1     -10.708  19.340  67.262  1.00  0.00    -0.594 C  
ENDROOT
BRANCH   2   3
HETATM    3  C   UNL     1     -10.399  18.131  68.142  1.00  0.00    -0.393 C  
BRANCH   3   4
HETATM    4  C   UNL     1     -10.719  16.824  67.427  1.00  0.00    -0.244 C  
BRANCH   4   5
HETATM    5  O   UNL     1     -11.338  15.937  68.367  1.00  0.00    -0.346 OA 
BRANCH   5   6
HETATM    6  C   UNL     1     -11.524  14.652  67.913  1.00  0.00    -0.329 A  
HETATM    7  C   UNL     1     -11.401  13.621  68.864  1.00  0.00    -0.290 A  
HETATM    8  C   UNL     1     -11.664  12.303  68.473  1.00  0.00    -0.381 A  
HETATM    9  N   UNL     1     -11.233  13.919  70.228  1.00  0.00    -0.472 NA 
HETATM   10  H1  UNL     1     -11.144  13.173  70.916  1.00  0.00     0.000 HD 
HETATM   11  C   UNL     1     -11.897  11.990  67.132  1.00  0.00    -0.251 A  
HETATM   12  H2  UNL     1     -11.996  14.531  70.517  1.00  0.00     0.000 HD 
HETATM   13  C   UNL     1     -11.908  13.005  66.173  1.00  0.00    -0.466 A  
HETATM   14  C   UNL     1     -11.743  14.338  66.572  1.00  0.00    -0.409 A  
BRANCH  13  15
HETATM   15  C   UNL     1     -11.951  12.625  64.736  1.00  0.00    -0.402 C  
HETATM   16  O   UNL     1     -12.976  12.399  64.117  1.00  0.00    -0.744 OA 
BRANCH  15  17
HETATM   17  O   UNL     1     -10.689  12.402  64.297  1.00  0.00    -0.307 OA 
BRANCH  17  18
HETATM   18  C   UNL     1     -10.482  11.110  63.702  1.00  0.00    -0.376 C  
BRANCH  18  19
HETATM   19  C   UNL     1      -9.183  10.538  64.309  1.00  0.00    -0.245 C  
BRANCH  19  20
HETATM   20  N   UNL     1      -9.139  10.378  65.773  1.00  0.00    -0.161 NA 
BRANCH  20  21
HETATM   21  C   UNL     1      -9.256   8.980  66.211  1.00  0.00    -0.206 C  
HETATM   22  C   UNL     1     -10.534   8.612  66.958  1.00  0.00    -0.354 C  
ENDBRANCH  20  21
BRANCH  20  23
HETATM   23  C   UNL     1      -7.953  11.079  66.301  1.00  0.00    -0.148 C  
HETATM   24  C   UNL     1      -8.202  11.858  67.586  1.00  0.00    -0.148 C  
ENDBRANCH  20  23
ENDBRANCH  19  20
ENDBRANCH  18  19
ENDBRANCH  17  18
ENDBRANCH  15  17
ENDBRANCH  13  15
ENDBRANCH   5   6
ENDBRANCH   4   5
ENDBRANCH   3   4
ENDBRANCH   2   3
TORSDOF 11
ENDMDL
MODEL       60
REMARK 921   NORMALIZED FREE ENERGY PREDICTED BY IDOCK:   -4.85 KCAL/MOL
REMARK 922        TOTAL FREE ENERGY PREDICTED BY IDOCK:   -8.98 KCAL/MOL
REMARK 923 INTER-LIGAND FREE ENERGY PREDICTED BY IDOCK:   -7.98 KCAL/MOL
REMARK 924 INTRA-LIGAND FREE ENERGY PREDICTED BY IDOCK:   -1.00 KCAL/MOL
REMARK 927      BINDING AFFINITY PREDICTED BY RF-SCORE:    0.00 PKD
ROOT
HETATM    1  C   UNL     1     -12.671  11.885  63.610  1.00  0.00    -0.509 C  
HETATM    2  C   UNL     1     -11.564  12.926  63.622  1.00  0.00    -0.547 C  
ENDROOT
BRANCH   2   3
HETATM    3  C   UNL     1     -12.025  14.215  64.298  1.00  0.00    -0.460 C  
BRANCH   3   4
HETATM    4  C   UNL     1     -12.785  13.928  65.587  1.00  0.00    -0.495 C  
BRANCH   4   5
HETATM    5  O   UNL     1     -11.974  14.347  66.690  1.00  0.00    -0.407 OA 
BRANCH   5   6
HETATM    6  C   UNL     1     -11.886  13.440  67.720  1.00  0.00    -0.358 A  
HETATM    7  C   UNL     1     -12.107  13.935  69.020  1.00  0.00    -0.329 A  
HETATM    8  C   UNL     1     -12.112  13.039  70.095  1.00  0.00    -0.377 A  
HETATM    9  N   UNL     1     -12.529  15.262  69.221  1.00  0.00    -0.596 NA 
HETATM   10  H1  UNL     1     -12.689  15.620  70.162  1.00  0.00     0.000 HD 
HETATM   11  C   UNL     1     -11.758  11.701  69.910  1.00  0.00    -0.414 A  
HETATM   12  H2  UNL     1     -13.377  15.412  68.674  1.00  0.00     0.000 HD 
HETATM   13  C   UNL     1     -11.431  11.239  68.633  1.00  0.00    -0.362 A  
HETATM   14  C   UNL     1     -11.518  12.107  67.538  1.00  0.00    -0.410 A  
BRANCH  13  15
HETATM   15  C   UNL     1     -10.860   9.872  68.497  1.00  0.00    -0.217 C  
HETATM   16  O   UNL     1     -10.875   9.224  67.465  1.00  0.00    -0.259 OA 
BRANCH  15  17
HETATM   17  O   UNL     1     -10.499   9.417  69.720  1.00  0.00    -0.203 OA 
BRANCH  17  18
HETATM   18  C   UNL     1     -10.630   7.996  69.893  1.00  0.00    -0.242 C  
BRANCH  18  19
HETATM   19  C   UNL     1     -10.557   7.718  71.409  1.00  0.00    -0.213 C  
BRANCH  19  20
HETATM   20  N   UNL     1     -11.802   7.295  72.075  1.00  0.00    -0.289 NA 
BRANCH  20  21
HETATM   21  C   UNL     1     -13.017   7.690  71.349  1.00  0.00    -0.311 C  
HETATM   22  C   UNL     1     -13.650   9.015  71.764  1.00  0.00    -0.468 C  
ENDBRANCH  20  21
BRANCH  20  23
HETATM   23  C   UNL     1     -11.721   5.854  72.379  1.00  0.00    -0.253 C  
HETATM   24  C   UNL     1     -10.304   5.294  72.407  1.00  0.00    -0.259 C  
ENDBRANCH  20  23
ENDBRANCH  19  20
ENDBRANCH  18  19
ENDBRANCH  17  18
ENDBRANCH  15  17
ENDBRANCH  13  15
ENDBRANCH   5   6
ENDBRANCH   4   5
ENDBRANCH   3   4
ENDBRANCH   2   3
TORSDOF 11
ENDMDL
MODEL       61
REMARK 921   NORMALIZED FREE ENERGY PREDICTED BY IDOCK:   -4.85 KCAL/MOL
REMARK 922        TOTAL FREE ENERGY PREDICTED BY IDOCK:   -8.98 KCAL/MOL
REMARK 923 INTER-LIGAND FREE ENERGY PREDICTED BY IDOCK:   -7.97 KCAL/MOL
REMARK 924 INTRA-LIGAND FREE ENERGY PREDICTED BY IDOCK:   -1.01 KCAL/MOL
REMARK 927      BINDING AFFINITY PREDICTED BY RF-SCORE:    0.00 PKD
ROOT
HETATM    1  C   UNL     1     -10.512   5.523  69.447  1.00  0.00    -0.360 C  
HETATM    2  C   UNL     1      -9.701   5.594  70.731  1.00  0.00    -0.228 C  
ENDROOT
BRANCH   2   3
HETATM    3  C   UNL     1     -10.601   5.488  71.960  1.00  0.00    -0.284 C  
BRANCH   3   4
HETATM    4  C   UNL     1     -10.839   6.851  72.596  1.00  0.00    -0.257 C  
BRANCH   4   5
HETATM    5  O   UNL     1     -12.126   7.324  72.179  1.00  0.00    -0.293 OA 
BRANCH   5   6
HETATM    6  C   UNL     1     -12.133   8.596  71.655  1.00  0.00    -0.326 A  
HETATM    7  C   UNL     1     -13.132   9.469  72.125  1.00  0.00    -0.436 A  
HETATM    8  C   UNL     1     -13.132  10.798  71.688  1.00  0.00    -0.551 A  
HETATM    9  N   UNL     1     -13.984   9.084  73.177  1.00  0.00    -1.215 NA 
HETATM   10  H1  UNL     1     -14.707   9.717  73.517  1.00  0.00     0.000 HD 
HETATM   11  C   UNL     1     -12.253  11.220  70.689  1.00  0.00    -0.489 A  
HETATM   12  H2  UNL     1     -13.406   8.805  73.969  1.00  0.00     0.000 HD 
HETATM   13  C   UNL     1     -11.335  10.319  70.145  1.00  0.00    -0.388 A  
HETATM   14  C   UNL     1     -11.263   9.013  70.647  1.00  0.00    -0.318 A  
BRANCH  13  15
HETATM   15  C   UNL     1     -10.556  10.733  68.947  1.00  0.00    -0.216 C  
HETATM   16  O   UNL     1      -9.800   9.999  68.334  1.00  0.00    -0.149 OA 
BRANCH  15  17
HETATM   17  O   UNL     1     -10.688  12.070  68.772  1.00  0.00    -0.222 OA 
BRANCH  17  18
HETATM   18  C   UNL     1      -9.590  12.693  68.083  1.00  0.00    -0.219 C  
BRANCH  18  19
HETATM   19  C   UNL     1     -10.200  13.689  67.075  1.00  0.00    -0.250 C  
BRANCH  19  20
HETATM   20  N   UNL     1     -10.174  13.305  65.652  1.00  0.00    -0.288 NA 
BRANCH  20  21
HETATM   21  C   UNL     1      -9.995  11.862  65.439  1.00  0.00    -0.252 C  
HETATM   22  C   UNL     1     -10.773  11.248  64.280  1.00  0.00    -0.416 C  
ENDBRANCH  20  21
BRANCH  20  23
HETATM   23  C   UNL     1     -11.356  13.873  64.976  1.00  0.00    -0.334 C  
HETATM   24  C   UNL     1     -12.524  14.184  65.905  1.00  0.00    -0.479 C  
ENDBRANCH  20  23
ENDBRANCH  19  20
ENDBRANCH  18  19
ENDBRANCH  17  18
ENDBRANCH  15  17
ENDBRANCH  13  15
ENDBRANCH   5   6
ENDBRANCH   4   5
ENDBRANCH   3   4
ENDBRANCH   2   3
TORSDOF 11
ENDMDL
MODEL       62
REMARK 921   NORMALIZED FREE ENERGY PREDICTED BY IDOCK:   -4.84 KCAL/MOL
REMARK 922        TOTAL FREE ENERGY PREDICTED BY IDOCK:   -8.97 KCAL/MOL
REMARK 923 INTER-LIGAND FREE ENERGY PREDICTED BY IDOCK:   -8.20 KCAL/MOL
REMARK 924 INTRA-LIGAND FREE ENERGY PREDICTED BY IDOCK:   -0.76 KCAL/MOL
REMARK 927      BINDING AFFINITY PREDICTED BY RF-SCORE:    0.00 PKD
ROOT
HETATM    1  C   UNL     1     -12.626  12.125  63.304  1.00  0.00    -0.492 C  
HETATM    2  C   UNL     1     -11.356  11.805  64.074  1.00  0.00    -0.461 C  
ENDROOT
BRANCH   2   3
HETATM    3  C   UNL     1     -10.584  13.076  64.421  1.00  0.00    -0.429 C  
BRANCH   3   4
HETATM    4  C   UNL     1     -10.551  13.316  65.925  1.00  0.00    -0.281 C  
BRANCH   4   5
HETATM    5  O   UNL     1     -11.446  12.387  66.549  1.00  0.00    -0.328 OA 
BRANCH   5   6
HETATM    6  C   UNL     1     -11.665  12.606  67.889  1.00  0.00    -0.358 A  
HETATM    7  C   UNL     1     -11.885  11.468  68.688  1.00  0.00    -0.318 A  
HETATM    8  C   UNL     1     -12.028  11.628  70.071  1.00  0.00    -0.429 A  
HETATM    9  N   UNL     1     -11.747  10.176  68.150  1.00  0.00    -0.666 NA 
HETATM   10  H1  UNL     1     -11.906   9.352  68.729  1.00  0.00     0.000 HD 
HETATM   11  C   UNL     1     -12.104  12.902  70.637  1.00  0.00    -0.321 A  
HETATM   12  H2  UNL     1     -10.818  10.100  67.736  1.00  0.00     0.000 HD 
HETATM   13  C   UNL     1     -11.996  14.032  69.823  1.00  0.00    -0.393 A  
HETATM   14  C   UNL     1     -11.754  13.878  68.452  1.00  0.00    -0.391 A  
BRANCH  13  15
HETATM   15  C   UNL     1     -12.286  15.365  70.416  1.00  0.00    -0.391 C  
HETATM   16  O   UNL     1     -13.400  15.751  70.723  1.00  0.00    -0.539 OA 
BRANCH  15  17
HETATM   17  O   UNL     1     -11.160  16.119  70.384  1.00  0.00    -0.353 OA 
BRANCH  17  18
HETATM   18  C   UNL     1     -11.064  17.003  69.255  1.00  0.00     0.114 C  
BRANCH  18  19
HETATM   19  C   UNL     1      -9.625  16.884  68.711  1.00  0.00    -0.268 C  
BRANCH  19  20
HETATM   20  N   UNL     1      -9.000  18.112  68.189  1.00  0.00    -0.283 NA 
BRANCH  20  21
HETATM   21  C   UNL     1      -8.466  17.963  66.828  1.00  0.00    -0.249 C  
HETATM   22  C   UNL     1      -8.508  16.558  66.236  1.00  0.00    -0.363 C  
ENDBRANCH  20  21
BRANCH  20  23
HETATM   23  C   UNL     1      -9.939  19.238  68.349  1.00  0.00    -0.419 C  
HETATM   24  C   UNL     1     -10.249  19.989  67.060  1.00  0.00    -0.587 C  
ENDBRANCH  20  23
ENDBRANCH  19  20
ENDBRANCH  18  19
ENDBRANCH  17  18
ENDBRANCH  15  17
ENDBRANCH  13  15
ENDBRANCH   5   6
ENDBRANCH   4   5
ENDBRANCH   3   4
ENDBRANCH   2   3
TORSDOF 11
ENDMDL
MODEL       63
REMARK 921   NORMALIZED FREE ENERGY PREDICTED BY IDOCK:   -4.83 KCAL/MOL
REMARK 922        TOTAL FREE ENERGY PREDICTED BY IDOCK:   -8.95 KCAL/MOL
REMARK 923 INTER-LIGAND FREE ENERGY PREDICTED BY IDOCK:   -7.77 KCAL/MOL
REMARK 924 INTRA-LIGAND FREE ENERGY PREDICTED BY IDOCK:   -1.18 KCAL/MOL
REMARK 927      BINDING AFFINITY PREDICTED BY RF-SCORE:    0.00 PKD
ROOT
HETATM    1  C   UNL     1     -10.095  10.445  65.191  1.00  0.00    -0.379 C  
HETATM    2  C   UNL     1     -10.678  10.618  66.584  1.00  0.00    -0.246 C  
ENDROOT
BRANCH   2   3
HETATM    3  C   UNL     1      -9.580  10.631  67.645  1.00  0.00    -0.178 C  
BRANCH   3   4
HETATM    4  C   UNL     1     -10.129  10.275  69.020  1.00  0.00    -0.213 C  
BRANCH   4   5
HETATM    5  O   UNL     1     -11.553  10.425  68.990  1.00  0.00    -0.228 OA 
BRANCH   5   6
HETATM    6  C   UNL     1     -12.070  11.241  69.969  1.00  0.00    -0.348 A  
HETATM    7  C   UNL     1     -12.856  10.621  70.959  1.00  0.00    -0.402 A  
HETATM    8  C   UNL     1     -13.336  11.391  72.024  1.00  0.00    -0.388 A  
HETATM    9  N   UNL     1     -12.981   9.221  71.004  1.00  0.00    -0.525 NA 
HETATM   10  H1  UNL     1     -13.550   8.772  71.721  1.00  0.00     0.000 HD 
HETATM   11  C   UNL     1     -13.169  12.777  72.035  1.00  0.00    -0.538 A  
HETATM   12  H2  UNL     1     -12.044   8.818  71.042  1.00  0.00     0.000 HD 
HETATM   13  C   UNL     1     -12.482  13.402  70.991  1.00  0.00    -0.437 A  
HETATM   14  C   UNL     1     -11.915  12.627  69.972  1.00  0.00    -0.377 A  
BRANCH  13  15
HETATM   15  C   UNL     1     -12.498  14.888  70.919  1.00  0.00    -0.330 C  
HETATM   16  O   UNL     1     -13.512  15.563  70.909  1.00  0.00    -0.507 OA 
BRANCH  15  17
HETATM   17  O   UNL     1     -11.239  15.334  70.688  1.00  0.00    -0.288 OA 
BRANCH  17  18
HETATM   18  C   UNL     1     -11.127  16.271  69.603  1.00  0.00    -0.333 C  
BRANCH  18  19
HETATM   19  C   UNL     1     -10.268  15.596  68.513  1.00  0.00    -0.211 C  
BRANCH  19  20
HETATM   20  N   UNL     1     -10.823  15.558  67.148  1.00  0.00    -0.320 NA 
BRANCH  20  21
HETATM   21  C   UNL     1     -10.030  16.320  66.173  1.00  0.00    -0.334 C  
HETATM   22  C   UNL     1      -8.522  16.343  66.399  1.00  0.00    -0.364 C  
ENDBRANCH  20  21
BRANCH  20  23
HETATM   23  C   UNL     1     -11.065  14.154  66.764  1.00  0.00    -0.310 C  
HETATM   24  C   UNL     1     -12.290  13.944  65.884  1.00  0.00    -0.517 C  
ENDBRANCH  20  23
ENDBRANCH  19  20
ENDBRANCH  18  19
ENDBRANCH  17  18
ENDBRANCH  15  17
ENDBRANCH  13  15
ENDBRANCH   5   6
ENDBRANCH   4   5
ENDBRANCH   3   4
ENDBRANCH   2   3
TORSDOF 11
ENDMDL
MODEL       64
REMARK 921   NORMALIZED FREE ENERGY PREDICTED BY IDOCK:   -4.83 KCAL/MOL
REMARK 922        TOTAL FREE ENERGY PREDICTED BY IDOCK:   -8.94 KCAL/MOL
REMARK 923 INTER-LIGAND FREE ENERGY PREDICTED BY IDOCK:   -7.62 KCAL/MOL
REMARK 924 INTRA-LIGAND FREE ENERGY PREDICTED BY IDOCK:   -1.33 KCAL/MOL
REMARK 927      BINDING AFFINITY PREDICTED BY RF-SCORE:    0.00 PKD
ROOT
HETATM    1  C   UNL     1     -12.788  10.865  71.376  1.00  0.00    -0.554 C  
HETATM    2  C   UNL     1     -11.551  10.162  70.841  1.00  0.00    -0.459 C  
ENDROOT
BRANCH   2   3
HETATM    3  C   UNL     1     -11.326  10.486  69.366  1.00  0.00    -0.331 C  
BRANCH   3   4
HETATM    4  C   UNL     1     -11.890  11.854  69.003  1.00  0.00    -0.308 C  
BRANCH   4   5
HETATM    5  O   UNL     1     -12.065  11.907  67.582  1.00  0.00    -0.568 OA 
BRANCH   5   6
HETATM    6  C   UNL     1     -11.334  12.882  66.945  1.00  0.00    -0.312 A  
HETATM    7  C   UNL     1     -11.814  13.318  65.695  1.00  0.00    -0.380 A  
HETATM    8  C   UNL     1     -11.155  14.367  65.044  1.00  0.00    -0.385 A  
HETATM    9  N   UNL     1     -13.052  12.866  65.205  1.00  0.00    -0.615 NA 
HETATM   10  H1  UNL     1     -13.399  13.182  64.300  1.00  0.00     0.000 HD 
HETATM   11  C   UNL     1      -9.956  14.877  65.546  1.00  0.00    -0.392 A  
HETATM   12  H2  UNL     1     -13.765  13.065  65.907  1.00  0.00     0.000 HD 
HETATM   13  C   UNL     1      -9.424  14.363  66.731  1.00  0.00    -0.280 A  
HETATM   14  C   UNL     1     -10.129  13.381  67.439  1.00  0.00    -0.237 A  
BRANCH  13  15
HETATM   15  C   UNL     1      -8.052  14.774  67.132  1.00  0.00    -0.197 C  
HETATM   16  O   UNL     1      -7.192  14.003  67.520  1.00  0.00    -0.172 OA 
BRANCH  15  17
HETATM   17  O   UNL     1      -7.985  16.127  67.165  1.00  0.00    -0.163 OA 
BRANCH  17  18
HETATM   18  C   UNL     1      -7.781  16.684  68.475  1.00  0.00    -0.215 C  
BRANCH  18  19
HETATM   19  C   UNL     1      -8.535  18.030  68.513  1.00  0.00    -0.305 C  
BRANCH  19  20
HETATM   20  N   UNL     1      -9.998  17.976  68.685  1.00  0.00    -0.376 NA 
BRANCH  20  21
HETATM   21  C   UNL     1     -10.740  18.132  67.426  1.00  0.00    -0.335 C  
HETATM   22  C   UNL     1     -10.044  18.927  66.326  1.00  0.00    -0.460 C  
ENDBRANCH  20  21
BRANCH  20  23
HETATM   23  C   UNL     1     -10.351  16.765  69.448  1.00  0.00    -0.276 C  
HETATM   24  C   UNL     1     -11.650  16.100  69.009  1.00  0.00    -0.298 C  
ENDBRANCH  20  23
ENDBRANCH  19  20
ENDBRANCH  18  19
ENDBRANCH  17  18
ENDBRANCH  15  17
ENDBRANCH  13  15
ENDBRANCH   5   6
ENDBRANCH   4   5
ENDBRANCH   3   4
ENDBRANCH   2   3
TORSDOF 11
ENDMDL
MODEL       65
REMARK 921   NORMALIZED FREE ENERGY PREDICTED BY IDOCK:   -4.83 KCAL/MOL
REMARK 922        TOTAL FREE ENERGY PREDICTED BY IDOCK:   -8.94 KCAL/MOL
REMARK 923 INTER-LIGAND FREE ENERGY PREDICTED BY IDOCK:   -8.30 KCAL/MOL
REMARK 924 INTRA-LIGAND FREE ENERGY PREDICTED BY IDOCK:   -0.64 KCAL/MOL
REMARK 927      BINDING AFFINITY PREDICTED BY RF-SCORE:    0.00 PKD
ROOT
HETATM    1  C   UNL     1     -10.072  20.183  67.109  1.00  0.00    -0.590 C  
HETATM    2  C   UNL     1      -8.800  19.493  67.570  1.00  0.00    -0.361 C  
ENDROOT
BRANCH   2   3
HETATM    3  C   UNL     1      -9.082  18.064  68.029  1.00  0.00    -0.274 C  
BRANCH   3   4
HETATM    4  C   UNL     1     -10.385  17.536  67.442  1.00  0.00    -0.351 C  
BRANCH   4   5
HETATM    5  O   UNL     1     -10.078  16.810  66.246  1.00  0.00    -0.297 OA 
BRANCH   5   6
HETATM    6  C   UNL     1     -10.756  15.622  66.101  1.00  0.00    -0.303 A  
HETATM    7  C   UNL     1     -11.504  15.460  64.919  1.00  0.00    -0.311 A  
HETATM    8  C   UNL     1     -12.144  14.239  64.683  1.00  0.00    -0.478 A  
HETATM    9  N   UNL     1     -11.437  16.418  63.891  1.00  0.00    -1.618 NA 
HETATM   10  H1  UNL     1     -11.979  16.301  63.035  1.00  0.00     0.000 HD 
HETATM   11  C   UNL     1     -12.170  13.246  65.664  1.00  0.00    -0.514 A  
HETATM   12  H2  UNL     1     -10.458  16.543  63.635  1.00  0.00     0.000 HD 
HETATM   13  C   UNL     1     -11.519  13.455  66.882  1.00  0.00    -0.376 A  
HETATM   14  C   UNL     1     -10.794  14.636  67.087  1.00  0.00    -0.303 A  
BRANCH  13  15
HETATM   15  C   UNL     1     -11.735  12.477  67.981  1.00  0.00    -0.355 C  
HETATM   16  O   UNL     1     -11.826  12.778  69.158  1.00  0.00    -0.298 OA 
BRANCH  15  17
HETATM   17  O   UNL     1     -11.631  11.221  67.485  1.00  0.00    -0.508 OA 
BRANCH  17  18
HETATM   18  C   UNL     1     -10.564  10.440  68.051  1.00  0.00    -0.221 C  
BRANCH  18  19
HETATM   19  C   UNL     1     -10.270   9.295  67.059  1.00  0.00    -0.262 C  
BRANCH  19  20
HETATM   20  N   UNL     1      -9.719   8.047  67.618  1.00  0.00    -0.151 NA 
BRANCH  20  21
HETATM   21  C   UNL     1     -10.751   7.082  68.023  1.00  0.00    -0.194 C  
HETATM   22  C   UNL     1     -10.427   6.214  69.234  1.00  0.00    -0.314 C  
ENDBRANCH  20  21
BRANCH  20  23
HETATM   23  C   UNL     1      -8.715   7.502  66.686  1.00  0.00    -0.138 C  
HETATM   24  C   UNL     1      -7.368   8.215  66.722  1.00  0.00    -0.083 C  
ENDBRANCH  20  23
ENDBRANCH  19  20
ENDBRANCH  18  19
ENDBRANCH  17  18
ENDBRANCH  15  17
ENDBRANCH  13  15
ENDBRANCH   5   6
ENDBRANCH   4   5
ENDBRANCH   3   4
ENDBRANCH   2   3
TORSDOF 11
ENDMDL
MODEL       66
REMARK 921   NORMALIZED FREE ENERGY PREDICTED BY IDOCK:   -4.82 KCAL/MOL
REMARK 922        TOTAL FREE ENERGY PREDICTED BY IDOCK:   -8.93 KCAL/MOL
REMARK 923 INTER-LIGAND FREE ENERGY PREDICTED BY IDOCK:   -7.23 KCAL/MOL
REMARK 924 INTRA-LIGAND FREE ENERGY PREDICTED BY IDOCK:   -1.71 KCAL/MOL
REMARK 927      BINDING AFFINITY PREDICTED BY RF-SCORE:    0.00 PKD
ROOT
HETATM    1  C   UNL     1     -10.772  19.424  67.169  1.00  0.00    -0.593 C  
HETATM    2  C   UNL     1      -9.461  20.115  67.507  1.00  0.00    -0.523 C  
ENDROOT
BRANCH   2   3
HETATM    3  C   UNL     1      -8.301  19.122  67.521  1.00  0.00    -0.315 C  
BRANCH   3   4
HETATM    4  C   UNL     1      -8.476  18.045  66.458  1.00  0.00    -0.261 C  
BRANCH   4   5
HETATM    5  O   UNL     1      -8.450  16.767  67.104  1.00  0.00    -0.175 OA 
BRANCH   5   6
HETATM    6  C   UNL     1      -9.595  16.020  66.954  1.00  0.00    -0.226 A  
HETATM    7  C   UNL     1     -10.367  15.806  68.112  1.00  0.00    -0.242 A  
HETATM    8  C   UNL     1     -11.584  15.125  68.000  1.00  0.00    -0.345 A  
HETATM    9  N   UNL     1     -10.039  16.446  69.321  1.00  0.00    -0.269 NA 
HETATM   10  H1  UNL     1     -10.599  16.291  70.159  1.00  0.00     0.000 HD 
HETATM   11  C   UNL     1     -11.962  14.534  66.792  1.00  0.00    -0.364 A  
HETATM   12  H2  UNL     1      -9.995  17.450  69.148  1.00  0.00     0.000 HD 
HETATM   13  C   UNL     1     -11.137  14.655  65.671  1.00  0.00    -0.338 A  
HETATM   14  C   UNL     1      -9.965  15.418  65.752  1.00  0.00    -0.393 A  
BRANCH  13  15
HETATM   15  C   UNL     1     -11.456  13.849  64.463  1.00  0.00    -0.381 C  
HETATM   16  O   UNL     1     -12.537  13.854  63.902  1.00  0.00    -0.697 OA 
BRANCH  15  17
HETATM   17  O   UNL     1     -10.431  12.999  64.212  1.00  0.00    -0.395 OA 
BRANCH  17  18
HETATM   18  C   UNL     1     -10.643  11.653  64.674  1.00  0.00    -0.312 C  
BRANCH  18  19
HETATM   19  C   UNL     1      -9.437  11.287  65.563  1.00  0.00    -0.229 C  
BRANCH  19  20
HETATM   20  N   UNL     1      -9.680  11.173  67.012  1.00  0.00    -0.184 NA 
BRANCH  20  21
HETATM   21  C   UNL     1      -9.123  12.291  67.788  1.00  0.00    -0.191 C  
HETATM   22  C   UNL     1      -7.605  12.321  67.934  1.00  0.00    -0.127 C  
ENDBRANCH  20  21
BRANCH  20  23
HETATM   23  C   UNL     1     -11.117  10.934  67.244  1.00  0.00    -0.283 C  
HETATM   24  C   UNL     1     -11.594  11.275  68.651  1.00  0.00    -0.384 C  
ENDBRANCH  20  23
ENDBRANCH  19  20
ENDBRANCH  18  19
ENDBRANCH  17  18
ENDBRANCH  15  17
ENDBRANCH  13  15
ENDBRANCH   5   6
ENDBRANCH   4   5
ENDBRANCH   3   4
ENDBRANCH   2   3
TORSDOF 11
ENDMDL
MODEL       67
REMARK 921   NORMALIZED FREE ENERGY PREDICTED BY IDOCK:   -4.82 KCAL/MOL
REMARK 922        TOTAL FREE ENERGY PREDICTED BY IDOCK:   -8.93 KCAL/MOL
REMARK 923 INTER-LIGAND FREE ENERGY PREDICTED BY IDOCK:   -8.12 KCAL/MOL
REMARK 924 INTRA-LIGAND FREE ENERGY PREDICTED BY IDOCK:   -0.80 KCAL/MOL
REMARK 927      BINDING AFFINITY PREDICTED BY RF-SCORE:    0.00 PKD
ROOT
HETATM    1  C   UNL     1     -11.536  12.055  63.944  1.00  0.00    -0.536 C  
HETATM    2  C   UNL     1     -12.581  12.576  64.916  1.00  0.00    -0.469 C  
ENDROOT
BRANCH   2   3
HETATM    3  C   UNL     1     -11.943  13.432  66.007  1.00  0.00    -0.460 C  
BRANCH   3   4
HETATM    4  C   UNL     1     -11.680  12.622  67.270  1.00  0.00    -0.370 C  
BRANCH   4   5
HETATM    5  O   UNL     1     -11.596  13.527  68.377  1.00  0.00    -0.297 OA 
BRANCH   5   6
HETATM    6  C   UNL     1     -12.119  13.050  69.556  1.00  0.00    -0.230 A  
HETATM    7  C   UNL     1     -12.602  14.007  70.469  1.00  0.00    -0.329 A  
HETATM    8  C   UNL     1     -13.220  13.572  71.645  1.00  0.00    -0.449 A  
HETATM    9  N   UNL     1     -12.661  15.368  70.116  1.00  0.00    -0.624 NA 
HETATM   10  H1  UNL     1     -13.011  16.061  70.776  1.00  0.00     0.000 HD 
HETATM   11  C   UNL     1     -13.230  12.218  71.987  1.00  0.00    -0.508 A  
HETATM   12  H2  UNL     1     -13.199  15.450  69.253  1.00  0.00     0.000 HD 
HETATM   13  C   UNL     1     -12.650  11.280  71.129  1.00  0.00    -0.501 A  
HETATM   14  C   UNL     1     -12.116  11.699  69.904  1.00  0.00    -0.373 A  
BRANCH  13  15
HETATM   15  C   UNL     1     -12.490   9.882  71.608  1.00  0.00    -0.415 C  
HETATM   16  O   UNL     1     -13.317   9.287  72.276  1.00  0.00    -0.425 OA 
BRANCH  15  17
HETATM   17  O   UNL     1     -11.230   9.462  71.340  1.00  0.00    -0.330 OA 
BRANCH  17  18
HETATM   18  C   UNL     1     -11.153   8.224  70.613  1.00  0.00    -0.253 C  
BRANCH  18  19
HETATM   19  C   UNL     1     -10.271   7.269  71.443  1.00  0.00    -0.188 C  
BRANCH  19  20
HETATM   20  N   UNL     1     -10.843   6.742  72.695  1.00  0.00    -0.238 NA 
BRANCH  20  21
HETATM   21  C   UNL     1     -11.086   5.293  72.661  1.00  0.00    -0.260 C  
HETATM   22  C   UNL     1     -10.161   4.473  71.767  1.00  0.00    -0.226 C  
ENDBRANCH  20  21
BRANCH  20  23
HETATM   23  C   UNL     1     -10.016   7.190  73.830  1.00  0.00    -0.318 C  
HETATM   24  C   UNL     1      -8.773   7.978  73.433  1.00  0.00    -0.323 C  
ENDBRANCH  20  23
ENDBRANCH  19  20
ENDBRANCH  18  19
ENDBRANCH  17  18
ENDBRANCH  15  17
ENDBRANCH  13  15
ENDBRANCH   5   6
ENDBRANCH   4   5
ENDBRANCH   3   4
ENDBRANCH   2   3
TORSDOF 11
ENDMDL
MODEL       68
REMARK 921   NORMALIZED FREE ENERGY PREDICTED BY IDOCK:   -4.80 KCAL/MOL
REMARK 922        TOTAL FREE ENERGY PREDICTED BY IDOCK:   -8.90 KCAL/MOL
REMARK 923 INTER-LIGAND FREE ENERGY PREDICTED BY IDOCK:   -7.69 KCAL/MOL
REMARK 924 INTRA-LIGAND FREE ENERGY PREDICTED BY IDOCK:   -1.21 KCAL/MOL
REMARK 927      BINDING AFFINITY PREDICTED BY RF-SCORE:    0.00 PKD
ROOT
HETATM    1  C   UNL     1     -11.535   8.938  70.642  1.00  0.00    -0.280 C  
HETATM    2  C   UNL     1     -11.683  10.434  70.867  1.00  0.00    -0.455 C  
ENDROOT
BRANCH   2   3
HETATM    3  C   UNL     1     -11.211  11.225  69.650  1.00  0.00    -0.321 C  
BRANCH   3   4
HETATM    4  C   UNL     1     -11.531  10.495  68.351  1.00  0.00    -0.214 C  
BRANCH   4   5
HETATM    5  O   UNL     1     -10.374  10.547  67.509  1.00  0.00    -0.198 OA 
BRANCH   5   6
HETATM    6  C   UNL     1     -10.601  11.038  66.244  1.00  0.00    -0.237 A  
HETATM    7  C   UNL     1     -10.013  10.334  65.176  1.00  0.00    -0.325 A  
HETATM    8  C   UNL     1     -10.281  10.741  63.865  1.00  0.00    -0.377 A  
HETATM    9  N   UNL     1      -9.346   9.116  65.402  1.00  0.00    -0.380 NA 
HETATM   10  H1  UNL     1      -8.920   8.605  64.629  1.00  0.00     0.000 HD 
HETATM   11  C   UNL     1     -10.996  11.914  63.615  1.00  0.00    -0.511 A  
HETATM   12  H2  UNL     1      -9.986   8.486  65.885  1.00  0.00     0.000 HD 
HETATM   13  C   UNL     1     -11.484  12.671  64.683  1.00  0.00    -0.376 A  
HETATM   14  C   UNL     1     -11.303  12.217  65.995  1.00  0.00    -0.398 A  
BRANCH  13  15
HETATM   15  C   UNL     1     -12.058  14.014  64.398  1.00  0.00    -0.458 C  
HETATM   16  O   UNL     1     -12.558  14.334  63.335  1.00  0.00    -0.777 OA 
BRANCH  15  17
HETATM   17  O   UNL     1     -11.772  14.846  65.429  1.00  0.00    -0.326 OA 
BRANCH  17  18
HETATM   18  C   UNL     1     -10.720  15.789  65.162  1.00  0.00    -0.435 C  
BRANCH  18  19
HETATM   19  C   UNL     1     -10.092  16.159  66.522  1.00  0.00    -0.291 C  
BRANCH  19  20
HETATM   20  N   UNL     1     -10.308  15.222  67.639  1.00  0.00    -0.247 NA 
BRANCH  20  21
HETATM   21  C   UNL     1      -9.061  14.696  68.210  1.00  0.00    -0.189 C  
HETATM   22  C   UNL     1      -8.428  13.516  67.479  1.00  0.00    -0.192 C  
ENDBRANCH  20  21
BRANCH  20  23
HETATM   23  C   UNL     1     -11.208  15.847  68.626  1.00  0.00    -0.360 C  
HETATM   24  C   UNL     1     -11.662  14.916  69.743  1.00  0.00    -0.344 C  
ENDBRANCH  20  23
ENDBRANCH  19  20
ENDBRANCH  18  19
ENDBRANCH  17  18
ENDBRANCH  15  17
ENDBRANCH  13  15
ENDBRANCH   5   6
ENDBRANCH   4   5
ENDBRANCH   3   4
ENDBRANCH   2   3
TORSDOF 11
ENDMDL
MODEL       69
REMARK 921   NORMALIZED FREE ENERGY PREDICTED BY IDOCK:   -4.77 KCAL/MOL
REMARK 922        TOTAL FREE ENERGY PREDICTED BY IDOCK:   -8.84 KCAL/MOL
REMARK 923 INTER-LIGAND FREE ENERGY PREDICTED BY IDOCK:   -8.18 KCAL/MOL
REMARK 924 INTRA-LIGAND FREE ENERGY PREDICTED BY IDOCK:   -0.67 KCAL/MOL
REMARK 927      BINDING AFFINITY PREDICTED BY RF-SCORE:    0.00 PKD
ROOT
HETATM    1  C   UNL     1      -6.902  18.671  66.496  1.00  0.00    -0.231 C  
HETATM    2  C   UNL     1      -8.029  17.661  66.361  1.00  0.00    -0.309 C  
ENDROOT
BRANCH   2   3
HETATM    3  C   UNL     1      -8.765  17.473  67.686  1.00  0.00    -0.223 C  
BRANCH   3   4
HETATM    4  C   UNL     1     -10.011  16.615  67.516  1.00  0.00    -0.264 C  
BRANCH   4   5
HETATM    5  O   UNL     1     -10.190  16.352  66.119  1.00  0.00    -0.315 OA 
BRANCH   5   6
HETATM    6  C   UNL     1     -10.761  15.135  65.827  1.00  0.00    -0.351 A  
HETATM    7  C   UNL     1     -11.589  15.081  64.690  1.00  0.00    -0.386 A  
HETATM    8  C   UNL     1     -12.127  13.850  64.301  1.00  0.00    -0.477 A  
HETATM    9  N   UNL     1     -11.705  16.191  63.833  1.00  0.00    -1.452 NA 
HETATM   10  H1  UNL     1     -12.304  16.151  63.010  1.00  0.00     0.000 HD 
HETATM   11  C   UNL     1     -11.972  12.718  65.104  1.00  0.00    -0.466 A  
HETATM   12  H2  UNL     1     -10.768  16.460  63.532  1.00  0.00     0.000 HD 
HETATM   13  C   UNL     1     -11.241  12.803  66.291  1.00  0.00    -0.339 A  
HETATM   14  C   UNL     1     -10.618  14.009  66.637  1.00  0.00    -0.274 A  
BRANCH  13  15
HETATM   15  C   UNL     1     -11.265  11.646  67.225  1.00  0.00    -0.304 C  
HETATM   16  O   UNL     1     -12.146  11.444  68.043  1.00  0.00    -0.629 OA 
BRANCH  15  17
HETATM   17  O   UNL     1     -10.088  10.981  67.139  1.00  0.00    -0.184 OA 
BRANCH  17  18
HETATM   18  C   UNL     1      -9.960   9.872  68.046  1.00  0.00    -0.152 C  
BRANCH  18  19
HETATM   19  C   UNL     1     -10.214   8.590  67.226  1.00  0.00    -0.276 C  
BRANCH  19  20
HETATM   20  N   UNL     1     -10.201   7.311  67.958  1.00  0.00    -0.176 NA 
BRANCH  20  21
HETATM   21  C   UNL     1     -10.388   7.465  69.408  1.00  0.00    -0.210 C  
HETATM   22  C   UNL     1     -11.409   6.539  70.060  1.00  0.00    -0.472 C  
ENDBRANCH  20  21
BRANCH  20  23
HETATM   23  C   UNL     1     -11.153   6.381  67.322  1.00  0.00    -0.330 C  
HETATM   24  C   UNL     1     -10.502   5.298  66.469  1.00  0.00    -0.354 C  
ENDBRANCH  20  23
ENDBRANCH  19  20
ENDBRANCH  18  19
ENDBRANCH  17  18
ENDBRANCH  15  17
ENDBRANCH  13  15
ENDBRANCH   5   6
ENDBRANCH   4   5
ENDBRANCH   3   4
ENDBRANCH   2   3
TORSDOF 11
ENDMDL
MODEL       70
REMARK 921   NORMALIZED FREE ENERGY PREDICTED BY IDOCK:   -4.75 KCAL/MOL
REMARK 922        TOTAL FREE ENERGY PREDICTED BY IDOCK:   -8.82 KCAL/MOL
REMARK 923 INTER-LIGAND FREE ENERGY PREDICTED BY IDOCK:   -7.95 KCAL/MOL
REMARK 924 INTRA-LIGAND FREE ENERGY PREDICTED BY IDOCK:   -0.87 KCAL/MOL
REMARK 927      BINDING AFFINITY PREDICTED BY RF-SCORE:    0.00 PKD
ROOT
HETATM    1  C   UNL     1     -10.977   6.092  68.042  1.00  0.00    -0.399 C  
HETATM    2  C   UNL     1     -10.840   7.163  69.111  1.00  0.00    -0.185 C  
ENDROOT
BRANCH   2   3
HETATM    3  C   UNL     1     -10.355   8.482  68.513  1.00  0.00    -0.230 C  
BRANCH   3   4
HETATM    4  C   UNL     1     -10.456   8.476  66.993  1.00  0.00    -0.292 C  
BRANCH   4   5
HETATM    5  O   UNL     1      -9.521   9.430  66.476  1.00  0.00    -0.163 OA 
BRANCH   5   6
HETATM    6  C   UNL     1     -10.072  10.407  65.681  1.00  0.00    -0.269 A  
HETATM    7  C   UNL     1      -9.742  10.370  64.312  1.00  0.00    -0.326 A  
HETATM    8  C   UNL     1     -10.342  11.289  63.444  1.00  0.00    -0.449 A  
HETATM    9  N   UNL     1      -8.996   9.301  63.783  1.00  0.00    -0.421 NA 
HETATM   10  H1  UNL     1      -8.757   9.274  62.792  1.00  0.00     0.000 HD 
HETATM   11  C   UNL     1     -11.139  12.323  63.940  1.00  0.00    -0.475 A  
HETATM   12  H2  UNL     1      -9.474   8.431  64.020  1.00  0.00     0.000 HD 
HETATM   13  C   UNL     1     -11.374  12.421  65.314  1.00  0.00    -0.374 A  
HETATM   14  C   UNL     1     -10.857  11.448  66.178  1.00  0.00    -0.310 A  
BRANCH  13  15
HETATM   15  C   UNL     1     -12.049  13.641  65.834  1.00  0.00    -0.439 C  
HETATM   16  O   UNL     1     -13.081  14.099  65.378  1.00  0.00    -0.743 OA 
BRANCH  15  17
HETATM   17  O   UNL     1     -11.247  14.235  66.750  1.00  0.00    -0.313 OA 
BRANCH  17  18
HETATM   18  C   UNL     1     -11.945  14.851  67.846  1.00  0.00    -0.176 C  
BRANCH  18  19
HETATM   19  C   UNL     1     -11.935  13.839  69.011  1.00  0.00    -0.360 C  
BRANCH  19  20
HETATM   20  N   UNL     1     -12.554  14.268  70.278  1.00  0.00    -0.350 NA 
BRANCH  20  21
HETATM   21  C   UNL     1     -12.581  13.212  71.301  1.00  0.00    -0.290 C  
HETATM   22  C   UNL     1     -12.373  11.785  70.805  1.00  0.00    -0.433 C  
ENDBRANCH  20  21
BRANCH  20  23
HETATM   23  C   UNL     1     -11.923  15.524  70.723  1.00  0.00    -0.378 C  
HETATM   24  C   UNL     1     -11.868  15.700  72.236  1.00  0.00    -0.578 C  
ENDBRANCH  20  23
ENDBRANCH  19  20
ENDBRANCH  18  19
ENDBRANCH  17  18
ENDBRANCH  15  17
ENDBRANCH  13  15
ENDBRANCH   5   6
ENDBRANCH   4   5
ENDBRANCH   3   4
ENDBRANCH   2   3
TORSDOF 11
ENDMDL
MODEL       71
REMARK 921   NORMALIZED FREE ENERGY PREDICTED BY IDOCK:   -4.74 KCAL/MOL
REMARK 922        TOTAL FREE ENERGY PREDICTED BY IDOCK:   -8.79 KCAL/MOL
REMARK 923 INTER-LIGAND FREE ENERGY PREDICTED BY IDOCK:   -7.43 KCAL/MOL
REMARK 924 INTRA-LIGAND FREE ENERGY PREDICTED BY IDOCK:   -1.36 KCAL/MOL
REMARK 927      BINDING AFFINITY PREDICTED BY RF-SCORE:    0.00 PKD
ROOT
HETATM    1  C   UNL     1     -10.471   8.376  72.072  1.00  0.00    -0.384 C  
HETATM    2  C   UNL     1     -11.670   8.548  71.154  1.00  0.00    -0.322 C  
ENDROOT
BRANCH   2   3
HETATM    3  C   UNL     1     -12.548   9.714  71.604  1.00  0.00    -0.493 C  
BRANCH   3   4
HETATM    4  C   UNL     1     -12.719  10.744  70.495  1.00  0.00    -0.305 C  
BRANCH   4   5
HETATM    5  O   UNL     1     -11.462  11.400  70.291  1.00  0.00    -0.277 OA 
BRANCH   5   6
HETATM    6  C   UNL     1     -11.084  11.531  68.976  1.00  0.00    -0.245 A  
HETATM    7  C   UNL     1      -9.794  11.079  68.639  1.00  0.00    -0.193 A  
HETATM    8  C   UNL     1      -9.391  11.111  67.300  1.00  0.00    -0.170 A  
HETATM    9  N   UNL     1      -9.001  10.405  69.586  1.00  0.00    -0.390 NA 
HETATM   10  H1  UNL     1      -8.066  10.078  69.343  1.00  0.00     0.000 HD 
HETATM   11  C   UNL     1     -10.191  11.718  66.329  1.00  0.00    -0.255 A  
HETATM   12  H2  UNL     1      -9.534   9.612  69.943  1.00  0.00     0.000 HD 
HETATM   13  C   UNL     1     -11.424  12.266  66.689  1.00  0.00    -0.431 A  
HETATM   14  C   UNL     1     -11.877  12.150  68.009  1.00  0.00    -0.351 A  
BRANCH  13  15
HETATM   15  C   UNL     1     -12.158  13.084  65.686  1.00  0.00    -0.454 C  
HETATM   16  O   UNL     1     -12.701  12.629  64.696  1.00  0.00    -0.643 OA 
BRANCH  15  17
HETATM   17  O   UNL     1     -11.967  14.397  65.959  1.00  0.00    -0.386 OA 
BRANCH  17  18
HETATM   18  C   UNL     1     -11.116  15.085  65.026  1.00  0.00    -0.413 C  
BRANCH  18  19
HETATM   19  C   UNL     1      -9.993  15.751  65.847  1.00  0.00    -0.352 C  
BRANCH  19  20
HETATM   20  N   UNL     1     -10.158  15.780  67.312  1.00  0.00    -0.243 NA 
BRANCH  20  21
HETATM   21  C   UNL     1      -9.013  15.215  68.039  1.00  0.00    -0.172 C  
HETATM   22  C   UNL     1      -7.746  14.974  67.224  1.00  0.00    -0.233 C  
ENDBRANCH  20  21
BRANCH  20  23
HETATM   23  C   UNL     1     -10.525  17.145  67.730  1.00  0.00    -0.362 C  
HETATM   24  C   UNL     1      -9.969  18.249  66.838  1.00  0.00    -0.356 C  
ENDBRANCH  20  23
ENDBRANCH  19  20
ENDBRANCH  18  19
ENDBRANCH  17  18
ENDBRANCH  15  17
ENDBRANCH  13  15
ENDBRANCH   5   6
ENDBRANCH   4   5
ENDBRANCH   3   4
ENDBRANCH   2   3
TORSDOF 11
ENDMDL
MODEL       72
REMARK 921   NORMALIZED FREE ENERGY PREDICTED BY IDOCK:   -4.73 KCAL/MOL
REMARK 922        TOTAL FREE ENERGY PREDICTED BY IDOCK:   -8.78 KCAL/MOL
REMARK 923 INTER-LIGAND FREE ENERGY PREDICTED BY IDOCK:   -7.95 KCAL/MOL
REMARK 924 INTRA-LIGAND FREE ENERGY PREDICTED BY IDOCK:   -0.83 KCAL/MOL
REMARK 927      BINDING AFFINITY PREDICTED BY RF-SCORE:    0.00 PKD
ROOT
HETATM    1  C   UNL     1      -9.765   6.111  66.913  1.00  0.00    -0.178 C  
HETATM    2  C   UNL     1      -9.078   7.464  66.835  1.00  0.00    -0.164 C  
ENDROOT
BRANCH   2   3
HETATM    3  C   UNL     1     -10.081   8.575  66.528  1.00  0.00    -0.328 C  
BRANCH   3   4
HETATM    4  C   UNL     1      -9.378   9.892  66.225  1.00  0.00    -0.176 C  
BRANCH   4   5
HETATM    5  O   UNL     1      -9.997  10.479  65.074  1.00  0.00    -0.278 OA 
BRANCH   5   6
HETATM    6  C   UNL     1     -10.829  11.541  65.343  1.00  0.00    -0.259 A  
HETATM    7  C   UNL     1     -11.473  12.135  64.241  1.00  0.00    -0.367 A  
HETATM    8  C   UNL     1     -12.394  13.163  64.467  1.00  0.00    -0.447 A  
HETATM    9  N   UNL     1     -11.365  11.571  62.957  1.00  0.00    -0.834 NA 
HETATM   10  H1  UNL     1     -11.831  12.001  62.159  1.00  0.00     0.000 HD 
HETATM   11  C   UNL     1     -12.567  13.698  65.745  1.00  0.00    -0.511 A  
HETATM   12  H2  UNL     1     -11.660  10.596  63.011  1.00  0.00     0.000 HD 
HETATM   13  C   UNL     1     -11.841  13.178  66.820  1.00  0.00    -0.444 A  
HETATM   14  C   UNL     1     -10.990  12.084  66.617  1.00  0.00    -0.330 A  
BRANCH  13  15
HETATM   15  C   UNL     1     -11.886  13.895  68.122  1.00  0.00    -0.372 C  
HETATM   16  O   UNL     1     -12.047  13.349  69.200  1.00  0.00    -0.317 OA 
BRANCH  15  17
HETATM   17  O   UNL     1     -11.902  15.230  67.893  1.00  0.00    -0.303 OA 
BRANCH  17  18
HETATM   18  C   UNL     1     -11.302  16.022  68.933  1.00  0.00    -0.370 C  
BRANCH  18  19
HETATM   19  C   UNL     1     -10.174  16.845  68.276  1.00  0.00    -0.318 C  
BRANCH  19  20
HETATM   20  N   UNL     1     -10.302  17.132  66.836  1.00  0.00    -0.317 NA 
BRANCH  20  21
HETATM   21  C   UNL     1     -10.342  18.569  66.528  1.00  0.00    -0.414 C  
HETATM   22  C   UNL     1     -10.231  19.518  67.716  1.00  0.00    -0.550 C  
ENDBRANCH  20  21
BRANCH  20  23
HETATM   23  C   UNL     1      -9.265  16.385  66.100  1.00  0.00    -0.330 C  
HETATM   24  C   UNL     1      -7.862  16.967  66.224  1.00  0.00    -0.346 C  
ENDBRANCH  20  23
ENDBRANCH  19  20
ENDBRANCH  18  19
ENDBRANCH  17  18
ENDBRANCH  15  17
ENDBRANCH  13  15
ENDBRANCH   5   6
ENDBRANCH   4   5
ENDBRANCH   3   4
ENDBRANCH   2   3
TORSDOF 11
ENDMDL
MODEL       73
REMARK 921   NORMALIZED FREE ENERGY PREDICTED BY IDOCK:   -4.72 KCAL/MOL
REMARK 922        TOTAL FREE ENERGY PREDICTED BY IDOCK:   -8.77 KCAL/MOL
REMARK 923 INTER-LIGAND FREE ENERGY PREDICTED BY IDOCK:   -7.92 KCAL/MOL
REMARK 924 INTRA-LIGAND FREE ENERGY PREDICTED BY IDOCK:   -0.85 KCAL/MOL
REMARK 927      BINDING AFFINITY PREDICTED BY RF-SCORE:    0.00 PKD
ROOT
HETATM    1  C   UNL     1     -13.251   9.372  72.086  1.00  0.00    -0.541 C  
HETATM    2  C   UNL     1     -13.012  10.772  71.543  1.00  0.00    -0.562 C  
ENDROOT
BRANCH   2   3
HETATM    3  C   UNL     1     -11.810  10.803  70.603  1.00  0.00    -0.460 C  
BRANCH   3   4
HETATM    4  C   UNL     1     -12.019  11.789  69.461  1.00  0.00    -0.300 C  
BRANCH   4   5
HETATM    5  O   UNL     1     -12.140  13.103  70.018  1.00  0.00    -0.325 OA 
BRANCH   5   6
HETATM    6  C   UNL     1     -11.738  14.123  69.187  1.00  0.00    -0.327 A  
HETATM    7  C   UNL     1     -11.547  15.385  69.781  1.00  0.00    -0.323 A  
HETATM    8  C   UNL     1     -11.056  16.436  68.998  1.00  0.00    -0.315 A  
HETATM    9  N   UNL     1     -11.636  15.543  71.176  1.00  0.00    -0.358 NA 
HETATM   10  H1  UNL     1     -11.498  16.457  71.605  1.00  0.00     0.000 HD 
HETATM   11  C   UNL     1     -10.898  16.284  67.619  1.00  0.00    -0.293 A  
HETATM   12  H2  UNL     1     -10.991  14.884  71.613  1.00  0.00     0.000 HD 
HETATM   13  C   UNL     1     -11.196  15.059  67.016  1.00  0.00    -0.328 A  
HETATM   14  C   UNL     1     -11.594  13.975  67.808  1.00  0.00    -0.378 A  
BRANCH  13  15
HETATM   15  C   UNL     1     -11.219  14.985  65.530  1.00  0.00    -0.344 C  
HETATM   16  O   UNL     1     -10.775  15.848  64.794  1.00  0.00    -0.559 OA 
BRANCH  15  17
HETATM   17  O   UNL     1     -11.958  13.915  65.151  1.00  0.00    -0.350 OA 
BRANCH  17  18
HETATM   18  C   UNL     1     -11.338  13.083  64.155  1.00  0.00    -0.397 C  
BRANCH  18  19
HETATM   19  C   UNL     1     -10.468  12.054  64.906  1.00  0.00    -0.285 C  
BRANCH  19  20
HETATM   20  N   UNL     1     -10.309  10.727  64.284  1.00  0.00    -0.366 NA 
BRANCH  20  21
HETATM   21  C   UNL     1      -9.681  10.776  62.956  1.00  0.00    -0.340 C  
HETATM   22  C   UNL     1      -8.655   9.689  62.653  1.00  0.00    -0.206 C  
ENDBRANCH  20  21
BRANCH  20  23
HETATM   23  C   UNL     1      -9.637   9.824  65.237  1.00  0.00    -0.300 C  
HETATM   24  C   UNL     1     -10.358   9.666  66.570  1.00  0.00    -0.264 C  
ENDBRANCH  20  23
ENDBRANCH  19  20
ENDBRANCH  18  19
ENDBRANCH  17  18
ENDBRANCH  15  17
ENDBRANCH  13  15
ENDBRANCH   5   6
ENDBRANCH   4   5
ENDBRANCH   3   4
ENDBRANCH   2   3
TORSDOF 11
ENDMDL
MODEL       74
REMARK 921   NORMALIZED FREE ENERGY PREDICTED BY IDOCK:   -4.70 KCAL/MOL
REMARK 922        TOTAL FREE ENERGY PREDICTED BY IDOCK:   -8.74 KCAL/MOL
REMARK 923 INTER-LIGAND FREE ENERGY PREDICTED BY IDOCK:   -7.87 KCAL/MOL
REMARK 924 INTRA-LIGAND FREE ENERGY PREDICTED BY IDOCK:   -0.87 KCAL/MOL
REMARK 927      BINDING AFFINITY PREDICTED BY RF-SCORE:    0.00 PKD
ROOT
HETATM    1  C   UNL     1     -10.848   9.624  68.866  1.00  0.00    -0.201 C  
HETATM    2  C   UNL     1     -11.023  10.563  67.683  1.00  0.00    -0.375 C  
ENDROOT
BRANCH   2   3
HETATM    3  C   UNL     1     -10.107  10.170  66.526  1.00  0.00    -0.296 C  
BRANCH   3   4
HETATM    4  C   UNL     1      -9.157  11.303  66.158  1.00  0.00    -0.204 C  
BRANCH   4   5
HETATM    5  O   UNL     1      -9.356  11.627  64.777  1.00  0.00    -0.126 OA 
BRANCH   5   6
HETATM    6  C   UNL     1     -10.239  12.656  64.545  1.00  0.00    -0.305 A  
HETATM    7  C   UNL     1     -11.276  12.406  63.626  1.00  0.00    -0.474 A  
HETATM    8  C   UNL     1     -12.249  13.389  63.418  1.00  0.00    -0.419 A  
HETATM    9  N   UNL     1     -11.462  11.120  63.087  1.00  0.00    -0.721 NA 
HETATM   10  H1  UNL     1     -12.213  10.939  62.422  1.00  0.00     0.000 HD 
HETATM   11  C   UNL     1     -12.120  14.655  63.994  1.00  0.00    -0.229 A  
HETATM   12  H2  UNL     1     -11.555  10.461  63.860  1.00  0.00     0.000 HD 
HETATM   13  C   UNL     1     -11.027  14.934  64.818  1.00  0.00    -0.390 A  
HETATM   14  C   UNL     1     -10.101  13.924  65.109  1.00  0.00    -0.330 A  
BRANCH  13  15
HETATM   15  C   UNL     1     -10.802  16.340  65.249  1.00  0.00    -0.297 C  
HETATM   16  O   UNL     1     -11.120  17.316  64.593  1.00  0.00    -1.052 OA 
BRANCH  15  17
HETATM   17  O   UNL     1     -10.045  16.345  66.372  1.00  0.00    -0.285 OA 
BRANCH  17  18
HETATM   18  C   UNL     1     -10.235  17.492  67.217  1.00  0.00    -0.335 C  
BRANCH  18  19
HETATM   19  C   UNL     1      -8.904  17.729  67.961  1.00  0.00    -0.259 C  
BRANCH  19  20
HETATM   20  N   UNL     1      -8.256  19.040  67.780  1.00  0.00    -0.271 NA 
BRANCH  20  21
HETATM   21  C   UNL     1      -6.834  19.046  68.152  1.00  0.00    -0.244 C  
HETATM   22  C   UNL     1      -6.490  19.691  69.491  1.00  0.00    -0.374 C  
ENDBRANCH  20  21
BRANCH  20  23
HETATM   23  C   UNL     1      -8.525  19.527  66.414  1.00  0.00    -0.352 C  
HETATM   24  C   UNL     1      -7.275  19.844  65.601  1.00  0.00    -0.331 C  
ENDBRANCH  20  23
ENDBRANCH  19  20
ENDBRANCH  18  19
ENDBRANCH  17  18
ENDBRANCH  15  17
ENDBRANCH  13  15
ENDBRANCH   5   6
ENDBRANCH   4   5
ENDBRANCH   3   4
ENDBRANCH   2   3
TORSDOF 11
ENDMDL
MODEL       75
REMARK 921   NORMALIZED FREE ENERGY PREDICTED BY IDOCK:   -4.69 KCAL/MOL
REMARK 922        TOTAL FREE ENERGY PREDICTED BY IDOCK:   -8.72 KCAL/MOL
REMARK 923 INTER-LIGAND FREE ENERGY PREDICTED BY IDOCK:   -7.61 KCAL/MOL
REMARK 924 INTRA-LIGAND FREE ENERGY PREDICTED BY IDOCK:   -1.12 KCAL/MOL
REMARK 927      BINDING AFFINITY PREDICTED BY RF-SCORE:    0.00 PKD
ROOT
HETATM    1  C   UNL     1     -10.466   7.516  67.196  1.00  0.00    -0.407 C  
HETATM    2  C   UNL     1     -11.017   6.222  67.771  1.00  0.00    -0.427 C  
ENDROOT
BRANCH   2   3
HETATM    3  C   UNL     1     -10.575   6.028  69.219  1.00  0.00    -0.366 C  
BRANCH   3   4
HETATM    4  C   UNL     1      -9.643   7.145  69.672  1.00  0.00    -0.154 C  
BRANCH   4   5
HETATM    5  O   UNL     1     -10.007   7.521  71.006  1.00  0.00    -0.186 OA 
BRANCH   5   6
HETATM    6  C   UNL     1     -10.929   8.538  71.089  1.00  0.00    -0.253 A  
HETATM    7  C   UNL     1     -11.966   8.377  72.028  1.00  0.00    -0.357 A  
HETATM    8  C   UNL     1     -12.882   9.418  72.212  1.00  0.00    -0.452 A  
HETATM    9  N   UNL     1     -11.963   7.290  72.920  1.00  0.00    -0.520 NA 
HETATM   10  H1  UNL     1     -12.714   7.174  73.600  1.00  0.00     0.000 HD 
HETATM   11  C   UNL     1     -12.866  10.539  71.378  1.00  0.00    -0.551 A  
HETATM   12  H2  UNL     1     -11.075   7.293  73.423  1.00  0.00     0.000 HD 
HETATM   13  C   UNL     1     -11.901  10.643  70.373  1.00  0.00    -0.441 A  
HETATM   14  C   UNL     1     -10.921   9.650  70.247  1.00  0.00    -0.337 A  
BRANCH  13  15
HETATM   15  C   UNL     1     -12.031  11.736  69.373  1.00  0.00    -0.298 C  
HETATM   16  O   UNL     1     -12.082  11.560  68.168  1.00  0.00    -0.604 OA 
BRANCH  15  17
HETATM   17  O   UNL     1     -11.902  12.930  70.001  1.00  0.00    -0.326 OA 
BRANCH  17  18
HETATM   18  C   UNL     1     -11.960  14.073  69.130  1.00  0.00    -0.360 C  
BRANCH  18  19
HETATM   19  C   UNL     1     -10.579  14.759  69.198  1.00  0.00    -0.248 C  
BRANCH  19  20
HETATM   20  N   UNL     1      -9.892  15.014  67.919  1.00  0.00    -0.216 NA 
BRANCH  20  21
HETATM   21  C   UNL     1      -9.852  13.841  67.034  1.00  0.00    -0.251 C  
HETATM   22  C   UNL     1      -8.944  12.696  67.470  1.00  0.00    -0.187 C  
ENDBRANCH  20  21
BRANCH  20  23
HETATM   23  C   UNL     1     -10.463  16.222  67.296  1.00  0.00    -0.300 C  
HETATM   24  C   UNL     1     -10.538  17.432  68.220  1.00  0.00    -0.366 C  
ENDBRANCH  20  23
ENDBRANCH  19  20
ENDBRANCH  18  19
ENDBRANCH  17  18
ENDBRANCH  15  17
ENDBRANCH  13  15
ENDBRANCH   5   6
ENDBRANCH   4   5
ENDBRANCH   3   4
ENDBRANCH   2   3
TORSDOF 11
ENDMDL
MODEL       76
REMARK 921   NORMALIZED FREE ENERGY PREDICTED BY IDOCK:   -4.69 KCAL/MOL
REMARK 922        TOTAL FREE ENERGY PREDICTED BY IDOCK:   -8.71 KCAL/MOL
REMARK 923 INTER-LIGAND FREE ENERGY PREDICTED BY IDOCK:   -7.74 KCAL/MOL
REMARK 924 INTRA-LIGAND FREE ENERGY PREDICTED BY IDOCK:   -0.98 KCAL/MOL
REMARK 927      BINDING AFFINITY PREDICTED BY RF-SCORE:    0.00 PKD
ROOT
HETATM    1  C   UNL     1     -13.003  11.347  71.664  1.00  0.00    -0.523 C  
HETATM    2  C   UNL     1     -13.049   9.829  71.710  1.00  0.00    -0.528 C  
ENDROOT
BRANCH   2   3
HETATM    3  C   UNL     1     -11.646   9.231  71.632  1.00  0.00    -0.463 C  
BRANCH   3   4
HETATM    4  C   UNL     1     -10.795   9.939  70.586  1.00  0.00    -0.330 C  
BRANCH   4   5
HETATM    5  O   UNL     1     -10.993   9.285  69.327  1.00  0.00    -0.191 OA 
BRANCH   5   6
HETATM    6  C   UNL     1     -10.998  10.122  68.235  1.00  0.00    -0.248 A  
HETATM    7  C   UNL     1     -10.334   9.663  67.082  1.00  0.00    -0.254 A  
HETATM    8  C   UNL     1     -10.381  10.437  65.918  1.00  0.00    -0.261 A  
HETATM    9  N   UNL     1      -9.817   8.356  67.025  1.00  0.00    -0.206 NA 
HETATM   10  H1  UNL     1      -9.336   8.023  66.190  1.00  0.00     0.000 HD 
HETATM   11  C   UNL     1     -10.946  11.714  65.933  1.00  0.00    -0.334 A  
HETATM   12  H2  UNL     1     -10.572   7.704  67.239  1.00  0.00     0.000 HD 
HETATM   13  C   UNL     1     -11.507  12.212  67.112  1.00  0.00    -0.413 A  
HETATM   14  C   UNL     1     -11.551  11.403  68.255  1.00  0.00    -0.376 A  
BRANCH  13  15
HETATM   15  C   UNL     1     -11.913  13.642  67.158  1.00  0.00    -0.393 C  
HETATM   16  O   UNL     1     -12.550  14.202  66.283  1.00  0.00    -0.449 OA 
BRANCH  15  17
HETATM   17  O   UNL     1     -11.315  14.239  68.217  1.00  0.00    -0.262 OA 
BRANCH  17  18
HETATM   18  C   UNL     1     -11.885  15.506  68.589  1.00  0.00    -0.300 C  
BRANCH  18  19
HETATM   19  C   UNL     1     -10.734  16.373  69.138  1.00  0.00    -0.317 C  
BRANCH  19  20
HETATM   20  N   UNL     1      -9.914  17.103  68.154  1.00  0.00    -0.282 NA 
BRANCH  20  21
HETATM   21  C   UNL     1     -10.361  16.915  66.767  1.00  0.00    -0.298 C  
HETATM   22  C   UNL     1      -9.436  16.108  65.862  1.00  0.00    -0.337 C  
ENDBRANCH  20  21
BRANCH  20  23
HETATM   23  C   UNL     1      -9.805  18.515  68.568  1.00  0.00    -0.381 C  
HETATM   24  C   UNL     1     -10.523  19.497  67.651  1.00  0.00    -0.593 C  
ENDBRANCH  20  23
ENDBRANCH  19  20
ENDBRANCH  18  19
ENDBRANCH  17  18
ENDBRANCH  15  17
ENDBRANCH  13  15
ENDBRANCH   5   6
ENDBRANCH   4   5
ENDBRANCH   3   4
ENDBRANCH   2   3
TORSDOF 11
ENDMDL
MODEL       77
REMARK 921   NORMALIZED FREE ENERGY PREDICTED BY IDOCK:   -4.68 KCAL/MOL
REMARK 922        TOTAL FREE ENERGY PREDICTED BY IDOCK:   -8.70 KCAL/MOL
REMARK 923 INTER-LIGAND FREE ENERGY PREDICTED BY IDOCK:   -7.57 KCAL/MOL
REMARK 924 INTRA-LIGAND FREE ENERGY PREDICTED BY IDOCK:   -1.12 KCAL/MOL
REMARK 927      BINDING AFFINITY PREDICTED BY RF-SCORE:    0.00 PKD
ROOT
HETATM    1  C   UNL     1     -13.615  13.634  72.327  1.00  0.00    -0.669 C  
HETATM    2  C   UNL     1     -12.725  13.116  71.210  1.00  0.00    -0.396 C  
ENDROOT
BRANCH   2   3
HETATM    3  C   UNL     1     -12.374  14.228  70.223  1.00  0.00    -0.418 C  
BRANCH   3   4
HETATM    4  C   UNL     1     -11.479  13.716  69.101  1.00  0.00    -0.297 C  
BRANCH   4   5
HETATM    5  O   UNL     1     -12.128  13.978  67.852  1.00  0.00    -0.363 OA 
BRANCH   5   6
HETATM    6  C   UNL     1     -11.699  13.201  66.802  1.00  0.00    -0.385 A  
HETATM    7  C   UNL     1     -12.453  13.266  65.615  1.00  0.00    -0.451 A  
HETATM    8  C   UNL     1     -12.012  12.561  64.491  1.00  0.00    -0.472 A  
HETATM    9  N   UNL     1     -13.507  14.189  65.485  1.00  0.00    -0.616 NA 
HETATM   10  H1  UNL     1     -14.053  14.236  64.626  1.00  0.00     0.000 HD 
HETATM   11  C   UNL     1     -10.926  11.686  64.578  1.00  0.00    -0.376 A  
HETATM   12  H2  UNL     1     -13.142  15.120  65.683  1.00  0.00     0.000 HD 
HETATM   13  C   UNL     1     -10.248  11.540  65.791  1.00  0.00    -0.293 A  
HETATM   14  C   UNL     1     -10.624  12.317  66.894  1.00  0.00    -0.249 A  
BRANCH  13  15
HETATM   15  C   UNL     1      -9.236  10.457  65.913  1.00  0.00    -0.170 C  
HETATM   16  O   UNL     1      -8.051  10.647  66.123  1.00  0.00    -0.143 OA 
BRANCH  15  17
HETATM   17  O   UNL     1      -9.808   9.275  65.580  1.00  0.00    -0.289 OA 
BRANCH  17  18
HETATM   18  C   UNL     1      -9.501   8.190  66.472  1.00  0.00    -0.221 C  
BRANCH  18  19
HETATM   19  C   UNL     1     -10.597   8.177  67.558  1.00  0.00    -0.221 C  
BRANCH  19  20
HETATM   20  N   UNL     1     -10.196   8.560  68.923  1.00  0.00    -0.204 NA 
BRANCH  20  21
HETATM   21  C   UNL     1     -10.844   9.790  69.400  1.00  0.00    -0.232 C  
HETATM   22  C   UNL     1     -11.265   9.807  70.865  1.00  0.00    -0.429 C  
ENDBRANCH  20  21
BRANCH  20  23
HETATM   23  C   UNL     1     -10.365   7.401  69.820  1.00  0.00    -0.222 C  
HETATM   24  C   UNL     1     -11.255   6.297  69.262  1.00  0.00    -0.458 C  
ENDBRANCH  20  23
ENDBRANCH  19  20
ENDBRANCH  18  19
ENDBRANCH  17  18
ENDBRANCH  15  17
ENDBRANCH  13  15
ENDBRANCH   5   6
ENDBRANCH   4   5
ENDBRANCH   3   4
ENDBRANCH   2   3
TORSDOF 11
ENDMDL
MODEL       78
REMARK 921   NORMALIZED FREE ENERGY PREDICTED BY IDOCK:   -4.67 KCAL/MOL
REMARK 922        TOTAL FREE ENERGY PREDICTED BY IDOCK:   -8.68 KCAL/MOL
REMARK 923 INTER-LIGAND FREE ENERGY PREDICTED BY IDOCK:   -7.51 KCAL/MOL
REMARK 924 INTRA-LIGAND FREE ENERGY PREDICTED BY IDOCK:   -1.17 KCAL/MOL
REMARK 927      BINDING AFFINITY PREDICTED BY RF-SCORE:    0.00 PKD
ROOT
HETATM    1  C   UNL     1     -10.517  11.404  63.717  1.00  0.00    -0.456 C  
HETATM    2  C   UNL     1     -11.531  12.517  63.506  1.00  0.00    -0.570 C  
ENDROOT
BRANCH   2   3
HETATM    3  C   UNL     1     -12.622  12.479  64.574  1.00  0.00    -0.503 C  
BRANCH   3   4
HETATM    4  C   UNL     1     -12.759  13.823  65.279  1.00  0.00    -0.439 C  
BRANCH   4   5
HETATM    5  O   UNL     1     -12.547  13.620  66.681  1.00  0.00    -0.306 OA 
BRANCH   5   6
HETATM    6  C   UNL     1     -11.240  13.388  67.040  1.00  0.00    -0.305 A  
HETATM    7  C   UNL     1     -10.985  12.218  67.781  1.00  0.00    -0.232 A  
HETATM    8  C   UNL     1      -9.662  11.891  68.100  1.00  0.00    -0.194 A  
HETATM    9  N   UNL     1     -12.006  11.279  68.013  1.00  0.00    -0.641 NA 
HETATM   10  H1  UNL     1     -11.822  10.432  68.549  1.00  0.00     0.000 HD 
HETATM   11  C   UNL     1      -8.621  12.780  67.822  1.00  0.00    -0.184 A  
HETATM   12  H2  UNL     1     -12.400  11.007  67.112  1.00  0.00     0.000 HD 
HETATM   13  C   UNL     1      -8.895  13.993  67.185  1.00  0.00    -0.239 A  
HETATM   14  C   UNL     1     -10.202  14.282  66.776  1.00  0.00    -0.272 A  
BRANCH  13  15
HETATM   15  C   UNL     1      -7.809  15.005  67.088  1.00  0.00    -0.190 C  
HETATM   16  O   UNL     1      -6.622  14.746  67.166  1.00  0.00    -0.253 OA 
BRANCH  15  17
HETATM   17  O   UNL     1      -8.357  16.244  67.083  1.00  0.00    -0.169 OA 
BRANCH  17  18
HETATM   18  C   UNL     1      -7.733  17.171  66.178  1.00  0.00    -0.267 C  
BRANCH  18  19
HETATM   19  C   UNL     1      -8.285  18.571  66.516  1.00  0.00    -0.281 C  
BRANCH  19  20
HETATM   20  N   UNL     1      -9.066  18.704  67.759  1.00  0.00    -0.282 NA 
BRANCH  20  21
HETATM   21  C   UNL     1      -8.357  19.434  68.819  1.00  0.00    -0.344 C  
HETATM   22  C   UNL     1      -6.836  19.468  68.715  1.00  0.00    -0.357 C  
ENDBRANCH  20  21
BRANCH  20  23
HETATM   23  C   UNL     1     -10.398  19.248  67.437  1.00  0.00    -0.438 C  
HETATM   24  C   UNL     1     -10.580  19.646  65.977  1.00  0.00    -0.584 C  
ENDBRANCH  20  23
ENDBRANCH  19  20
ENDBRANCH  18  19
ENDBRANCH  17  18
ENDBRANCH  15  17
ENDBRANCH  13  15
ENDBRANCH   5   6
ENDBRANCH   4   5
ENDBRANCH   3   4
ENDBRANCH   2   3
TORSDOF 11
ENDMDL
MODEL       79
REMARK 921   NORMALIZED FREE ENERGY PREDICTED BY IDOCK:   -4.65 KCAL/MOL
REMARK 922        TOTAL FREE ENERGY PREDICTED BY IDOCK:   -8.65 KCAL/MOL
REMARK 923 INTER-LIGAND FREE ENERGY PREDICTED BY IDOCK:   -7.52 KCAL/MOL
REMARK 924 INTRA-LIGAND FREE ENERGY PREDICTED BY IDOCK:   -1.13 KCAL/MOL
REMARK 927      BINDING AFFINITY PREDICTED BY RF-SCORE:    0.00 PKD
ROOT
HETATM    1  C   UNL     1      -6.721  10.172  63.307  1.00  0.00    -0.131 C  
HETATM    2  C   UNL     1      -7.721   9.705  64.352  1.00  0.00    -0.128 C  
ENDROOT
BRANCH   2   3
HETATM    3  C   UNL     1      -9.146   9.738  63.806  1.00  0.00    -0.270 C  
BRANCH   3   4
HETATM    4  C   UNL     1      -9.606  11.164  63.531  1.00  0.00    -0.315 C  
BRANCH   4   5
HETATM    5  O   UNL     1     -11.024  11.226  63.730  1.00  0.00    -0.387 OA 
BRANCH   5   6
HETATM    6  C   UNL     1     -11.439  12.164  64.646  1.00  0.00    -0.328 A  
HETATM    7  C   UNL     1     -12.011  13.343  64.130  1.00  0.00    -0.450 A  
HETATM    8  C   UNL     1     -12.526  14.292  65.019  1.00  0.00    -0.409 A  
HETATM    9  N   UNL     1     -12.261  13.475  62.752  1.00  0.00    -0.793 NA 
HETATM   10  H1  UNL     1     -12.675  14.329  62.378  1.00  0.00     0.000 HD 
HETATM   11  C   UNL     1     -12.346  14.151  66.397  1.00  0.00    -0.431 A  
HETATM   12  H2  UNL     1     -12.834  12.686  62.455  1.00  0.00     0.000 HD 
HETATM   13  C   UNL     1     -11.679  13.031  66.899  1.00  0.00    -0.441 A  
HETATM   14  C   UNL     1     -11.247  12.029  66.021  1.00  0.00    -0.385 A  
BRANCH  13  15
HETATM   15  C   UNL     1     -11.320  13.006  68.342  1.00  0.00    -0.291 C  
HETATM   16  O   UNL     1     -10.552  12.204  68.843  1.00  0.00    -0.212 OA 
BRANCH  15  17
HETATM   17  O   UNL     1     -12.107  13.882  69.011  1.00  0.00    -0.349 OA 
BRANCH  17  18
HETATM   18  C   UNL     1     -11.393  14.833  69.818  1.00  0.00    -0.283 C  
BRANCH  18  19
HETATM   19  C   UNL     1     -11.466  16.189  69.086  1.00  0.00    -0.311 C  
BRANCH  19  20
HETATM   20  N   UNL     1     -10.189  16.809  68.689  1.00  0.00    -0.278 NA 
BRANCH  20  21
HETATM   21  C   UNL     1      -9.081  15.849  68.586  1.00  0.00    -0.206 C  
HETATM   22  C   UNL     1      -8.687  15.421  67.176  1.00  0.00    -0.243 C  
ENDBRANCH  20  21
BRANCH  20  23
HETATM   23  C   UNL     1     -10.402  17.619  67.475  1.00  0.00    -0.365 C  
HETATM   24  C   UNL     1     -10.400  19.124  67.713  1.00  0.00    -0.513 C  
ENDBRANCH  20  23
ENDBRANCH  19  20
ENDBRANCH  18  19
ENDBRANCH  17  18
ENDBRANCH  15  17
ENDBRANCH  13  15
ENDBRANCH   5   6
ENDBRANCH   4   5
ENDBRANCH   3   4
ENDBRANCH   2   3
TORSDOF 11
ENDMDL
MODEL       80
REMARK 921   NORMALIZED FREE ENERGY PREDICTED BY IDOCK:   -4.61 KCAL/MOL
REMARK 922        TOTAL FREE ENERGY PREDICTED BY IDOCK:   -8.59 KCAL/MOL
REMARK 923 INTER-LIGAND FREE ENERGY PREDICTED BY IDOCK:   -7.58 KCAL/MOL
REMARK 924 INTRA-LIGAND FREE ENERGY PREDICTED BY IDOCK:   -1.00 KCAL/MOL
REMARK 927      BINDING AFFINITY PREDICTED BY RF-SCORE:    0.00 PKD
ROOT
HETATM    1  C   UNL     1     -12.000  13.144  64.119  1.00  0.00    -0.499 C  
HETATM    2  C   UNL     1     -12.063  12.703  65.572  1.00  0.00    -0.515 C  
ENDROOT
BRANCH   2   3
HETATM    3  C   UNL     1     -12.284  13.894  66.501  1.00  0.00    -0.482 C  
BRANCH   3   4
HETATM    4  C   UNL     1     -11.305  13.880  67.668  1.00  0.00    -0.309 C  
BRANCH   4   5
HETATM    5  O   UNL     1     -11.916  14.552  68.776  1.00  0.00    -0.313 OA 
BRANCH   5   6
HETATM    6  C   UNL     1     -12.334  13.726  69.793  1.00  0.00    -0.255 A  
HETATM    7  C   UNL     1     -13.068  14.326  70.835  1.00  0.00    -0.304 A  
HETATM    8  C   UNL     1     -13.589  13.517  71.850  1.00  0.00    -0.510 A  
HETATM    9  N   UNL     1     -13.459  15.674  70.752  1.00  0.00    -0.797 NA 
HETATM   10  H1  UNL     1     -13.990  16.109  71.506  1.00  0.00     0.000 HD 
HETATM   11  C   UNL     1     -13.267  12.160  71.918  1.00  0.00    -0.474 A  
HETATM   12  H2  UNL     1     -13.976  15.803  69.882  1.00  0.00     0.000 HD 
HETATM   13  C   UNL     1     -12.446  11.591  70.942  1.00  0.00    -0.464 A  
HETATM   14  C   UNL     1     -12.000  12.374  69.869  1.00  0.00    -0.369 A  
BRANCH  13  15
HETATM   15  C   UNL     1     -11.951  10.204  71.149  1.00  0.00    -0.386 C  
HETATM   16  O   UNL     1     -12.435   9.415  71.940  1.00  0.00    -0.360 OA 
BRANCH  15  17
HETATM   17  O   UNL     1     -10.794  10.039  70.462  1.00  0.00    -0.294 OA 
BRANCH  17  18
HETATM   18  C   UNL     1     -10.739   8.844  69.664  1.00  0.00    -0.217 C  
BRANCH  18  19
HETATM   19  C   UNL     1      -9.251   8.585  69.346  1.00  0.00    -0.153 C  
BRANCH  19  20
HETATM   20  N   UNL     1      -8.860   8.574  67.925  1.00  0.00    -0.137 NA 
BRANCH  20  21
HETATM   21  C   UNL     1     -10.004   8.607  67.003  1.00  0.00    -0.249 C  
HETATM   22  C   UNL     1     -10.029   9.754  65.998  1.00  0.00    -0.342 C  
ENDBRANCH  20  21
BRANCH  20  23
HETATM   23  C   UNL     1      -7.864   9.636  67.689  1.00  0.00    -0.095 C  
HETATM   24  C   UNL     1      -6.483   9.127  67.293  1.00  0.00    -0.060 C  
ENDBRANCH  20  23
ENDBRANCH  19  20
ENDBRANCH  18  19
ENDBRANCH  17  18
ENDBRANCH  15  17
ENDBRANCH  13  15
ENDBRANCH   5   6
ENDBRANCH   4   5
ENDBRANCH   3   4
ENDBRANCH   2   3
TORSDOF 11
ENDMDL
MODEL       81
REMARK 921   NORMALIZED FREE ENERGY PREDICTED BY IDOCK:   -4.61 KCAL/MOL
REMARK 922        TOTAL FREE ENERGY PREDICTED BY IDOCK:   -8.58 KCAL/MOL
REMARK 923 INTER-LIGAND FREE ENERGY PREDICTED BY IDOCK:   -7.48 KCAL/MOL
REMARK 924 INTRA-LIGAND FREE ENERGY PREDICTED BY IDOCK:   -1.10 KCAL/MOL
REMARK 927      BINDING AFFINITY PREDICTED BY RF-SCORE:    0.00 PKD
ROOT
HETATM    1  C   UNL     1     -13.845   9.021  72.275  1.00  0.00    -0.547 C  
HETATM    2  C   UNL     1     -13.804   7.634  71.656  1.00  0.00    -0.480 C  
ENDROOT
BRANCH   2   3
HETATM    3  C   UNL     1     -12.404   7.297  71.147  1.00  0.00    -0.381 C  
BRANCH   3   4
HETATM    4  C   UNL     1     -11.382   8.330  71.603  1.00  0.00    -0.272 C  
BRANCH   4   5
HETATM    5  O   UNL     1     -10.500   8.605  70.507  1.00  0.00    -0.195 OA 
BRANCH   5   6
HETATM    6  C   UNL     1     -10.876   9.664  69.715  1.00  0.00    -0.250 A  
HETATM    7  C   UNL     1     -10.708   9.506  68.325  1.00  0.00    -0.194 A  
HETATM    8  C   UNL     1     -11.153  10.518  67.469  1.00  0.00    -0.358 A  
HETATM    9  N   UNL     1     -10.305   8.270  67.788  1.00  0.00    -0.231 NA 
HETATM   10  H1  UNL     1     -10.184   8.155  66.782  1.00  0.00     0.000 HD 
HETATM   11  C   UNL     1     -11.618  11.732  67.980  1.00  0.00    -0.386 A  
HETATM   12  H2  UNL     1     -10.953   7.553  68.115  1.00  0.00     0.000 HD 
HETATM   13  C   UNL     1     -11.678  11.927  69.362  1.00  0.00    -0.401 A  
HETATM   14  C   UNL     1     -11.327  10.881  70.225  1.00  0.00    -0.342 A  
BRANCH  13  15
HETATM   15  C   UNL     1     -11.977  13.290  69.875  1.00  0.00    -0.330 C  
HETATM   16  O   UNL     1     -12.159  13.555  71.051  1.00  0.00    -0.311 OA 
BRANCH  15  17
HETATM   17  O   UNL     1     -12.188  14.123  68.828  1.00  0.00    -0.319 OA 
BRANCH  17  18
HETATM   18  C   UNL     1     -11.430  15.344  68.874  1.00  0.00    -0.342 C  
BRANCH  18  19
HETATM   19  C   UNL     1     -10.505  15.347  67.639  1.00  0.00    -0.272 C  
BRANCH  19  20
HETATM   20  N   UNL     1     -10.644  16.471  66.697  1.00  0.00    -0.262 NA 
BRANCH  20  21
HETATM   21  C   UNL     1      -9.717  17.579  66.968  1.00  0.00    -0.284 C  
HETATM   22  C   UNL     1     -10.352  18.936  67.255  1.00  0.00    -0.486 C  
ENDBRANCH  20  21
BRANCH  20  23
HETATM   23  C   UNL     1     -10.582  15.956  65.316  1.00  0.00    -0.419 C  
HETATM   24  C   UNL     1     -10.771  14.448  65.198  1.00  0.00    -0.413 C  
ENDBRANCH  20  23
ENDBRANCH  19  20
ENDBRANCH  18  19
ENDBRANCH  17  18
ENDBRANCH  15  17
ENDBRANCH  13  15
ENDBRANCH   5   6
ENDBRANCH   4   5
ENDBRANCH   3   4
ENDBRANCH   2   3
TORSDOF 11
ENDMDL
MODEL       82
REMARK 921   NORMALIZED FREE ENERGY PREDICTED BY IDOCK:   -4.59 KCAL/MOL
REMARK 922        TOTAL FREE ENERGY PREDICTED BY IDOCK:   -8.55 KCAL/MOL
REMARK 923 INTER-LIGAND FREE ENERGY PREDICTED BY IDOCK:   -7.47 KCAL/MOL
REMARK 924 INTRA-LIGAND FREE ENERGY PREDICTED BY IDOCK:   -1.07 KCAL/MOL
REMARK 927      BINDING AFFINITY PREDICTED BY RF-SCORE:    0.00 PKD
ROOT
HETATM    1  C   UNL     1     -11.087   6.346  68.428  1.00  0.00    -0.374 C  
HETATM    2  C   UNL     1     -10.572   5.262  69.360  1.00  0.00    -0.215 C  
ENDROOT
BRANCH   2   3
HETATM    3  C   UNL     1      -9.464   5.794  70.267  1.00  0.00    -0.196 C  
BRANCH   3   4
HETATM    4  C   UNL     1      -9.591   7.297  70.479  1.00  0.00    -0.168 C  
BRANCH   4   5
HETATM    5  O   UNL     1     -10.279   7.520  71.715  1.00  0.00    -0.186 OA 
BRANCH   5   6
HETATM    6  C   UNL     1     -11.367   8.358  71.628  1.00  0.00    -0.286 A  
HETATM    7  C   UNL     1     -12.634   7.771  71.811  1.00  0.00    -0.329 A  
HETATM    8  C   UNL     1     -13.767   8.591  71.817  1.00  0.00    -0.444 A  
HETATM    9  N   UNL     1     -12.751   6.424  72.198  1.00  0.00    -0.507 NA 
HETATM   10  H1  UNL     1     -13.668   5.999  72.331  1.00  0.00     0.000 HD 
HETATM   11  C   UNL     1     -13.667   9.947  71.498  1.00  0.00    -0.223 A  
HETATM   12  H2  UNL     1     -12.211   6.289  73.052  1.00  0.00     0.000 HD 
HETATM   13  C   UNL     1     -12.419  10.503  71.207  1.00  0.00    -0.524 A  
HETATM   14  C   UNL     1     -11.269   9.709  71.296  1.00  0.00    -0.446 A  
BRANCH  13  15
HETATM   15  C   UNL     1     -12.365  11.890  70.672  1.00  0.00    -0.313 C  
HETATM   16  O   UNL     1     -12.751  12.873  71.278  1.00  0.00    -0.367 OA 
BRANCH  15  17
HETATM   17  O   UNL     1     -11.996  11.848  69.369  1.00  0.00    -0.306 OA 
BRANCH  17  18
HETATM   18  C   UNL     1     -11.983  13.127  68.711  1.00  0.00    -0.280 C  
BRANCH  18  19
HETATM   19  C   UNL     1     -11.173  12.953  67.409  1.00  0.00    -0.291 C  
BRANCH  19  20
HETATM   20  N   UNL     1     -11.635  11.923  66.461  1.00  0.00    -0.519 NA 
BRANCH  20  21
HETATM   21  C   UNL     1     -12.238  12.480  65.241  1.00  0.00    -0.433 C  
HETATM   22  C   UNL     1     -12.260  14.001  65.133  1.00  0.00    -0.446 C  
ENDBRANCH  20  21
BRANCH  20  23
HETATM   23  C   UNL     1     -10.540  10.968  66.212  1.00  0.00    -0.237 C  
HETATM   24  C   UNL     1     -10.096  10.884  64.757  1.00  0.00    -0.383 C  
ENDBRANCH  20  23
ENDBRANCH  19  20
ENDBRANCH  18  19
ENDBRANCH  17  18
ENDBRANCH  15  17
ENDBRANCH  13  15
ENDBRANCH   5   6
ENDBRANCH   4   5
ENDBRANCH   3   4
ENDBRANCH   2   3
TORSDOF 11
ENDMDL
MODEL       83
REMARK 921   NORMALIZED FREE ENERGY PREDICTED BY IDOCK:   -4.58 KCAL/MOL
REMARK 922        TOTAL FREE ENERGY PREDICTED BY IDOCK:   -8.54 KCAL/MOL
REMARK 923 INTER-LIGAND FREE ENERGY PREDICTED BY IDOCK:   -7.79 KCAL/MOL
REMARK 924 INTRA-LIGAND FREE ENERGY PREDICTED BY IDOCK:   -0.75 KCAL/MOL
REMARK 927      BINDING AFFINITY PREDICTED BY RF-SCORE:    0.00 PKD
ROOT
HETATM    1  C   UNL     1     -12.529  11.958  63.511  1.00  0.00    -0.609 C  
HETATM    2  C   UNL     1     -11.025  11.786  63.381  1.00  0.00    -0.458 C  
ENDROOT
BRANCH   2   3
HETATM    3  C   UNL     1     -10.276  12.810  64.231  1.00  0.00    -0.352 C  
BRANCH   3   4
HETATM    4  C   UNL     1      -9.696  12.175  65.488  1.00  0.00    -0.181 C  
BRANCH   4   5
HETATM    5  O   UNL     1     -10.780  11.824  66.357  1.00  0.00    -0.246 OA 
BRANCH   5   6
HETATM    6  C   UNL     1     -10.967  12.675  67.421  1.00  0.00    -0.254 A  
HETATM    7  C   UNL     1     -11.794  12.213  68.463  1.00  0.00    -0.310 A  
HETATM    8  C   UNL     1     -11.950  13.003  69.607  1.00  0.00    -0.367 A  
HETATM    9  N   UNL     1     -12.283  10.894  68.460  1.00  0.00    -0.809 NA 
HETATM   10  H1  UNL     1     -12.881  10.559  69.214  1.00  0.00     0.000 HD 
HETATM   11  C   UNL     1     -11.419  14.294  69.660  1.00  0.00    -0.334 A  
HETATM   12  H2  UNL     1     -11.488  10.259  68.378  1.00  0.00     0.000 HD 
HETATM   13  C   UNL     1     -10.692  14.791  68.575  1.00  0.00    -0.247 A  
HETATM   14  C   UNL     1     -10.449  13.969  67.467  1.00  0.00    -0.252 A  
BRANCH  13  15
HETATM   15  C   UNL     1     -10.317  16.230  68.570  1.00  0.00    -0.261 C  
HETATM   16  O   UNL     1     -11.085  17.137  68.298  1.00  0.00    -0.310 OA 
BRANCH  15  17
HETATM   17  O   UNL     1      -8.977  16.341  68.734  1.00  0.00    -0.220 OA 
BRANCH  17  18
HETATM   18  C   UNL     1      -8.418  17.581  68.267  1.00  0.00    -0.266 C  
BRANCH  18  19
HETATM   19  C   UNL     1      -8.088  17.389  66.772  1.00  0.00    -0.250 C  
BRANCH  19  20
HETATM   20  N   UNL     1      -8.145  18.585  65.912  1.00  0.00    -0.496 NA 
BRANCH  20  21
HETATM   21  C   UNL     1      -8.950  19.676  66.481  1.00  0.00    -0.369 C  
HETATM   22  C   UNL     1     -10.394  19.771  66.000  1.00  0.00    -0.612 C  
ENDBRANCH  20  21
BRANCH  20  23
HETATM   23  C   UNL     1      -6.774  18.978  65.539  1.00  0.00    -0.260 C  
HETATM   24  C   UNL     1      -6.635  20.426  65.084  1.00  0.00    -0.327 C  
ENDBRANCH  20  23
ENDBRANCH  19  20
ENDBRANCH  18  19
ENDBRANCH  17  18
ENDBRANCH  15  17
ENDBRANCH  13  15
ENDBRANCH   5   6
ENDBRANCH   4   5
ENDBRANCH   3   4
ENDBRANCH   2   3
TORSDOF 11
ENDMDL
MODEL       84
REMARK 921   NORMALIZED FREE ENERGY PREDICTED BY IDOCK:   -4.57 KCAL/MOL
REMARK 922        TOTAL FREE ENERGY PREDICTED BY IDOCK:   -8.52 KCAL/MOL
REMARK 923 INTER-LIGAND FREE ENERGY PREDICTED BY IDOCK:   -7.40 KCAL/MOL
REMARK 924 INTRA-LIGAND FREE ENERGY PREDICTED BY IDOCK:   -1.12 KCAL/MOL
REMARK 927      BINDING AFFINITY PREDICTED BY RF-SCORE:    0.00 PKD
ROOT
HETATM    1  C   UNL     1     -12.769  11.073  71.281  1.00  0.00    -0.537 C  
HETATM    2  C   UNL     1     -12.055  11.380  69.975  1.00  0.00    -0.417 C  
ENDROOT
BRANCH   2   3
HETATM    3  C   UNL     1     -11.875  12.884  69.784  1.00  0.00    -0.380 C  
BRANCH   3   4
HETATM    4  C   UNL     1     -11.304  13.208  68.409  1.00  0.00    -0.289 C  
BRANCH   4   5
HETATM    5  O   UNL     1     -12.253  12.794  67.419  1.00  0.00    -0.370 OA 
BRANCH   5   6
HETATM    6  C   UNL     1     -11.701  12.260  66.278  1.00  0.00    -0.366 A  
HETATM    7  C   UNL     1     -12.209  12.727  65.050  1.00  0.00    -0.473 A  
HETATM    8  C   UNL     1     -11.626  12.279  63.860  1.00  0.00    -0.525 A  
HETATM    9  N   UNL     1     -13.134  13.786  65.014  1.00  0.00    -0.737 NA 
HETATM   10  H1  UNL     1     -13.502  14.124  64.125  1.00  0.00     0.000 HD 
HETATM   11  C   UNL     1     -10.657  11.273  63.875  1.00  0.00    -0.455 A  
HETATM   12  H2  UNL     1     -12.733  14.578  65.515  1.00  0.00     0.000 HD 
HETATM   13  C   UNL     1     -10.236  10.732  65.092  1.00  0.00    -0.365 A  
HETATM   14  C   UNL     1     -10.745  11.245  66.292  1.00  0.00    -0.312 A  
BRANCH  13  15
HETATM   15  C   UNL     1      -9.364   9.527  65.071  1.00  0.00    -0.229 C  
HETATM   16  O   UNL     1      -8.660   9.208  64.130  1.00  0.00    -0.191 OA 
BRANCH  15  17
HETATM   17  O   UNL     1      -9.619   8.775  66.168  1.00  0.00    -0.237 OA 
BRANCH  17  18
HETATM   18  C   UNL     1      -8.476   8.083  66.699  1.00  0.00    -0.133 C  
BRANCH  18  19
HETATM   19  C   UNL     1      -8.890   7.517  68.073  1.00  0.00    -0.127 C  
BRANCH  19  20
HETATM   20  N   UNL     1     -10.333   7.449  68.365  1.00  0.00    -0.191 NA 
BRANCH  20  21
HETATM   21  C   UNL     1     -10.918   6.124  68.116  1.00  0.00    -0.307 C  
HETATM   22  C   UNL     1      -9.932   4.974  67.937  1.00  0.00    -0.193 C  
ENDBRANCH  20  21
BRANCH  20  23
HETATM   23  C   UNL     1     -10.577   7.972  69.722  1.00  0.00    -0.238 C  
HETATM   24  C   UNL     1     -11.571   7.158  70.541  1.00  0.00    -0.331 C  
ENDBRANCH  20  23
ENDBRANCH  19  20
ENDBRANCH  18  19
ENDBRANCH  17  18
ENDBRANCH  15  17
ENDBRANCH  13  15
ENDBRANCH   5   6
ENDBRANCH   4   5
ENDBRANCH   3   4
ENDBRANCH   2   3
TORSDOF 11
ENDMDL
MODEL       85
REMARK 921   NORMALIZED FREE ENERGY PREDICTED BY IDOCK:   -4.54 KCAL/MOL
REMARK 922        TOTAL FREE ENERGY PREDICTED BY IDOCK:   -8.47 KCAL/MOL
REMARK 923 INTER-LIGAND FREE ENERGY PREDICTED BY IDOCK:   -7.46 KCAL/MOL
REMARK 924 INTRA-LIGAND FREE ENERGY PREDICTED BY IDOCK:   -1.01 KCAL/MOL
REMARK 927      BINDING AFFINITY PREDICTED BY RF-SCORE:    0.00 PKD
ROOT
HETATM    1  C   UNL     1     -12.149  12.966  63.609  1.00  0.00    -0.611 C  
HETATM    2  C   UNL     1     -12.522  12.495  65.004  1.00  0.00    -0.494 C  
ENDROOT
BRANCH   2   3
HETATM    3  C   UNL     1     -11.673  13.189  66.067  1.00  0.00    -0.424 C  
BRANCH   3   4
HETATM    4  C   UNL     1     -11.476  12.303  67.291  1.00  0.00    -0.357 C  
BRANCH   4   5
HETATM    5  O   UNL     1     -11.205  13.145  68.418  1.00  0.00    -0.240 OA 
BRANCH   5   6
HETATM    6  C   UNL     1     -11.866  12.796  69.572  1.00  0.00    -0.316 A  
HETATM    7  C   UNL     1     -12.230  13.848  70.435  1.00  0.00    -0.368 A  
HETATM    8  C   UNL     1     -12.978  13.557  71.581  1.00  0.00    -0.447 A  
HETATM    9  N   UNL     1     -12.040  15.188  70.053  1.00  0.00    -0.326 NA 
HETATM   10  H1  UNL     1     -12.303  15.949  70.678  1.00  0.00     0.000 HD 
HETATM   11  C   UNL     1     -13.235  12.234  71.948  1.00  0.00    -0.481 A  
HETATM   12  H2  UNL     1     -12.507  15.334  69.158  1.00  0.00     0.000 HD 
HETATM   13  C   UNL     1     -12.775  11.188  71.145  1.00  0.00    -0.510 A  
HETATM   14  C   UNL     1     -12.110  11.475  69.946  1.00  0.00    -0.389 A  
BRANCH  13  15
HETATM   15  C   UNL     1     -12.879   9.797  71.661  1.00  0.00    -0.421 C  
HETATM   16  O   UNL     1     -13.613   9.457  72.572  1.00  0.00    -0.459 OA 
BRANCH  15  17
HETATM   17  O   UNL     1     -11.917   9.037  71.085  1.00  0.00    -0.287 OA 
BRANCH  17  18
HETATM   18  C   UNL     1     -10.814   8.714  71.949  1.00  0.00    -0.348 C  
BRANCH  18  19
HETATM   19  C   UNL     1     -10.048   7.551  71.284  1.00  0.00    -0.187 C  
BRANCH  19  20
HETATM   20  N   UNL     1      -8.969   7.907  70.345  1.00  0.00    -0.146 NA 
BRANCH  20  21
HETATM   21  C   UNL     1      -9.354   7.768  68.933  1.00  0.00    -0.146 C  
HETATM   22  C   UNL     1      -9.744   9.053  68.210  1.00  0.00    -0.169 C  
ENDBRANCH  20  21
BRANCH  20  23
HETATM   23  C   UNL     1      -8.439   9.237  70.699  1.00  0.00    -0.217 C  
HETATM   24  C   UNL     1      -6.923   9.359  70.596  1.00  0.00    -0.115 C  
ENDBRANCH  20  23
ENDBRANCH  19  20
ENDBRANCH  18  19
ENDBRANCH  17  18
ENDBRANCH  15  17
ENDBRANCH  13  15
ENDBRANCH   5   6
ENDBRANCH   4   5
ENDBRANCH   3   4
ENDBRANCH   2   3
TORSDOF 11
ENDMDL
MODEL       86
REMARK 921   NORMALIZED FREE ENERGY PREDICTED BY IDOCK:   -4.54 KCAL/MOL
REMARK 922        TOTAL FREE ENERGY PREDICTED BY IDOCK:   -8.46 KCAL/MOL
REMARK 923 INTER-LIGAND FREE ENERGY PREDICTED BY IDOCK:   -7.48 KCAL/MOL
REMARK 924 INTRA-LIGAND FREE ENERGY PREDICTED BY IDOCK:   -0.99 KCAL/MOL
REMARK 927      BINDING AFFINITY PREDICTED BY RF-SCORE:    0.00 PKD
ROOT
HETATM    1  C   UNL     1      -7.193   9.337  70.719  1.00  0.00    -0.126 C  
HETATM    2  C   UNL     1      -8.463   8.545  70.457  1.00  0.00    -0.143 C  
ENDROOT
BRANCH   2   3
HETATM    3  C   UNL     1      -9.579   9.447  69.936  1.00  0.00    -0.234 C  
BRANCH   3   4
HETATM    4  C   UNL     1     -10.738   9.527  70.923  1.00  0.00    -0.333 C  
BRANCH   4   5
HETATM    5  O   UNL     1     -11.859  10.116  70.254  1.00  0.00    -0.266 OA 
BRANCH   5   6
HETATM    6  C   UNL     1     -12.224  11.357  70.721  1.00  0.00    -0.376 A  
HETATM    7  C   UNL     1     -13.188  11.388  71.748  1.00  0.00    -0.367 A  
HETATM    8  C   UNL     1     -13.533  12.618  72.317  1.00  0.00    -0.541 A  
HETATM    9  N   UNL     1     -13.639  10.197  72.344  1.00  0.00    -0.578 NA 
HETATM   10  H1  UNL     1     -14.337  10.219  73.087  1.00  0.00     0.000 HD 
HETATM   11  C   UNL     1     -13.047  13.813  71.782  1.00  0.00    -0.463 A  
HETATM   12  H2  UNL     1     -12.827   9.683  72.685  1.00  0.00     0.000 HD 
HETATM   13  C   UNL     1     -12.176  13.782  70.691  1.00  0.00    -0.434 A  
HETATM   14  C   UNL     1     -11.750  12.551  70.178  1.00  0.00    -0.255 A  
BRANCH  13  15
HETATM   15  C   UNL     1     -11.839  15.063  70.013  1.00  0.00    -0.319 C  
HETATM   16  O   UNL     1     -11.616  16.109  70.597  1.00  0.00    -0.376 OA 
BRANCH  15  17
HETATM   17  O   UNL     1     -11.998  14.913  68.676  1.00  0.00    -0.302 OA 
BRANCH  17  18
HETATM   18  C   UNL     1     -10.924  15.447  67.883  1.00  0.00    -0.310 C  
BRANCH  18  19
HETATM   19  C   UNL     1     -10.045  14.254  67.454  1.00  0.00    -0.247 C  
BRANCH  19  20
HETATM   20  N   UNL     1     -10.305  13.671  66.125  1.00  0.00    -0.290 NA 
BRANCH  20  21
HETATM   21  C   UNL     1     -11.176  12.488  66.166  1.00  0.00    -0.321 C  
HETATM   22  C   UNL     1     -10.545  11.202  66.692  1.00  0.00    -0.314 C  
ENDBRANCH  20  21
BRANCH  20  23
HETATM   23  C   UNL     1     -10.771  14.733  65.214  1.00  0.00    -0.390 C  
HETATM   24  C   UNL     1     -12.047  14.394  64.452  1.00  0.00    -0.491 C  
ENDBRANCH  20  23
ENDBRANCH  19  20
ENDBRANCH  18  19
ENDBRANCH  17  18
ENDBRANCH  15  17
ENDBRANCH  13  15
ENDBRANCH   5   6
ENDBRANCH   4   5
ENDBRANCH   3   4
ENDBRANCH   2   3
TORSDOF 11
ENDMDL
MODEL       87
REMARK 921   NORMALIZED FREE ENERGY PREDICTED BY IDOCK:   -4.53 KCAL/MOL
REMARK 922        TOTAL FREE ENERGY PREDICTED BY IDOCK:   -8.45 KCAL/MOL
REMARK 923 INTER-LIGAND FREE ENERGY PREDICTED BY IDOCK:   -7.80 KCAL/MOL
REMARK 924 INTRA-LIGAND FREE ENERGY PREDICTED BY IDOCK:   -0.65 KCAL/MOL
REMARK 927      BINDING AFFINITY PREDICTED BY RF-SCORE:    0.00 PKD
ROOT
HETATM    1  C   UNL     1     -13.433  14.362  72.949  1.00  0.00    -0.516 C  
HETATM    2  C   UNL     1     -13.477  15.700  72.232  1.00  0.00    -0.586 C  
ENDROOT
BRANCH   2   3
HETATM    3  C   UNL     1     -12.072  16.258  72.016  1.00  0.00    -0.493 C  
BRANCH   3   4
HETATM    4  C   UNL     1     -11.261  15.377  71.074  1.00  0.00    -0.364 C  
BRANCH   4   5
HETATM    5  O   UNL     1     -12.090  15.023  69.961  1.00  0.00    -0.302 OA 
BRANCH   5   6
HETATM    6  C   UNL     1     -11.947  13.728  69.522  1.00  0.00    -0.345 A  
HETATM    7  C   UNL     1     -11.689  13.550  68.149  1.00  0.00    -0.361 A  
HETATM    8  C   UNL     1     -11.452  12.259  67.665  1.00  0.00    -0.401 A  
HETATM    9  N   UNL     1     -11.457  14.657  67.313  1.00  0.00    -0.360 NA 
HETATM   10  H1  UNL     1     -11.270  14.529  66.319  1.00  0.00     0.000 HD 
HETATM   11  C   UNL     1     -11.614  11.146  68.493  1.00  0.00    -0.385 A  
HETATM   12  H2  UNL     1     -10.694  15.204  67.713  1.00  0.00     0.000 HD 
HETATM   13  C   UNL     1     -11.980  11.322  69.830  1.00  0.00    -0.431 A  
HETATM   14  C   UNL     1     -12.123  12.616  70.345  1.00  0.00    -0.381 A  
BRANCH  13  15
HETATM   15  C   UNL     1     -12.346  10.123  70.630  1.00  0.00    -0.293 C  
HETATM   16  O   UNL     1     -13.308  10.065  71.376  1.00  0.00    -0.377 OA 
BRANCH  15  17
HETATM   17  O   UNL     1     -11.356   9.203  70.531  1.00  0.00    -0.261 OA 
BRANCH  17  18
HETATM   18  C   UNL     1     -10.658   8.942  71.761  1.00  0.00    -0.362 C  
BRANCH  18  19
HETATM   19  C   UNL     1     -11.312   7.695  72.393  1.00  0.00    -0.329 C  
BRANCH  19  20
HETATM   20  N   UNL     1     -10.449   6.519  72.607  1.00  0.00    -0.203 NA 
BRANCH  20  21
HETATM   21  C   UNL     1     -11.136   5.405  73.275  1.00  0.00    -0.297 C  
HETATM   22  C   UNL     1     -10.245   4.390  73.984  1.00  0.00    -0.247 C  
ENDBRANCH  20  21
BRANCH  20  23
HETATM   23  C   UNL     1      -9.804   6.154  71.332  1.00  0.00    -0.175 C  
HETATM   24  C   UNL     1     -10.744   5.534  70.305  1.00  0.00    -0.333 C  
ENDBRANCH  20  23
ENDBRANCH  19  20
ENDBRANCH  18  19
ENDBRANCH  17  18
ENDBRANCH  15  17
ENDBRANCH  13  15
ENDBRANCH   5   6
ENDBRANCH   4   5
ENDBRANCH   3   4
ENDBRANCH   2   3
TORSDOF 11
ENDMDL
MODEL       88
REMARK 921   NORMALIZED FREE ENERGY PREDICTED BY IDOCK:   -4.52 KCAL/MOL
REMARK 922        TOTAL FREE ENERGY PREDICTED BY IDOCK:   -8.43 KCAL/MOL
REMARK 923 INTER-LIGAND FREE ENERGY PREDICTED BY IDOCK:   -7.60 KCAL/MOL
REMARK 924 INTRA-LIGAND FREE ENERGY PREDICTED BY IDOCK:   -0.83 KCAL/MOL
REMARK 927      BINDING AFFINITY PREDICTED BY RF-SCORE:    0.00 PKD
ROOT
HETATM    1  C   UNL     1     -11.135   6.185  69.465  1.00  0.00    -0.490 C  
HETATM    2  C   UNL     1     -10.606   7.599  69.295  1.00  0.00    -0.206 C  
ENDROOT
BRANCH   2   3
HETATM    3  C   UNL     1     -10.410   7.942  67.820  1.00  0.00    -0.289 C  
BRANCH   3   4
HETATM    4  C   UNL     1     -10.791   9.388  67.528  1.00  0.00    -0.138 C  
BRANCH   4   5
HETATM    5  O   UNL     1      -9.808   9.944  66.647  1.00  0.00    -0.185 OA 
BRANCH   5   6
HETATM    6  C   UNL     1     -10.310  10.767  65.666  1.00  0.00    -0.230 A  
HETATM    7  C   UNL     1      -9.877  10.521  64.349  1.00  0.00    -0.341 A  
HETATM    8  C   UNL     1     -10.422  11.275  63.304  1.00  0.00    -0.370 A  
HETATM    9  N   UNL     1      -9.081   9.399  64.054  1.00  0.00    -0.424 NA 
HETATM   10  H1  UNL     1      -8.768   9.221  63.100  1.00  0.00     0.000 HD 
HETATM   11  C   UNL     1     -11.267  12.355  63.568  1.00  0.00    -0.540 A  
HETATM   12  H2  UNL     1      -9.564   8.567  64.392  1.00  0.00     0.000 HD 
HETATM   13  C   UNL     1     -11.606  12.665  64.887  1.00  0.00    -0.376 A  
HETATM   14  C   UNL     1     -11.143  11.855  65.932  1.00  0.00    -0.365 A  
BRANCH  13  15
HETATM   15  C   UNL     1     -12.333  13.935  65.155  1.00  0.00    -0.449 C  
HETATM   16  O   UNL     1     -13.475  13.995  65.575  1.00  0.00    -0.677 OA 
BRANCH  15  17
HETATM   17  O   UNL     1     -11.596  14.974  64.692  1.00  0.00    -0.410 OA 
BRANCH  17  18
HETATM   18  C   UNL     1     -10.455  15.306  65.502  1.00  0.00    -0.374 C  
BRANCH  18  19
HETATM   19  C   UNL     1     -10.985  15.626  66.916  1.00  0.00    -0.243 C  
BRANCH  19  20
HETATM   20  N   UNL     1     -10.078  15.367  68.048  1.00  0.00    -0.225 NA 
BRANCH  20  21
HETATM   21  C   UNL     1     -10.073  16.441  69.051  1.00  0.00    -0.262 C  
HETATM   22  C   UNL     1      -9.864  17.857  68.522  1.00  0.00    -0.367 C  
ENDBRANCH  20  21
BRANCH  20  23
HETATM   23  C   UNL     1     -10.361  14.028  68.598  1.00  0.00    -0.238 C  
HETATM   24  C   UNL     1     -11.805  13.821  69.039  1.00  0.00    -0.397 C  
ENDBRANCH  20  23
ENDBRANCH  19  20
ENDBRANCH  18  19
ENDBRANCH  17  18
ENDBRANCH  15  17
ENDBRANCH  13  15
ENDBRANCH   5   6
ENDBRANCH   4   5
ENDBRANCH   3   4
ENDBRANCH   2   3
TORSDOF 11
ENDMDL
MODEL       89
REMARK 921   NORMALIZED FREE ENERGY PREDICTED BY IDOCK:   -4.51 KCAL/MOL
REMARK 922        TOTAL FREE ENERGY PREDICTED BY IDOCK:   -8.42 KCAL/MOL
REMARK 923 INTER-LIGAND FREE ENERGY PREDICTED BY IDOCK:   -7.11 KCAL/MOL
REMARK 924 INTRA-LIGAND FREE ENERGY PREDICTED BY IDOCK:   -1.31 KCAL/MOL
REMARK 927      BINDING AFFINITY PREDICTED BY RF-SCORE:    0.00 PKD
ROOT
HETATM    1  C   UNL     1     -12.731  10.700  70.964  1.00  0.00    -0.512 C  
HETATM    2  C   UNL     1     -13.289   9.517  71.736  1.00  0.00    -0.501 C  
ENDROOT
BRANCH   2   3
HETATM    3  C   UNL     1     -12.178   8.558  72.157  1.00  0.00    -0.446 C  
BRANCH   3   4
HETATM    4  C   UNL     1     -10.804   9.091  71.770  1.00  0.00    -0.367 C  
BRANCH   4   5
HETATM    5  O   UNL     1     -10.060   8.024  71.170  1.00  0.00    -0.186 OA 
BRANCH   5   6
HETATM    6  C   UNL     1     -10.238   7.887  69.813  1.00  0.00    -0.212 A  
HETATM    7  C   UNL     1     -10.496   6.587  69.337  1.00  0.00    -0.221 A  
HETATM    8  C   UNL     1     -10.768   6.404  67.977  1.00  0.00    -0.362 A  
HETATM    9  N   UNL     1     -10.695   5.521  70.233  1.00  0.00    -0.290 NA 
HETATM   10  H1  UNL     1     -10.882   4.580  69.889  1.00  0.00     0.000 HD 
HETATM   11  C   UNL     1     -10.640   7.463  67.075  1.00  0.00    -0.414 A  
HETATM   12  H2  UNL     1     -11.443   5.780  70.876  1.00  0.00     0.000 HD 
HETATM   13  C   UNL     1     -10.274   8.729  67.538  1.00  0.00    -0.309 A  
HETATM   14  C   UNL     1     -10.096   8.941  68.911  1.00  0.00    -0.209 A  
BRANCH  13  15
HETATM   15  C   UNL     1      -9.944   9.782  66.541  1.00  0.00    -0.239 C  
HETATM   16  O   UNL     1     -10.032   9.635  65.335  1.00  0.00    -0.316 OA 
BRANCH  15  17
HETATM   17  O   UNL     1      -9.374  10.833  67.178  1.00  0.00    -0.154 OA 
BRANCH  17  18
HETATM   18  C   UNL     1      -9.148  11.985  66.347  1.00  0.00    -0.193 C  
BRANCH  18  19
HETATM   19  C   UNL     1      -9.833  13.181  67.040  1.00  0.00    -0.244 C  
BRANCH  19  20
HETATM   20  N   UNL     1     -10.832  13.930  66.256  1.00  0.00    -0.289 NA 
BRANCH  20  21
HETATM   21  C   UNL     1     -11.086  13.352  64.929  1.00  0.00    -0.335 C  
HETATM   22  C   UNL     1     -12.288  12.419  64.817  1.00  0.00    -0.497 C  
ENDBRANCH  20  21
BRANCH  20  23
HETATM   23  C   UNL     1     -12.044  14.121  67.074  1.00  0.00    -0.414 C  
HETATM   24  C   UNL     1     -11.882  13.736  68.540  1.00  0.00    -0.406 C  
ENDBRANCH  20  23
ENDBRANCH  19  20
ENDBRANCH  18  19
ENDBRANCH  17  18
ENDBRANCH  15  17
ENDBRANCH  13  15
ENDBRANCH   5   6
ENDBRANCH   4   5
ENDBRANCH   3   4
ENDBRANCH   2   3
TORSDOF 11
ENDMDL
MODEL       90
REMARK 921   NORMALIZED FREE ENERGY PREDICTED BY IDOCK:   -4.50 KCAL/MOL
REMARK 922        TOTAL FREE ENERGY PREDICTED BY IDOCK:   -8.41 KCAL/MOL
REMARK 923 INTER-LIGAND FREE ENERGY PREDICTED BY IDOCK:   -6.86 KCAL/MOL
REMARK 924 INTRA-LIGAND FREE ENERGY PREDICTED BY IDOCK:   -1.56 KCAL/MOL
REMARK 927      BINDING AFFINITY PREDICTED BY RF-SCORE:    0.00 PKD
ROOT
HETATM    1  C   UNL     1     -12.503  13.490  66.137  1.00  0.00    -0.424 C  
HETATM    2  C   UNL     1     -11.142  13.956  66.629  1.00  0.00    -0.310 C  
ENDROOT
BRANCH   2   3
HETATM    3  C   UNL     1     -11.260  15.242  67.444  1.00  0.00    -0.311 C  
BRANCH   3   4
HETATM    4  C   UNL     1     -10.826  15.028  68.889  1.00  0.00    -0.243 C  
BRANCH   4   5
HETATM    5  O   UNL     1     -11.964  15.232  69.735  1.00  0.00    -0.313 OA 
BRANCH   5   6
HETATM    6  C   UNL     1     -12.365  14.123  70.442  1.00  0.00    -0.359 A  
HETATM    7  C   UNL     1     -13.108  14.354  71.615  1.00  0.00    -0.350 A  
HETATM    8  C   UNL     1     -13.613  13.260  72.326  1.00  0.00    -0.703 A  
HETATM    9  N   UNL     1     -13.525  15.654  71.955  1.00  0.00    -0.467 NA 
HETATM   10  H1  UNL     1     -14.064  15.822  72.805  1.00  0.00     0.000 HD 
HETATM   11  C   UNL     1     -13.265  11.956  71.969  1.00  0.00    -0.461 A  
HETATM   12  H2  UNL     1     -14.046  16.038  71.167  1.00  0.00     0.000 HD 
HETATM   13  C   UNL     1     -12.434  11.735  70.867  1.00  0.00    -0.416 A  
HETATM   14  C   UNL     1     -12.005  12.821  70.094  1.00  0.00    -0.371 A  
BRANCH  13  15
HETATM   15  C   UNL     1     -11.912  10.362  70.634  1.00  0.00    -0.351 C  
HETATM   16  O   UNL     1     -11.798   9.516  71.503  1.00  0.00    -0.354 OA 
BRANCH  15  17
HETATM   17  O   UNL     1     -11.432  10.279  69.370  1.00  0.00    -0.234 OA 
BRANCH  17  18
HETATM   18  C   UNL     1     -10.307   9.397  69.215  1.00  0.00    -0.208 C  
BRANCH  18  19
HETATM   19  C   UNL     1      -9.042  10.282  69.195  1.00  0.00    -0.191 C  
BRANCH  19  20
HETATM   20  N   UNL     1      -8.962  11.316  68.148  1.00  0.00    -0.159 NA 
BRANCH  20  21
HETATM   21  C   UNL     1      -8.091  12.444  68.506  1.00  0.00    -0.096 C  
HETATM   22  C   UNL     1      -7.565  13.286  67.348  1.00  0.00    -0.137 C  
ENDBRANCH  20  21
BRANCH  20  23
HETATM   23  C   UNL     1      -8.626  10.677  66.862  1.00  0.00    -0.126 C  
HETATM   24  C   UNL     1      -9.763  10.665  65.848  1.00  0.00    -0.273 C  
ENDBRANCH  20  23
ENDBRANCH  19  20
ENDBRANCH  18  19
ENDBRANCH  17  18
ENDBRANCH  15  17
ENDBRANCH  13  15
ENDBRANCH   5   6
ENDBRANCH   4   5
ENDBRANCH   3   4
ENDBRANCH   2   3
TORSDOF 11
ENDMDL
MODEL       91
REMARK 921   NORMALIZED FREE ENERGY PREDICTED BY IDOCK:   -4.49 KCAL/MOL
REMARK 922        TOTAL FREE ENERGY PREDICTED BY IDOCK:   -8.39 KCAL/MOL
REMARK 923 INTER-LIGAND FREE ENERGY PREDICTED BY IDOCK:   -7.80 KCAL/MOL
REMARK 924 INTRA-LIGAND FREE ENERGY PREDICTED BY IDOCK:   -0.59 KCAL/MOL
REMARK 927      BINDING AFFINITY PREDICTED BY RF-SCORE:    0.00 PKD
ROOT
HETATM    1  C   UNL     1     -10.981   5.951  67.067  1.00  0.00    -0.301 C  
HETATM    2  C   UNL     1     -10.339   5.896  68.443  1.00  0.00    -0.261 C  
ENDROOT
BRANCH   2   3
HETATM    3  C   UNL     1     -11.282   6.440  69.514  1.00  0.00    -0.477 C  
BRANCH   3   4
HETATM    4  C   UNL     1     -10.881   7.843  69.951  1.00  0.00    -0.221 C  
BRANCH   4   5
HETATM    5  O   UNL     1     -11.740   8.244  71.024  1.00  0.00    -0.281 OA 
BRANCH   5   6
HETATM    6  C   UNL     1     -12.101   9.571  71.012  1.00  0.00    -0.318 A  
HETATM    7  C   UNL     1     -13.050   9.979  71.969  1.00  0.00    -0.441 A  
HETATM    8  C   UNL     1     -13.388  11.334  72.055  1.00  0.00    -0.386 A  
HETATM    9  N   UNL     1     -13.491   9.089  72.965  1.00  0.00    -0.936 NA 
HETATM   10  H1  UNL     1     -14.178   9.384  73.658  1.00  0.00     0.000 HD 
HETATM   11  C   UNL     1     -12.911  12.249  71.114  1.00  0.00    -0.302 A  
HETATM   12  H2  UNL     1     -12.673   8.732  73.459  1.00  0.00     0.000 HD 
HETATM   13  C   UNL     1     -12.055  11.818  70.097  1.00  0.00    -0.398 A  
HETATM   14  C   UNL     1     -11.635  10.482  70.064  1.00  0.00    -0.392 A  
BRANCH  13  15
HETATM   15  C   UNL     1     -11.729  12.762  68.994  1.00  0.00    -0.323 C  
HETATM   16  O   UNL     1     -11.718  12.459  67.814  1.00  0.00    -0.335 OA 
BRANCH  15  17
HETATM   17  O   UNL     1     -11.284  13.927  69.524  1.00  0.00    -0.243 OA 
BRANCH  17  18
HETATM   18  C   UNL     1     -11.481  15.078  68.685  1.00  0.00    -0.311 C  
BRANCH  18  19
HETATM   19  C   UNL     1     -10.085  15.527  68.205  1.00  0.00    -0.218 C  
BRANCH  19  20
HETATM   20  N   UNL     1      -9.722  16.940  68.421  1.00  0.00    -0.253 NA 
BRANCH  20  21
HETATM   21  C   UNL     1      -8.304  17.225  68.159  1.00  0.00    -0.233 C  
HETATM   22  C   UNL     1      -7.797  16.898  66.759  1.00  0.00    -0.279 C  
ENDBRANCH  20  21
BRANCH  20  23
HETATM   23  C   UNL     1     -10.659  17.799  67.675  1.00  0.00    -0.379 C  
HETATM   24  C   UNL     1     -10.429  19.294  67.864  1.00  0.00    -0.514 C  
ENDBRANCH  20  23
ENDBRANCH  19  20
ENDBRANCH  18  19
ENDBRANCH  17  18
ENDBRANCH  15  17
ENDBRANCH  13  15
ENDBRANCH   5   6
ENDBRANCH   4   5
ENDBRANCH   3   4
ENDBRANCH   2   3
TORSDOF 11
ENDMDL
MODEL       92
REMARK 921   NORMALIZED FREE ENERGY PREDICTED BY IDOCK:   -4.45 KCAL/MOL
REMARK 922        TOTAL FREE ENERGY PREDICTED BY IDOCK:   -8.33 KCAL/MOL
REMARK 923 INTER-LIGAND FREE ENERGY PREDICTED BY IDOCK:   -7.70 KCAL/MOL
REMARK 924 INTRA-LIGAND FREE ENERGY PREDICTED BY IDOCK:   -0.63 KCAL/MOL
REMARK 927      BINDING AFFINITY PREDICTED BY RF-SCORE:    0.00 PKD
ROOT
HETATM    1  C   UNL     1      -7.212   9.727  63.706  1.00  0.00    -0.120 C  
HETATM    2  C   UNL     1      -8.610   9.234  64.037  1.00  0.00    -0.204 C  
ENDROOT
BRANCH   2   3
HETATM    3  C   UNL     1      -9.492  10.373  64.543  1.00  0.00    -0.342 C  
BRANCH   3   4
HETATM    4  C   UNL     1     -10.065  11.189  63.392  1.00  0.00    -0.390 C  
BRANCH   4   5
HETATM    5  O   UNL     1      -9.788  12.573  63.640  1.00  0.00    -0.323 OA 
BRANCH   5   6
HETATM    6  C   UNL     1     -10.526  13.138  64.653  1.00  0.00    -0.392 A  
HETATM    7  C   UNL     1     -11.798  13.633  64.310  1.00  0.00    -0.425 A  
HETATM    8  C   UNL     1     -12.623  14.141  65.319  1.00  0.00    -0.460 A  
HETATM    9  N   UNL     1     -12.324  13.427  63.022  1.00  0.00    -0.945 NA 
HETATM   10  H1  UNL     1     -13.246  13.785  62.773  1.00  0.00     0.000 HD 
HETATM   11  C   UNL     1     -12.145  14.296  66.622  1.00  0.00    -0.448 A  
HETATM   12  H2  UNL     1     -12.308  12.426  62.827  1.00  0.00     0.000 HD 
HETATM   13  C   UNL     1     -10.840  13.905  66.934  1.00  0.00    -0.286 A  
HETATM   14  C   UNL     1     -10.042  13.306  65.951  1.00  0.00    -0.296 A  
BRANCH  13  15
HETATM   15  C   UNL     1     -10.288  14.269  68.266  1.00  0.00    -0.242 C  
HETATM   16  O   UNL     1     -10.954  14.363  69.281  1.00  0.00    -0.253 OA 
BRANCH  15  17
HETATM   17  O   UNL     1      -8.994  14.645  68.122  1.00  0.00    -0.167 OA 
BRANCH  17  18
HETATM   18  C   UNL     1      -8.571  15.688  69.018  1.00  0.00    -0.232 C  
BRANCH  18  19
HETATM   19  C   UNL     1      -8.574  17.002  68.210  1.00  0.00    -0.234 C  
BRANCH  19  20
HETATM   20  N   UNL     1      -9.648  17.969  68.502  1.00  0.00    -0.323 NA 
BRANCH  20  21
HETATM   21  C   UNL     1      -9.152  19.316  68.818  1.00  0.00    -0.361 C  
HETATM   22  C   UNL     1      -7.637  19.488  68.848  1.00  0.00    -0.383 C  
ENDBRANCH  20  21
BRANCH  20  23
HETATM   23  C   UNL     1     -10.642  17.930  67.413  1.00  0.00    -0.360 C  
HETATM   24  C   UNL     1     -10.351  18.885  66.261  1.00  0.00    -0.512 C  
ENDBRANCH  20  23
ENDBRANCH  19  20
ENDBRANCH  18  19
ENDBRANCH  17  18
ENDBRANCH  15  17
ENDBRANCH  13  15
ENDBRANCH   5   6
ENDBRANCH   4   5
ENDBRANCH   3   4
ENDBRANCH   2   3
TORSDOF 11
ENDMDL
MODEL       93
REMARK 921   NORMALIZED FREE ENERGY PREDICTED BY IDOCK:   -4.39 KCAL/MOL
REMARK 922        TOTAL FREE ENERGY PREDICTED BY IDOCK:   -8.22 KCAL/MOL
REMARK 923 INTER-LIGAND FREE ENERGY PREDICTED BY IDOCK:   -7.65 KCAL/MOL
REMARK 924 INTRA-LIGAND FREE ENERGY PREDICTED BY IDOCK:   -0.57 KCAL/MOL
REMARK 927      BINDING AFFINITY PREDICTED BY RF-SCORE:    0.00 PKD
ROOT
HETATM    1  C   UNL     1      -8.501  17.247  67.956  1.00  0.00    -0.229 C  
HETATM    2  C   UNL     1      -9.299  16.395  68.929  1.00  0.00    -0.249 C  
ENDROOT
BRANCH   2   3
HETATM    3  C   UNL     1     -10.775  16.785  68.923  1.00  0.00    -0.333 C  
BRANCH   3   4
HETATM    4  C   UNL     1     -11.677  15.557  68.951  1.00  0.00    -0.370 C  
BRANCH   4   5
HETATM    5  O   UNL     1     -12.450  15.594  70.157  1.00  0.00    -0.389 OA 
BRANCH   5   6
HETATM    6  C   UNL     1     -12.666  14.368  70.743  1.00  0.00    -0.360 A  
HETATM    7  C   UNL     1     -13.402  14.362  71.943  1.00  0.00    -0.374 A  
HETATM    8  C   UNL     1     -13.723  13.136  72.536  1.00  0.00    -0.563 A  
HETATM    9  N   UNL     1     -13.994  15.542  72.428  1.00  0.00    -0.556 NA 
HETATM   10  H1  UNL     1     -14.527  15.537  73.297  1.00  0.00     0.000 HD 
HETATM   11  C   UNL     1     -13.199  11.942  72.034  1.00  0.00    -0.461 A  
HETATM   12  H2  UNL     1     -14.586  15.927  71.693  1.00  0.00     0.000 HD 
HETATM   13  C   UNL     1     -12.376  11.965  70.905  1.00  0.00    -0.400 A  
HETATM   14  C   UNL     1     -12.131  13.178  70.250  1.00  0.00    -0.399 A  
BRANCH  13  15
HETATM   15  C   UNL     1     -11.667  10.717  70.516  1.00  0.00    -0.356 C  
HETATM   16  O   UNL     1     -10.787  10.662  69.676  1.00  0.00    -0.246 OA 
BRANCH  15  17
HETATM   17  O   UNL     1     -12.275   9.659  71.106  1.00  0.00    -0.311 OA 
BRANCH  17  18
HETATM   18  C   UNL     1     -11.418   8.870  71.949  1.00  0.00    -0.372 C  
BRANCH  18  19
HETATM   19  C   UNL     1     -11.818   7.394  71.741  1.00  0.00    -0.294 C  
BRANCH  19  20
HETATM   20  N   UNL     1     -10.810   6.372  72.075  1.00  0.00    -0.230 NA 
BRANCH  20  21
HETATM   21  C   UNL     1     -11.362   5.228  72.815  1.00  0.00    -0.276 C  
HETATM   22  C   UNL     1     -10.352   4.338  73.533  1.00  0.00    -0.242 C  
ENDBRANCH  20  21
BRANCH  20  23
HETATM   23  C   UNL     1     -10.073   6.002  70.853  1.00  0.00    -0.196 C  
HETATM   24  C   UNL     1     -10.929   5.948  69.593  1.00  0.00    -0.447 C  
ENDBRANCH  20  23
ENDBRANCH  19  20
ENDBRANCH  18  19
ENDBRANCH  17  18
ENDBRANCH  15  17
ENDBRANCH  13  15
ENDBRANCH   5   6
ENDBRANCH   4   5
ENDBRANCH   3   4
ENDBRANCH   2   3
TORSDOF 11
ENDMDL
MODEL       94
REMARK 921   NORMALIZED FREE ENERGY PREDICTED BY IDOCK:   -4.39 KCAL/MOL
REMARK 922        TOTAL FREE ENERGY PREDICTED BY IDOCK:   -8.22 KCAL/MOL
REMARK 923 INTER-LIGAND FREE ENERGY PREDICTED BY IDOCK:   -7.33 KCAL/MOL
REMARK 924 INTRA-LIGAND FREE ENERGY PREDICTED BY IDOCK:   -0.89 KCAL/MOL
REMARK 927      BINDING AFFINITY PREDICTED BY RF-SCORE:    0.00 PKD
ROOT
HETATM    1  C   UNL     1      -7.429  10.627  66.491  1.00  0.00    -0.134 C  
HETATM    2  C   UNL     1      -7.303  10.065  65.084  1.00  0.00    -0.139 C  
ENDROOT
BRANCH   2   3
HETATM    3  C   UNL     1      -8.520   9.220  64.716  1.00  0.00    -0.189 C  
BRANCH   3   4
HETATM    4  C   UNL     1      -9.777   9.713  65.422  1.00  0.00    -0.295 C  
BRANCH   4   5
HETATM    5  O   UNL     1     -10.396  10.707  64.597  1.00  0.00    -0.345 OA 
BRANCH   5   6
HETATM    6  C   UNL     1     -11.024  11.719  65.283  1.00  0.00    -0.295 A  
HETATM    7  C   UNL     1     -11.470  12.818  64.523  1.00  0.00    -0.342 A  
HETATM    8  C   UNL     1     -12.190  13.835  65.159  1.00  0.00    -0.453 A  
HETATM    9  N   UNL     1     -11.390  12.799  63.119  1.00  0.00    -0.757 NA 
HETATM   10  H1  UNL     1     -11.713  13.594  62.569  1.00  0.00     0.000 HD 
HETATM   11  C   UNL     1     -12.338  13.843  66.547  1.00  0.00    -0.447 A  
HETATM   12  H2  UNL     1     -11.869  11.963  62.784  1.00  0.00     0.000 HD 
HETATM   13  C   UNL     1     -11.797  12.806  67.310  1.00  0.00    -0.414 A  
HETATM   14  C   UNL     1     -11.160  11.734  66.671  1.00  0.00    -0.364 A  
BRANCH  13  15
HETATM   15  C   UNL     1     -11.787  12.942  68.791  1.00  0.00    -0.315 C  
HETATM   16  O   UNL     1     -11.107  13.749  69.401  1.00  0.00    -0.231 OA 
BRANCH  15  17
HETATM   17  O   UNL     1     -12.501  11.927  69.335  1.00  0.00    -0.062 OA 
BRANCH  17  18
HETATM   18  C   UNL     1     -12.128  11.588  70.682  1.00  0.00    -0.353 C  
BRANCH  18  19
HETATM   19  C   UNL     1     -12.734  10.201  70.981  1.00  0.00    -0.386 C  
BRANCH  19  20
HETATM   20  N   UNL     1     -11.902   9.255  71.745  1.00  0.00    -0.374 NA 
BRANCH  20  21
HETATM   21  C   UNL     1     -12.560   7.964  71.990  1.00  0.00    -0.296 C  
HETATM   22  C   UNL     1     -13.997   7.834  71.496  1.00  0.00    -0.468 C  
ENDBRANCH  20  21
BRANCH  20  23
HETATM   23  C   UNL     1     -10.579   9.146  71.103  1.00  0.00    -0.309 C  
HETATM   24  C   UNL     1      -9.494   8.550  71.992  1.00  0.00    -0.364 C  
ENDBRANCH  20  23
ENDBRANCH  19  20
ENDBRANCH  18  19
ENDBRANCH  17  18
ENDBRANCH  15  17
ENDBRANCH  13  15
ENDBRANCH   5   6
ENDBRANCH   4   5
ENDBRANCH   3   4
ENDBRANCH   2   3
TORSDOF 11
ENDMDL
MODEL       95
REMARK 921   NORMALIZED FREE ENERGY PREDICTED BY IDOCK:   -4.37 KCAL/MOL
REMARK 922        TOTAL FREE ENERGY PREDICTED BY IDOCK:   -8.19 KCAL/MOL
REMARK 923 INTER-LIGAND FREE ENERGY PREDICTED BY IDOCK:   -7.44 KCAL/MOL
REMARK 924 INTRA-LIGAND FREE ENERGY PREDICTED BY IDOCK:   -0.75 KCAL/MOL
REMARK 927      BINDING AFFINITY PREDICTED BY RF-SCORE:    0.00 PKD
ROOT
HETATM    1  C   UNL     1      -9.650  18.664  68.531  1.00  0.00    -0.399 C  
HETATM    2  C   UNL     1     -10.686  17.642  68.095  1.00  0.00    -0.312 C  
ENDROOT
BRANCH   2   3
HETATM    3  C   UNL     1     -10.299  16.235  68.546  1.00  0.00    -0.261 C  
BRANCH   3   4
HETATM    4  C   UNL     1     -10.851  15.922  69.930  1.00  0.00    -0.333 C  
BRANCH   4   5
HETATM    5  O   UNL     1     -12.214  15.505  69.788  1.00  0.00    -0.355 OA 
BRANCH   5   6
HETATM    6  C   UNL     1     -12.532  14.336  70.440  1.00  0.00    -0.362 A  
HETATM    7  C   UNL     1     -13.312  14.454  71.607  1.00  0.00    -0.363 A  
HETATM    8  C   UNL     1     -13.735  13.292  72.261  1.00  0.00    -0.686 A  
HETATM    9  N   UNL     1     -13.842  15.699  71.992  1.00  0.00    -0.469 NA 
HETATM   10  H1  UNL     1     -14.407  15.785  72.837  1.00  0.00     0.000 HD 
HETATM   11  C   UNL     1     -13.272  12.038  71.857  1.00  0.00    -0.469 A  
HETATM   12  H2  UNL     1     -14.380  16.072  71.210  1.00  0.00     0.000 HD 
HETATM   13  C   UNL     1     -12.408  11.935  70.764  1.00  0.00    -0.416 A  
HETATM   14  C   UNL     1     -12.059  13.085  70.045  1.00  0.00    -0.367 A  
BRANCH  13  15
HETATM   15  C   UNL     1     -11.769  10.622  70.484  1.00  0.00    -0.356 C  
HETATM   16  O   UNL     1     -11.364   9.859  71.344  1.00  0.00    -0.364 OA 
BRANCH  15  17
HETATM   17  O   UNL     1     -11.556  10.507  69.151  1.00  0.00    -0.261 OA 
BRANCH  17  18
HETATM   18  C   UNL     1     -10.349   9.811  68.796  1.00  0.00    -0.208 C  
BRANCH  18  19
HETATM   19  C   UNL     1     -10.651   9.012  67.511  1.00  0.00    -0.237 C  
BRANCH  19  20
HETATM   20  N   UNL     1     -10.533   7.545  67.588  1.00  0.00    -0.241 NA 
BRANCH  20  21
HETATM   21  C   UNL     1      -9.587   6.983  66.615  1.00  0.00    -0.167 C  
HETATM   22  C   UNL     1      -8.894   7.981  65.693  1.00  0.00    -0.133 C  
ENDBRANCH  20  21
BRANCH  20  23
HETATM   23  C   UNL     1     -10.267   7.154  68.985  1.00  0.00    -0.190 C  
HETATM   24  C   UNL     1     -11.322   6.240  69.596  1.00  0.00    -0.492 C  
ENDBRANCH  20  23
ENDBRANCH  19  20
ENDBRANCH  18  19
ENDBRANCH  17  18
ENDBRANCH  15  17
ENDBRANCH  13  15
ENDBRANCH   5   6
ENDBRANCH   4   5
ENDBRANCH   3   4
ENDBRANCH   2   3
TORSDOF 11
ENDMDL
MODEL       96
REMARK 921   NORMALIZED FREE ENERGY PREDICTED BY IDOCK:   -4.35 KCAL/MOL
REMARK 922        TOTAL FREE ENERGY PREDICTED BY IDOCK:   -8.16 KCAL/MOL
REMARK 923 INTER-LIGAND FREE ENERGY PREDICTED BY IDOCK:   -7.33 KCAL/MOL
REMARK 924 INTRA-LIGAND FREE ENERGY PREDICTED BY IDOCK:   -0.84 KCAL/MOL
REMARK 927      BINDING AFFINITY PREDICTED BY RF-SCORE:    0.00 PKD
ROOT
HETATM    1  C   UNL     1     -13.042  10.154  71.683  1.00  0.00    -0.550 C  
HETATM    2  C   UNL     1     -12.199   8.917  71.941  1.00  0.00    -0.445 C  
ENDROOT
BRANCH   2   3
HETATM    3  C   UNL     1     -10.737   9.158  71.570  1.00  0.00    -0.437 C  
BRANCH   3   4
HETATM    4  C   UNL     1     -10.612   9.906  70.249  1.00  0.00    -0.301 C  
BRANCH   4   5
HETATM    5  O   UNL     1     -10.517   8.942  69.193  1.00  0.00    -0.224 OA 
BRANCH   5   6
HETATM    6  C   UNL     1     -10.418   9.477  67.930  1.00  0.00    -0.241 A  
HETATM    7  C   UNL     1      -9.508   8.860  67.051  1.00  0.00    -0.166 A  
HETATM    8  C   UNL     1      -9.430   9.311  65.729  1.00  0.00    -0.329 A  
HETATM    9  N   UNL     1      -8.844   7.676  67.420  1.00  0.00    -0.124 NA 
HETATM   10  H1  UNL     1      -8.184   7.230  66.784  1.00  0.00     0.000 HD 
HETATM   11  C   UNL     1     -10.130  10.448  65.320  1.00  0.00    -0.370 A  
HETATM   12  H2  UNL     1      -9.546   6.987  67.687  1.00  0.00     0.000 HD 
HETATM   13  C   UNL     1     -10.949  11.123  66.229  1.00  0.00    -0.227 A  
HETATM   14  C   UNL     1     -11.107  10.621  67.527  1.00  0.00    -0.367 A  
BRANCH  13  15
HETATM   15  C   UNL     1     -11.516  12.440  65.832  1.00  0.00    -0.374 C  
HETATM   16  O   UNL     1     -11.240  13.021  64.798  1.00  0.00    -0.299 OA 
BRANCH  15  17
HETATM   17  O   UNL     1     -12.226  12.947  66.868  1.00  0.00    -0.407 OA 
BRANCH  17  18
HETATM   18  C   UNL     1     -11.729  14.196  67.379  1.00  0.00    -0.391 C  
BRANCH  18  19
HETATM   19  C   UNL     1     -12.136  14.268  68.866  1.00  0.00    -0.279 C  
BRANCH  19  20
HETATM   20  N   UNL     1     -11.623  15.406  69.649  1.00  0.00    -0.306 NA 
BRANCH  20  21
HETATM   21  C   UNL     1     -11.537  15.132  71.090  1.00  0.00    -0.360 C  
HETATM   22  C   UNL     1     -12.459  15.949  71.989  1.00  0.00    -0.534 C  
ENDBRANCH  20  21
BRANCH  20  23
HETATM   23  C   UNL     1     -10.362  15.877  69.047  1.00  0.00    -0.231 C  
HETATM   24  C   UNL     1     -10.359  17.353  68.666  1.00  0.00    -0.364 C  
ENDBRANCH  20  23
ENDBRANCH  19  20
ENDBRANCH  18  19
ENDBRANCH  17  18
ENDBRANCH  15  17
ENDBRANCH  13  15
ENDBRANCH   5   6
ENDBRANCH   4   5
ENDBRANCH   3   4
ENDBRANCH   2   3
TORSDOF 11
ENDMDL
MODEL       97
REMARK 921   NORMALIZED FREE ENERGY PREDICTED BY IDOCK:   -4.35 KCAL/MOL
REMARK 922        TOTAL FREE ENERGY PREDICTED BY IDOCK:   -8.15 KCAL/MOL
REMARK 923 INTER-LIGAND FREE ENERGY PREDICTED BY IDOCK:   -7.37 KCAL/MOL
REMARK 924 INTRA-LIGAND FREE ENERGY PREDICTED BY IDOCK:   -0.79 KCAL/MOL
REMARK 927      BINDING AFFINITY PREDICTED BY RF-SCORE:    0.00 PKD
ROOT
HETATM    1  C   UNL     1     -13.946  13.865  72.398  1.00  0.00    -0.633 C  
HETATM    2  C   UNL     1     -13.969  15.381  72.306  1.00  0.00    -0.661 C  
ENDROOT
BRANCH   2   3
HETATM    3  C   UNL     1     -12.619  15.979  72.697  1.00  0.00    -0.551 C  
BRANCH   3   4
HETATM    4  C   UNL     1     -11.482  15.364  71.891  1.00  0.00    -0.433 C  
BRANCH   4   5
HETATM    5  O   UNL     1     -11.540  15.887  70.558  1.00  0.00    -0.332 OA 
BRANCH   5   6
HETATM    6  C   UNL     1     -11.438  14.945  69.562  1.00  0.00    -0.297 A  
HETATM    7  C   UNL     1     -11.194  15.423  68.260  1.00  0.00    -0.323 A  
HETATM    8  C   UNL     1     -10.997  14.503  67.225  1.00  0.00    -0.307 A  
HETATM    9  N   UNL     1     -10.934  16.787  68.035  1.00  0.00    -0.338 NA 
HETATM   10  H1  UNL     1     -10.757  17.134  67.092  1.00  0.00     0.000 HD 
HETATM   11  C   UNL     1     -11.186  13.136  67.440  1.00  0.00    -0.319 A  
HETATM   12  H2  UNL     1     -10.154  17.066  68.629  1.00  0.00     0.000 HD 
HETATM   13  C   UNL     1     -11.539  12.675  68.711  1.00  0.00    -0.355 A  
HETATM   14  C   UNL     1     -11.641  13.581  69.774  1.00  0.00    -0.313 A  
BRANCH  13  15
HETATM   15  C   UNL     1     -11.935  11.250  68.865  1.00  0.00    -0.310 C  
HETATM   16  O   UNL     1     -12.854  10.867  69.568  1.00  0.00    -0.211 OA 
BRANCH  15  17
HETATM   17  O   UNL     1     -11.014  10.464  68.256  1.00  0.00    -0.235 OA 
BRANCH  17  18
HETATM   18  C   UNL     1     -10.004   9.938  69.133  1.00  0.00    -0.198 C  
BRANCH  18  19
HETATM   19  C   UNL     1     -10.569   8.637  69.741  1.00  0.00    -0.224 C  
BRANCH  19  20
HETATM   20  N   UNL     1     -10.546   7.433  68.890  1.00  0.00    -0.201 NA 
BRANCH  20  21
HETATM   21  C   UNL     1      -9.210   7.109  68.372  1.00  0.00    -0.133 C  
HETATM   22  C   UNL     1      -8.470   5.974  69.072  1.00  0.00    -0.117 C  
ENDBRANCH  20  21
BRANCH  20  23
HETATM   23  C   UNL     1     -11.202   6.323  69.607  1.00  0.00    -0.437 C  
HETATM   24  C   UNL     1     -11.892   6.731  70.903  1.00  0.00    -0.438 C  
ENDBRANCH  20  23
ENDBRANCH  19  20
ENDBRANCH  18  19
ENDBRANCH  17  18
ENDBRANCH  15  17
ENDBRANCH  13  15
ENDBRANCH   5   6
ENDBRANCH   4   5
ENDBRANCH   3   4
ENDBRANCH   2   3
TORSDOF 11
ENDMDL
MODEL       98
REMARK 921   NORMALIZED FREE ENERGY PREDICTED BY IDOCK:   -4.34 KCAL/MOL
REMARK 922        TOTAL FREE ENERGY PREDICTED BY IDOCK:   -8.14 KCAL/MOL
REMARK 923 INTER-LIGAND FREE ENERGY PREDICTED BY IDOCK:   -7.36 KCAL/MOL
REMARK 924 INTRA-LIGAND FREE ENERGY PREDICTED BY IDOCK:   -0.78 KCAL/MOL
REMARK 927      BINDING AFFINITY PREDICTED BY RF-SCORE:    0.00 PKD
ROOT
HETATM    1  C   UNL     1     -10.286   5.048  67.542  1.00  0.00    -0.184 C  
HETATM    2  C   UNL     1     -10.866   6.348  68.075  1.00  0.00    -0.396 C  
ENDROOT
BRANCH   2   3
HETATM    3  C   UNL     1     -10.766   7.463  67.037  1.00  0.00    -0.389 C  
BRANCH   3   4
HETATM    4  C   UNL     1     -10.163   8.729  67.634  1.00  0.00    -0.239 C  
BRANCH   4   5
HETATM    5  O   UNL     1      -9.133   9.195  66.755  1.00  0.00    -0.137 OA 
BRANCH   5   6
HETATM    6  C   UNL     1      -9.577   9.937  65.686  1.00  0.00    -0.256 A  
HETATM    7  C   UNL     1      -9.061   9.597  64.420  1.00  0.00    -0.229 A  
HETATM    8  C   UNL     1      -9.544  10.264  63.289  1.00  0.00    -0.305 A  
HETATM    9  N   UNL     1      -8.241   8.465  64.261  1.00  0.00    -0.253 NA 
HETATM   10  H1  UNL     1      -7.868   8.219  63.345  1.00  0.00     0.000 HD 
HETATM   11  C   UNL     1     -10.411  11.351  63.418  1.00  0.00    -0.458 A  
HETATM   12  H2  UNL     1      -8.739   7.656  64.631  1.00  0.00     0.000 HD 
HETATM   13  C   UNL     1     -10.833  11.757  64.686  1.00  0.00    -0.363 A  
HETATM   14  C   UNL     1     -10.431  11.032  65.816  1.00  0.00    -0.290 A  
BRANCH  13  15
HETATM   15  C   UNL     1     -11.583  13.035  64.811  1.00  0.00    -0.329 C  
HETATM   16  O   UNL     1     -12.787  13.109  64.983  1.00  0.00    -0.692 OA 
BRANCH  15  17
HETATM   17  O   UNL     1     -10.753  14.067  64.526  1.00  0.00    -0.409 OA 
BRANCH  17  18
HETATM   18  C   UNL     1     -11.328  15.370  64.724  1.00  0.00    -0.376 C  
BRANCH  18  19
HETATM   19  C   UNL     1     -10.847  15.869  66.102  1.00  0.00    -0.208 C  
BRANCH  19  20
HETATM   20  N   UNL     1      -9.747  16.851  66.115  1.00  0.00    -0.386 NA 
BRANCH  20  21
HETATM   21  C   UNL     1      -9.949  17.941  67.080  1.00  0.00    -0.327 C  
HETATM   22  C   UNL     1     -10.615  19.203  66.543  1.00  0.00    -0.523 C  
ENDBRANCH  20  21
BRANCH  20  23
HETATM   23  C   UNL     1      -8.465  16.138  66.268  1.00  0.00    -0.322 C  
HETATM   24  C   UNL     1      -7.283  17.035  66.616  1.00  0.00    -0.293 C  
ENDBRANCH  20  23
ENDBRANCH  19  20
ENDBRANCH  18  19
ENDBRANCH  17  18
ENDBRANCH  15  17
ENDBRANCH  13  15
ENDBRANCH   5   6
ENDBRANCH   4   5
ENDBRANCH   3   4
ENDBRANCH   2   3
TORSDOF 11
ENDMDL
MODEL       99
REMARK 921   NORMALIZED FREE ENERGY PREDICTED BY IDOCK:   -4.33 KCAL/MOL
REMARK 922        TOTAL FREE ENERGY PREDICTED BY IDOCK:   -8.13 KCAL/MOL
REMARK 923 INTER-LIGAND FREE ENERGY PREDICTED BY IDOCK:   -6.82 KCAL/MOL
REMARK 924 INTRA-LIGAND FREE ENERGY PREDICTED BY IDOCK:   -1.31 KCAL/MOL
REMARK 927      BINDING AFFINITY PREDICTED BY RF-SCORE:    0.00 PKD
ROOT
HETATM    1  C   UNL     1      -7.587  10.910  67.808  1.00  0.00    -0.095 C  
HETATM    2  C   UNL     1      -7.313  10.619  66.341  1.00  0.00    -0.138 C  
ENDROOT
BRANCH   2   3
HETATM    3  C   UNL     1      -8.227   9.514  65.817  1.00  0.00    -0.116 C  
BRANCH   3   4
HETATM    4  C   UNL     1      -9.695   9.838  66.067  1.00  0.00    -0.255 C  
BRANCH   4   5
HETATM    5  O   UNL     1     -10.137  10.742  65.048  1.00  0.00    -0.272 OA 
BRANCH   5   6
HETATM    6  C   UNL     1     -10.863  11.817  65.504  1.00  0.00    -0.297 A  
HETATM    7  C   UNL     1     -11.675  12.478  64.562  1.00  0.00    -0.362 A  
HETATM    8  C   UNL     1     -12.499  13.524  64.991  1.00  0.00    -0.462 A  
HETATM    9  N   UNL     1     -11.827  11.965  63.261  1.00  0.00    -0.789 NA 
HETATM   10  H1  UNL     1     -12.415  12.443  62.579  1.00  0.00     0.000 HD 
HETATM   11  C   UNL     1     -12.412  14.010  66.298  1.00  0.00    -0.439 A  
HETATM   12  H2  UNL     1     -12.145  10.998  63.334  1.00  0.00     0.000 HD 
HETATM   13  C   UNL     1     -11.522  13.422  67.200  1.00  0.00    -0.373 A  
HETATM   14  C   UNL     1     -10.766  12.311  66.804  1.00  0.00    -0.272 A  
BRANCH  13  15
HETATM   15  C   UNL     1     -11.299  14.084  68.513  1.00  0.00    -0.277 C  
HETATM   16  O   UNL     1     -12.192  14.499  69.231  1.00  0.00    -0.301 OA 
BRANCH  15  17
HETATM   17  O   UNL     1      -9.973  14.304  68.680  1.00  0.00    -0.233 OA 
BRANCH  17  18
HETATM   18  C   UNL     1      -9.652  15.496  69.416  1.00  0.00    -0.279 C  
BRANCH  18  19
HETATM   19  C   UNL     1      -8.574  16.248  68.608  1.00  0.00    -0.222 C  
BRANCH  19  20
HETATM   20  N   UNL     1      -9.043  17.199  67.584  1.00  0.00    -0.225 NA 
BRANCH  20  21
HETATM   21  C   UNL     1      -9.029  16.646  66.223  1.00  0.00    -0.305 C  
HETATM   22  C   UNL     1     -10.374  16.579  65.507  1.00  0.00    -0.307 C  
ENDBRANCH  20  21
BRANCH  20  23
HETATM   23  C   UNL     1     -10.346  17.752  67.998  1.00  0.00    -0.393 C  
HETATM   24  C   UNL     1     -10.267  19.124  68.657  1.00  0.00    -0.407 C  
ENDBRANCH  20  23
ENDBRANCH  19  20
ENDBRANCH  18  19
ENDBRANCH  17  18
ENDBRANCH  15  17
ENDBRANCH  13  15
ENDBRANCH   5   6
ENDBRANCH   4   5
ENDBRANCH   3   4
ENDBRANCH   2   3
TORSDOF 11
ENDMDL
MODEL      100
REMARK 921   NORMALIZED FREE ENERGY PREDICTED BY IDOCK:   -4.33 KCAL/MOL
REMARK 922        TOTAL FREE ENERGY PREDICTED BY IDOCK:   -8.12 KCAL/MOL
REMARK 923 INTER-LIGAND FREE ENERGY PREDICTED BY IDOCK:   -7.23 KCAL/MOL
REMARK 924 INTRA-LIGAND FREE ENERGY PREDICTED BY IDOCK:   -0.90 KCAL/MOL
REMARK 927      BINDING AFFINITY PREDICTED BY RF-SCORE:    0.00 PKD
ROOT
HETATM    1  C   UNL     1      -9.904   7.094  73.220  1.00  0.00    -0.275 C  
HETATM    2  C   UNL     1     -11.272   7.647  72.856  1.00  0.00    -0.426 C  
ENDROOT
BRANCH   2   3
HETATM    3  C   UNL     1     -11.151   8.849  71.921  1.00  0.00    -0.442 C  
BRANCH   3   4
HETATM    4  C   UNL     1     -12.483   9.178  71.260  1.00  0.00    -0.300 C  
BRANCH   4   5
HETATM    5  O   UNL     1     -12.932  10.445  71.757  1.00  0.00    -0.420 OA 
BRANCH   5   6
HETATM    6  C   UNL     1     -12.605  11.523  70.968  1.00  0.00    -0.357 A  
HETATM    7  C   UNL     1     -12.921  12.798  71.476  1.00  0.00    -0.292 A  
HETATM    8  C   UNL     1     -12.535  13.931  70.752  1.00  0.00    -0.445 A  
HETATM    9  N   UNL     1     -13.419  12.946  72.783  1.00  0.00    -0.644 NA 
HETATM   10  H1  UNL     1     -13.648  13.869  73.151  1.00  0.00     0.000 HD 
HETATM   11  C   UNL     1     -11.979  13.808  69.477  1.00  0.00    -0.399 A  
HETATM   12  H2  UNL     1     -12.765  12.499  73.426  1.00  0.00     0.000 HD 
HETATM   13  C   UNL     1     -11.769  12.540  68.930  1.00  0.00    -0.367 A  
HETATM   14  C   UNL     1     -12.063  11.400  69.689  1.00  0.00    -0.373 A  
BRANCH  13  15
HETATM   15  C   UNL     1     -11.373  12.440  67.500  1.00  0.00    -0.315 C  
HETATM   16  O   UNL     1     -12.022  11.859  66.648  1.00  0.00    -0.601 OA 
BRANCH  15  17
HETATM   17  O   UNL     1     -10.118  12.929  67.352  1.00  0.00    -0.219 OA 
BRANCH  17  18
HETATM   18  C   UNL     1      -9.071  11.975  67.597  1.00  0.00    -0.179 C  
BRANCH  18  19
HETATM   19  C   UNL     1      -8.661  11.395  66.227  1.00  0.00    -0.173 C  
BRANCH  19  20
HETATM   20  N   UNL     1      -8.408   9.944  66.160  1.00  0.00    -0.120 NA 
BRANCH  20  21
HETATM   21  C   UNL     1      -9.633   9.143  66.026  1.00  0.00    -0.272 C  
HETATM   22  C   UNL     1     -10.208   8.567  67.316  1.00  0.00    -0.346 C  
ENDBRANCH  20  21
BRANCH  20  23
HETATM   23  C   UNL     1      -7.395   9.678  65.122  1.00  0.00    -0.115 C  
HETATM   24  C   UNL     1      -7.929   9.721  63.695  1.00  0.00    -0.144 C  
ENDBRANCH  20  23
ENDBRANCH  19  20
ENDBRANCH  18  19
ENDBRANCH  17  18
ENDBRANCH  15  17
ENDBRANCH  13  15
ENDBRANCH   5   6
ENDBRANCH   4   5
ENDBRANCH   3   4
ENDBRANCH   2   3
TORSDOF 11
ENDMDL
MODEL      101
REMARK 921   NORMALIZED FREE ENERGY PREDICTED BY IDOCK:   -4.32 KCAL/MOL
REMARK 922        TOTAL FREE ENERGY PREDICTED BY IDOCK:   -8.11 KCAL/MOL
REMARK 923 INTER-LIGAND FREE ENERGY PREDICTED BY IDOCK:   -7.30 KCAL/MOL
REMARK 924 INTRA-LIGAND FREE ENERGY PREDICTED BY IDOCK:   -0.81 KCAL/MOL
REMARK 927      BINDING AFFINITY PREDICTED BY RF-SCORE:    0.00 PKD
ROOT
HETATM    1  C   UNL     1      -9.898  10.659  67.014  1.00  0.00    -0.222 C  
HETATM    2  C   UNL     1     -10.366   9.216  66.929  1.00  0.00    -0.321 C  
ENDROOT
BRANCH   2   3
HETATM    3  C   UNL     1     -10.591   8.625  68.319  1.00  0.00    -0.181 C  
BRANCH   3   4
HETATM    4  C   UNL     1     -10.477   9.690  69.403  1.00  0.00    -0.220 C  
BRANCH   4   5
HETATM    5  O   UNL     1     -11.661   9.642  70.209  1.00  0.00    -0.252 OA 
BRANCH   5   6
HETATM    6  C   UNL     1     -12.123  10.866  70.632  1.00  0.00    -0.371 A  
HETATM    7  C   UNL     1     -13.083  10.858  71.662  1.00  0.00    -0.433 A  
HETATM    8  C   UNL     1     -13.523  12.077  72.188  1.00  0.00    -0.338 A  
HETATM    9  N   UNL     1     -13.436   9.658  72.305  1.00  0.00    -0.573 NA 
HETATM   10  H1  UNL     1     -14.131   9.652  73.051  1.00  0.00     0.000 HD 
HETATM   11  C   UNL     1     -13.136  13.287  71.607  1.00  0.00    -0.453 A  
HETATM   12  H2  UNL     1     -12.584   9.223  72.660  1.00  0.00     0.000 HD 
HETATM   13  C   UNL     1     -12.268  13.284  70.512  1.00  0.00    -0.416 A  
HETATM   14  C   UNL     1     -11.747  12.072  70.042  1.00  0.00    -0.346 A  
BRANCH  13  15
HETATM   15  C   UNL     1     -12.037  14.562  69.785  1.00  0.00    -0.331 C  
HETATM   16  O   UNL     1     -12.558  15.622  70.082  1.00  0.00    -0.367 OA 
BRANCH  15  17
HETATM   17  O   UNL     1     -11.317  14.311  68.666  1.00  0.00    -0.246 OA 
BRANCH  17  18
HETATM   18  C   UNL     1     -11.361  15.357  67.680  1.00  0.00    -0.290 C  
BRANCH  18  19
HETATM   19  C   UNL     1     -10.101  16.223  67.884  1.00  0.00    -0.247 C  
BRANCH  19  20
HETATM   20  N   UNL     1     -10.097  17.561  67.266  1.00  0.00    -0.316 NA 
BRANCH  20  21
HETATM   21  C   UNL     1     -10.192  18.656  68.242  1.00  0.00    -0.380 C  
HETATM   22  C   UNL     1      -8.886  19.359  68.597  1.00  0.00    -0.417 C  
ENDBRANCH  20  21
BRANCH  20  23
HETATM   23  C   UNL     1      -8.946  17.666  66.350  1.00  0.00    -0.231 C  
HETATM   24  C   UNL     1      -8.002  16.471  66.384  1.00  0.00    -0.352 C  
ENDBRANCH  20  23
ENDBRANCH  19  20
ENDBRANCH  18  19
ENDBRANCH  17  18
ENDBRANCH  15  17
ENDBRANCH  13  15
ENDBRANCH   5   6
ENDBRANCH   4   5
ENDBRANCH   3   4
ENDBRANCH   2   3
TORSDOF 11
ENDMDL
MODEL      102
REMARK 921   NORMALIZED FREE ENERGY PREDICTED BY IDOCK:   -4.32 KCAL/MOL
REMARK 922        TOTAL FREE ENERGY PREDICTED BY IDOCK:   -8.10 KCAL/MOL
REMARK 923 INTER-LIGAND FREE ENERGY PREDICTED BY IDOCK:   -7.15 KCAL/MOL
REMARK 924 INTRA-LIGAND FREE ENERGY PREDICTED BY IDOCK:   -0.96 KCAL/MOL
REMARK 927      BINDING AFFINITY PREDICTED BY RF-SCORE:    0.00 PKD
ROOT
HETATM    1  C   UNL     1     -10.911  19.373  67.062  1.00  0.00    -0.540 C  
HETATM    2  C   UNL     1      -9.718  20.314  67.008  1.00  0.00    -0.598 C  
ENDROOT
BRANCH   2   3
HETATM    3  C   UNL     1      -8.570  19.703  66.208  1.00  0.00    -0.393 C  
BRANCH   3   4
HETATM    4  C   UNL     1      -7.317  19.547  67.061  1.00  0.00    -0.215 C  
BRANCH   4   5
HETATM    5  O   UNL     1      -7.719  19.210  68.394  1.00  0.00    -0.296 OA 
BRANCH   5   6
HETATM    6  C   UNL     1      -7.539  17.890  68.736  1.00  0.00    -0.268 A  
HETATM    7  C   UNL     1      -6.323  17.560  69.367  1.00  0.00    -0.246 A  
HETATM    8  C   UNL     1      -6.124  16.249  69.812  1.00  0.00    -0.198 A  
HETATM    9  N   UNL     1      -5.414  18.565  69.741  1.00  0.00    -0.203 NA 
HETATM   10  H1  UNL     1      -4.534  18.326  70.197  1.00  0.00     0.000 HD 
HETATM   11  C   UNL     1      -7.046  15.244  69.507  1.00  0.00    -0.201 A  
HETATM   12  H2  UNL     1      -5.906  19.238  70.329  1.00  0.00     0.000 HD 
HETATM   13  C   UNL     1      -8.199  15.556  68.784  1.00  0.00    -0.177 A  
HETATM   14  C   UNL     1      -8.452  16.885  68.420  1.00  0.00    -0.239 A  
BRANCH  13  15
HETATM   15  C   UNL     1      -9.055  14.442  68.296  1.00  0.00    -0.193 C  
HETATM   16  O   UNL     1      -8.675  13.291  68.169  1.00  0.00    -0.169 OA 
BRANCH  15  17
HETATM   17  O   UNL     1     -10.234  14.946  67.859  1.00  0.00    -0.226 OA 
BRANCH  17  18
HETATM   18  C   UNL     1     -10.665  14.441  66.584  1.00  0.00    -0.292 C  
BRANCH  18  19
HETATM   19  C   UNL     1     -12.007  13.715  66.818  1.00  0.00    -0.414 C  
BRANCH  19  20
HETATM   20  N   UNL     1     -12.236  12.468  66.066  1.00  0.00    -0.620 NA 
BRANCH  20  21
HETATM   21  C   UNL     1     -12.561  12.691  64.650  1.00  0.00    -0.440 C  
HETATM   22  C   UNL     1     -11.736  11.905  63.636  1.00  0.00    -0.572 C  
ENDBRANCH  20  21
BRANCH  20  23
HETATM   23  C   UNL     1     -11.101  11.553  66.289  1.00  0.00    -0.263 C  
HETATM   24  C   UNL     1     -11.153  10.796  67.610  1.00  0.00    -0.384 C  
ENDBRANCH  20  23
ENDBRANCH  19  20
ENDBRANCH  18  19
ENDBRANCH  17  18
ENDBRANCH  15  17
ENDBRANCH  13  15
ENDBRANCH   5   6
ENDBRANCH   4   5
ENDBRANCH   3   4
ENDBRANCH   2   3
TORSDOF 11
ENDMDL
MODEL      103
REMARK 921   NORMALIZED FREE ENERGY PREDICTED BY IDOCK:   -4.29 KCAL/MOL
REMARK 922        TOTAL FREE ENERGY PREDICTED BY IDOCK:   -8.06 KCAL/MOL
REMARK 923 INTER-LIGAND FREE ENERGY PREDICTED BY IDOCK:   -7.43 KCAL/MOL
REMARK 924 INTRA-LIGAND FREE ENERGY PREDICTED BY IDOCK:   -0.63 KCAL/MOL
REMARK 927      BINDING AFFINITY PREDICTED BY RF-SCORE:    0.00 PKD
ROOT
HETATM    1  C   UNL     1     -12.525  12.230  63.831  1.00  0.00    -0.586 C  
HETATM    2  C   UNL     1     -11.095  11.827  63.509  1.00  0.00    -0.503 C  
ENDROOT
BRANCH   2   3
HETATM    3  C   UNL     1     -10.120  12.372  64.551  1.00  0.00    -0.276 C  
BRANCH   3   4
HETATM    4  C   UNL     1      -9.370  11.248  65.255  1.00  0.00    -0.203 C  
BRANCH   4   5
HETATM    5  O   UNL     1     -10.278  10.158  65.455  1.00  0.00    -0.286 OA 
BRANCH   5   6
HETATM    6  C   UNL     1     -10.450   9.781  66.767  1.00  0.00    -0.189 A  
HETATM    7  C   UNL     1     -10.201   8.430  67.076  1.00  0.00    -0.307 A  
HETATM    8  C   UNL     1     -10.279   8.014  68.409  1.00  0.00    -0.239 A  
HETATM    9  N   UNL     1      -9.672   7.559  66.106  1.00  0.00    -0.435 NA 
HETATM   10  H1  UNL     1      -9.491   6.581  66.330  1.00  0.00     0.000 HD 
HETATM   11  C   UNL     1     -10.741   8.881  69.401  1.00  0.00    -0.192 A  
HETATM   12  H2  UNL     1      -8.810   7.968  65.746  1.00  0.00     0.000 HD 
HETATM   13  C   UNL     1     -11.094  10.191  69.070  1.00  0.00    -0.249 A  
HETATM   14  C   UNL     1     -10.925  10.644  67.755  1.00  0.00    -0.364 A  
BRANCH  13  15
HETATM   15  C   UNL     1     -11.774  11.026  70.096  1.00  0.00    -0.356 C  
HETATM   16  O   UNL     1     -12.058  10.639  71.215  1.00  0.00    -0.345 OA 
BRANCH  15  17
HETATM   17  O   UNL     1     -12.174  12.189  69.528  1.00  0.00    -0.222 OA 
BRANCH  17  18
HETATM   18  C   UNL     1     -11.540  13.364  70.062  1.00  0.00    -0.148 C  
BRANCH  18  19
HETATM   19  C   UNL     1     -12.667  14.322  70.501  1.00  0.00    -0.328 C  
BRANCH  19  20
HETATM   20  N   UNL     1     -12.272  15.684  70.903  1.00  0.00    -0.391 NA 
BRANCH  20  21
HETATM   21  C   UNL     1     -12.266  15.885  72.360  1.00  0.00    -0.498 C  
HETATM   22  C   UNL     1     -12.925  14.792  73.194  1.00  0.00    -0.623 C  
ENDBRANCH  20  21
BRANCH  20  23
HETATM   23  C   UNL     1     -11.002  16.035  70.240  1.00  0.00    -0.354 C  
HETATM   24  C   UNL     1     -11.144  16.419  68.772  1.00  0.00    -0.337 C  
ENDBRANCH  20  23
ENDBRANCH  19  20
ENDBRANCH  18  19
ENDBRANCH  17  18
ENDBRANCH  15  17
ENDBRANCH  13  15
ENDBRANCH   5   6
ENDBRANCH   4   5
ENDBRANCH   3   4
ENDBRANCH   2   3
TORSDOF 11
ENDMDL
MODEL      104
REMARK 921   NORMALIZED FREE ENERGY PREDICTED BY IDOCK:   -4.29 KCAL/MOL
REMARK 922        TOTAL FREE ENERGY PREDICTED BY IDOCK:   -8.06 KCAL/MOL
REMARK 923 INTER-LIGAND FREE ENERGY PREDICTED BY IDOCK:   -6.88 KCAL/MOL
REMARK 924 INTRA-LIGAND FREE ENERGY PREDICTED BY IDOCK:   -1.18 KCAL/MOL
REMARK 927      BINDING AFFINITY PREDICTED BY RF-SCORE:    0.00 PKD
ROOT
HETATM    1  C   UNL     1      -5.611  11.511  66.935  1.00  0.00    -0.129 C  
HETATM    2  C   UNL     1      -7.115  11.588  67.132  1.00  0.00    -0.140 C  
ENDROOT
BRANCH   2   3
HETATM    3  C   UNL     1      -7.660  10.293  67.730  1.00  0.00    -0.089 C  
BRANCH   3   4
HETATM    4  C   UNL     1      -9.161  10.381  67.978  1.00  0.00    -0.140 C  
BRANCH   4   5
HETATM    5  O   UNL     1      -9.833   9.680  66.924  1.00  0.00    -0.178 OA 
BRANCH   5   6
HETATM    6  C   UNL     1     -10.127  10.443  65.818  1.00  0.00    -0.262 A  
HETATM    7  C   UNL     1      -9.596  10.006  64.589  1.00  0.00    -0.297 A  
HETATM    8  C   UNL     1      -9.933  10.697  63.420  1.00  0.00    -0.329 A  
HETATM    9  N   UNL     1      -8.918   8.777  64.497  1.00  0.00    -0.424 NA 
HETATM   10  H1  UNL     1      -8.534   8.461  63.607  1.00  0.00     0.000 HD 
HETATM   11  C   UNL     1     -10.661  11.888  63.481  1.00  0.00    -0.504 A  
HETATM   12  H2  UNL     1      -9.532   8.046  64.856  1.00  0.00     0.000 HD 
HETATM   13  C   UNL     1     -11.092  12.377  64.716  1.00  0.00    -0.345 A  
HETATM   14  C   UNL     1     -10.841  11.639  65.880  1.00  0.00    -0.339 A  
BRANCH  13  15
HETATM   15  C   UNL     1     -11.680  13.742  64.775  1.00  0.00    -0.381 C  
HETATM   16  O   UNL     1     -12.876  13.974  64.751  1.00  0.00    -0.681 OA 
BRANCH  15  17
HETATM   17  O   UNL     1     -10.687  14.658  64.677  1.00  0.00    -0.393 OA 
BRANCH  17  18
HETATM   18  C   UNL     1     -10.881  15.838  65.475  1.00  0.00    -0.332 C  
BRANCH  18  19
HETATM   19  C   UNL     1     -10.204  15.577  66.837  1.00  0.00    -0.279 C  
BRANCH  19  20
HETATM   20  N   UNL     1     -11.071  15.143  67.947  1.00  0.00    -0.309 NA 
BRANCH  20  21
HETATM   21  C   UNL     1     -10.642  13.880  68.565  1.00  0.00    -0.252 C  
HETATM   22  C   UNL     1     -11.727  13.065  69.259  1.00  0.00    -0.375 C  
ENDBRANCH  20  21
BRANCH  20  23
HETATM   23  C   UNL     1     -11.231  16.258  68.899  1.00  0.00    -0.337 C  
HETATM   24  C   UNL     1     -10.279  17.425  68.668  1.00  0.00    -0.361 C  
ENDBRANCH  20  23
ENDBRANCH  19  20
ENDBRANCH  18  19
ENDBRANCH  17  18
ENDBRANCH  15  17
ENDBRANCH  13  15
ENDBRANCH   5   6
ENDBRANCH   4   5
ENDBRANCH   3   4
ENDBRANCH   2   3
TORSDOF 11
ENDMDL
MODEL      105
REMARK 921   NORMALIZED FREE ENERGY PREDICTED BY IDOCK:   -4.28 KCAL/MOL
REMARK 922        TOTAL FREE ENERGY PREDICTED BY IDOCK:   -8.05 KCAL/MOL
REMARK 923 INTER-LIGAND FREE ENERGY PREDICTED BY IDOCK:   -7.19 KCAL/MOL
REMARK 924 INTRA-LIGAND FREE ENERGY PREDICTED BY IDOCK:   -0.86 KCAL/MOL
REMARK 927      BINDING AFFINITY PREDICTED BY RF-SCORE:    0.00 PKD
ROOT
HETATM    1  C   UNL     1     -13.118  11.361  71.712  1.00  0.00    -0.523 C  
HETATM    2  C   UNL     1     -12.315  10.781  70.559  1.00  0.00    -0.458 C  
ENDROOT
BRANCH   2   3
HETATM    3  C   UNL     1     -11.164  11.705  70.167  1.00  0.00     0.056 C  
BRANCH   3   4
HETATM    4  C   UNL     1     -11.636  12.828  69.253  1.00  0.00    -0.314 C  
BRANCH   4   5
HETATM    5  O   UNL     1     -12.245  12.242  68.097  1.00  0.00    -0.349 OA 
BRANCH   5   6
HETATM    6  C   UNL     1     -11.709  12.641  66.895  1.00  0.00    -0.383 A  
HETATM    7  C   UNL     1     -10.880  11.715  66.233  1.00  0.00    -0.286 A  
HETATM    8  C   UNL     1     -10.377  12.038  64.968  1.00  0.00    -0.318 A  
HETATM    9  N   UNL     1     -10.732  10.406  66.725  1.00  0.00    -0.206 NA 
HETATM   10  H1  UNL     1     -10.131   9.735  66.245  1.00  0.00     0.000 HD 
HETATM   11  C   UNL     1     -10.566  13.313  64.430  1.00  0.00    -0.438 A  
HETATM   12  H2  UNL     1     -11.660   9.993  66.818  1.00  0.00     0.000 HD 
HETATM   13  C   UNL     1     -11.297  14.267  65.142  1.00  0.00    -0.345 A  
HETATM   14  C   UNL     1     -11.885  13.919  66.364  1.00  0.00    -0.436 A  
BRANCH  13  15
HETATM   15  C   UNL     1     -11.307  15.670  64.648  1.00  0.00    -0.349 C  
HETATM   16  O   UNL     1     -12.251  16.187  64.076  1.00  0.00    -0.855 OA 
BRANCH  15  17
HETATM   17  O   UNL     1     -10.065  16.194  64.774  1.00  0.00    -0.313 OA 
BRANCH  17  18
HETATM   18  C   UNL     1      -9.829  16.882  66.014  1.00  0.00    -0.258 C  
BRANCH  18  19
HETATM   19  C   UNL     1      -8.351  16.643  66.388  1.00  0.00    -0.318 C  
BRANCH  19  20
HETATM   20  N   UNL     1      -7.652  17.731  67.094  1.00  0.00    -0.198 NA 
BRANCH  20  21
HETATM   21  C   UNL     1      -6.301  17.363  67.542  1.00  0.00    -0.147 C  
HETATM   22  C   UNL     1      -6.022  15.872  67.692  1.00  0.00    -0.177 C  
ENDBRANCH  20  21
BRANCH  20  23
HETATM   23  C   UNL     1      -7.703  18.953  66.270  1.00  0.00    -0.276 C  
HETATM   24  C   UNL     1      -6.437  19.225  65.466  1.00  0.00    -0.297 C  
ENDBRANCH  20  23
ENDBRANCH  19  20
ENDBRANCH  18  19
ENDBRANCH  17  18
ENDBRANCH  15  17
ENDBRANCH  13  15
ENDBRANCH   5   6
ENDBRANCH   4   5
ENDBRANCH   3   4
ENDBRANCH   2   3
TORSDOF 11
ENDMDL
MODEL      106
REMARK 921   NORMALIZED FREE ENERGY PREDICTED BY IDOCK:   -4.28 KCAL/MOL
REMARK 922        TOTAL FREE ENERGY PREDICTED BY IDOCK:   -8.03 KCAL/MOL
REMARK 923 INTER-LIGAND FREE ENERGY PREDICTED BY IDOCK:   -7.38 KCAL/MOL
REMARK 924 INTRA-LIGAND FREE ENERGY PREDICTED BY IDOCK:   -0.65 KCAL/MOL
REMARK 927      BINDING AFFINITY PREDICTED BY RF-SCORE:    0.00 PKD
ROOT
HETATM    1  C   UNL     1      -9.578   9.896  65.129  1.00  0.00    -0.367 C  
HETATM    2  C   UNL     1      -9.987   9.029  66.308  1.00  0.00    -0.352 C  
ENDROOT
BRANCH   2   3
HETATM    3  C   UNL     1     -10.718   9.849  67.369  1.00  0.00    -0.323 C  
BRANCH   3   4
HETATM    4  C   UNL     1     -10.733  11.331  67.017  1.00  0.00    -0.260 C  
BRANCH   4   5
HETATM    5  O   UNL     1     -10.450  12.079  68.205  1.00  0.00    -0.192 OA 
BRANCH   5   6
HETATM    6  C   UNL     1     -10.662  13.434  68.100  1.00  0.00    -0.253 A  
HETATM    7  C   UNL     1     -11.340  14.053  69.168  1.00  0.00    -0.281 A  
HETATM    8  C   UNL     1     -11.507  15.442  69.151  1.00  0.00    -0.344 A  
HETATM    9  N   UNL     1     -11.654  13.331  70.334  1.00  0.00    -0.527 NA 
HETATM   10  H1  UNL     1     -12.145  13.780  71.107  1.00  0.00     0.000 HD 
HETATM   11  C   UNL     1     -11.144  16.190  68.029  1.00  0.00    -0.317 A  
HETATM   12  H2  UNL     1     -10.793  12.922  70.697  1.00  0.00     0.000 HD 
HETATM   13  C   UNL     1     -10.572  15.554  66.925  1.00  0.00    -0.307 A  
HETATM   14  C   UNL     1     -10.313  14.179  66.974  1.00  0.00    -0.267 A  
BRANCH  13  15
HETATM   15  C   UNL     1     -10.388  16.334  65.672  1.00  0.00    -0.363 C  
HETATM   16  O   UNL     1     -10.894  16.043  64.603  1.00  0.00    -0.608 OA 
BRANCH  15  17
HETATM   17  O   UNL     1      -9.445  17.285  65.875  1.00  0.00    -0.503 OA 
BRANCH  17  18
HETATM   18  C   UNL     1      -8.160  16.777  66.274  1.00  0.00    -0.330 C  
BRANCH  18  19
HETATM   19  C   UNL     1      -7.245  17.999  66.503  1.00  0.00    -0.235 C  
BRANCH  19  20
HETATM   20  N   UNL     1      -7.830  19.330  66.265  1.00  0.00    -0.290 NA 
BRANCH  20  21
HETATM   21  C   UNL     1      -8.091  20.082  67.501  1.00  0.00    -0.316 C  
HETATM   22  C   UNL     1      -7.675  19.407  68.804  1.00  0.00    -0.397 C  
ENDBRANCH  20  21
BRANCH  20  23
HETATM   23  C   UNL     1      -7.003  20.053  65.282  1.00  0.00    -0.267 C  
HETATM   24  C   UNL     1      -5.922  20.936  65.894  1.00  0.00    -0.285 C  
ENDBRANCH  20  23
ENDBRANCH  19  20
ENDBRANCH  18  19
ENDBRANCH  17  18
ENDBRANCH  15  17
ENDBRANCH  13  15
ENDBRANCH   5   6
ENDBRANCH   4   5
ENDBRANCH   3   4
ENDBRANCH   2   3
TORSDOF 11
ENDMDL
MODEL      107
REMARK 921   NORMALIZED FREE ENERGY PREDICTED BY IDOCK:   -4.25 KCAL/MOL
REMARK 922        TOTAL FREE ENERGY PREDICTED BY IDOCK:   -7.99 KCAL/MOL
REMARK 923 INTER-LIGAND FREE ENERGY PREDICTED BY IDOCK:   -6.87 KCAL/MOL
REMARK 924 INTRA-LIGAND FREE ENERGY PREDICTED BY IDOCK:   -1.11 KCAL/MOL
REMARK 927      BINDING AFFINITY PREDICTED BY RF-SCORE:    0.00 PKD
ROOT
HETATM    1  C   UNL     1     -12.972  10.614  71.362  1.00  0.00    -0.545 C  
HETATM    2  C   UNL     1     -13.359   9.490  72.309  1.00  0.00    -0.526 C  
ENDROOT
BRANCH   2   3
HETATM    3  C   UNL     1     -12.372   8.329  72.221  1.00  0.00    -0.410 C  
BRANCH   3   4
HETATM    4  C   UNL     1     -10.960   8.818  71.926  1.00  0.00    -0.365 C  
BRANCH   4   5
HETATM    5  O   UNL     1     -10.323   7.865  71.067  1.00  0.00    -0.201 OA 
BRANCH   5   6
HETATM    6  C   UNL     1     -10.417   8.144  69.723  1.00  0.00    -0.227 A  
HETATM    7  C   UNL     1     -10.495   7.041  68.852  1.00  0.00    -0.203 A  
HETATM    8  C   UNL     1     -10.677   7.269  67.483  1.00  0.00    -0.326 A  
HETATM    9  N   UNL     1     -10.607   5.733  69.358  1.00  0.00    -0.287 NA 
HETATM   10  H1  UNL     1     -10.663   4.934  68.727  1.00  0.00     0.000 HD 
HETATM   11  C   UNL     1     -10.634   8.564  66.964  1.00  0.00    -0.305 A  
HETATM   12  H2  UNL     1     -11.411   5.702  69.985  1.00  0.00     0.000 HD 
HETATM   13  C   UNL     1     -10.445   9.651  67.822  1.00  0.00    -0.309 A  
HETATM   14  C   UNL     1     -10.359   9.437  69.204  1.00  0.00    -0.221 A  
BRANCH  13  15
HETATM   15  C   UNL     1     -10.195  10.991  67.227  1.00  0.00    -0.199 C  
HETATM   16  O   UNL     1      -9.180  11.641  67.404  1.00  0.00    -0.164 OA 
BRANCH  15  17
HETATM   17  O   UNL     1     -11.328  11.428  66.627  1.00  0.00    -0.355 OA 
BRANCH  17  18
HETATM   18  C   UNL     1     -11.987  12.510  67.308  1.00  0.00    -0.216 C  
BRANCH  18  19
HETATM   19  C   UNL     1     -11.853  13.756  66.408  1.00  0.00    -0.404 C  
BRANCH  19  20
HETATM   20  N   UNL     1     -11.403  15.004  67.051  1.00  0.00    -0.341 NA 
BRANCH  20  21
HETATM   21  C   UNL     1     -10.844  14.801  68.395  1.00  0.00    -0.245 C  
HETATM   22  C   UNL     1     -11.455  15.637  69.514  1.00  0.00    -0.349 C  
ENDBRANCH  20  21
BRANCH  20  23
HETATM   23  C   UNL     1     -10.510  15.729  66.128  1.00  0.00    -0.317 C  
HETATM   24  C   UNL     1      -9.026  15.473  66.357  1.00  0.00    -0.359 C  
ENDBRANCH  20  23
ENDBRANCH  19  20
ENDBRANCH  18  19
ENDBRANCH  17  18
ENDBRANCH  15  17
ENDBRANCH  13  15
ENDBRANCH   5   6
ENDBRANCH   4   5
ENDBRANCH   3   4
ENDBRANCH   2   3
TORSDOF 11
ENDMDL
MODEL      108
REMARK 921   NORMALIZED FREE ENERGY PREDICTED BY IDOCK:   -4.24 KCAL/MOL
REMARK 922        TOTAL FREE ENERGY PREDICTED BY IDOCK:   -7.98 KCAL/MOL
REMARK 923 INTER-LIGAND FREE ENERGY PREDICTED BY IDOCK:   -6.24 KCAL/MOL
REMARK 924 INTRA-LIGAND FREE ENERGY PREDICTED BY IDOCK:   -1.75 KCAL/MOL
REMARK 927      BINDING AFFINITY PREDICTED BY RF-SCORE:    0.00 PKD
ROOT
HETATM    1  C   UNL     1     -10.865  19.715  67.471  1.00  0.00    -0.463 C  
HETATM    2  C   UNL     1     -10.134  19.543  66.149  1.00  0.00    -0.557 C  
ENDROOT
BRANCH   2   3
HETATM    3  C   UNL     1      -8.649  19.868  66.293  1.00  0.00    -0.377 C  
BRANCH   3   4
HETATM    4  C   UNL     1      -7.786  18.627  66.101  1.00  0.00    -0.233 C  
BRANCH   4   5
HETATM    5  O   UNL     1      -7.111  18.354  67.334  1.00  0.00    -0.201 OA 
BRANCH   5   6
HETATM    6  C   UNL     1      -7.431  17.148  67.913  1.00  0.00    -0.177 A  
HETATM    7  C   UNL     1      -6.534  16.084  67.699  1.00  0.00    -0.164 A  
HETATM    8  C   UNL     1      -6.769  14.860  68.334  1.00  0.00    -0.101 A  
HETATM    9  N   UNL     1      -5.311  16.299  67.037  1.00  0.00    -0.347 NA 
HETATM   10  H1  UNL     1      -4.662  15.529  66.882  1.00  0.00     0.000 HD 
HETATM   11  C   UNL     1      -7.948  14.643  69.051  1.00  0.00    -0.122 A  
HETATM   12  H2  UNL     1      -4.812  17.043  67.524  1.00  0.00     0.000 HD 
HETATM   13  C   UNL     1      -8.888  15.669  69.169  1.00  0.00    -0.251 A  
HETATM   14  C   UNL     1      -8.615  16.927  68.617  1.00  0.00    -0.267 A  
BRANCH  13  15
HETATM   15  C   UNL     1     -10.218  15.351  69.754  1.00  0.00    -0.268 C  
HETATM   16  O   UNL     1     -10.800  16.059  70.557  1.00  0.00    -0.302 OA 
BRANCH  15  17
HETATM   17  O   UNL     1     -10.573  14.095  69.394  1.00  0.00    -0.165 OA 
BRANCH  17  18
HETATM   18  C   UNL     1     -11.818  14.007  68.679  1.00  0.00    -0.361 C  
BRANCH  18  19
HETATM   19  C   UNL     1     -11.634  12.933  67.586  1.00  0.00    -0.355 C  
BRANCH  19  20
HETATM   20  N   UNL     1     -11.436  13.407  66.205  1.00  0.00    -0.318 NA 
BRANCH  20  21
HETATM   21  C   UNL     1     -11.367  14.871  66.094  1.00  0.00    -0.307 C  
HETATM   22  C   UNL     1     -10.100  15.441  65.463  1.00  0.00    -0.405 C  
ENDBRANCH  20  21
BRANCH  20  23
HETATM   23  C   UNL     1     -10.285  12.701  65.612  1.00  0.00    -0.273 C  
HETATM   24  C   UNL     1      -9.366  12.031  66.626  1.00  0.00    -0.221 C  
ENDBRANCH  20  23
ENDBRANCH  19  20
ENDBRANCH  18  19
ENDBRANCH  17  18
ENDBRANCH  15  17
ENDBRANCH  13  15
ENDBRANCH   5   6
ENDBRANCH   4   5
ENDBRANCH   3   4
ENDBRANCH   2   3
TORSDOF 11
ENDMDL
MODEL      109
REMARK 921   NORMALIZED FREE ENERGY PREDICTED BY IDOCK:   -4.22 KCAL/MOL
REMARK 922        TOTAL FREE ENERGY PREDICTED BY IDOCK:   -7.95 KCAL/MOL
REMARK 923 INTER-LIGAND FREE ENERGY PREDICTED BY IDOCK:   -7.14 KCAL/MOL
REMARK 924 INTRA-LIGAND FREE ENERGY PREDICTED BY IDOCK:   -0.81 KCAL/MOL
REMARK 927      BINDING AFFINITY PREDICTED BY RF-SCORE:    0.00 PKD
ROOT
HETATM    1  C   UNL     1      -9.469  17.830  67.172  1.00  0.00    -0.265 C  
HETATM    2  C   UNL     1     -10.763  17.463  67.879  1.00  0.00    -0.351 C  
ENDROOT
BRANCH   2   3
HETATM    3  C   UNL     1     -10.701  16.045  68.444  1.00  0.00    -0.289 C  
BRANCH   3   4
HETATM    4  C   UNL     1     -11.010  16.024  69.935  1.00  0.00    -0.353 C  
BRANCH   4   5
HETATM    5  O   UNL     1     -12.393  15.690  70.104  1.00  0.00    -0.395 OA 
BRANCH   5   6
HETATM    6  C   UNL     1     -12.625  14.460  70.674  1.00  0.00    -0.357 A  
HETATM    7  C   UNL     1     -13.427  14.440  71.831  1.00  0.00    -0.393 A  
HETATM    8  C   UNL     1     -13.764  13.208  72.402  1.00  0.00    -0.640 A  
HETATM    9  N   UNL     1     -14.061  15.611  72.285  1.00  0.00    -0.519 NA 
HETATM   10  H1  UNL     1     -14.642  15.596  73.123  1.00  0.00     0.000 HD 
HETATM   11  C   UNL     1     -13.197  12.023  71.927  1.00  0.00    -0.469 A  
HETATM   12  H2  UNL     1     -14.616  15.991  71.519  1.00  0.00     0.000 HD 
HETATM   13  C   UNL     1     -12.313  12.060  70.846  1.00  0.00    -0.384 A  
HETATM   14  C   UNL     1     -12.047  13.279  70.209  1.00  0.00    -0.405 A  
BRANCH  13  15
HETATM   15  C   UNL     1     -11.567  10.823  70.495  1.00  0.00    -0.330 C  
HETATM   16  O   UNL     1     -11.479   9.847  71.219  1.00  0.00    -0.365 OA 
BRANCH  15  17
HETATM   17  O   UNL     1     -10.873  11.032  69.350  1.00  0.00    -0.230 OA 
BRANCH  17  18
HETATM   18  C   UNL     1     -10.166   9.880  68.860  1.00  0.00    -0.196 C  
BRANCH  18  19
HETATM   19  C   UNL     1     -10.535   9.727  67.370  1.00  0.00    -0.259 C  
BRANCH  19  20
HETATM   20  N   UNL     1      -9.472   9.993  66.384  1.00  0.00    -0.177 NA 
BRANCH  20  21
HETATM   21  C   UNL     1      -9.609  11.293  65.713  1.00  0.00    -0.227 C  
HETATM   22  C   UNL     1     -10.967  11.977  65.836  1.00  0.00    -0.342 C  
ENDBRANCH  20  21
BRANCH  20  23
HETATM   23  C   UNL     1      -8.159   9.776  67.019  1.00  0.00    -0.113 C  
HETATM   24  C   UNL     1      -7.338   8.650  66.401  1.00  0.00    -0.080 C  
ENDBRANCH  20  23
ENDBRANCH  19  20
ENDBRANCH  18  19
ENDBRANCH  17  18
ENDBRANCH  15  17
ENDBRANCH  13  15
ENDBRANCH   5   6
ENDBRANCH   4   5
ENDBRANCH   3   4
ENDBRANCH   2   3
TORSDOF 11
ENDMDL
MODEL      110
REMARK 921   NORMALIZED FREE ENERGY PREDICTED BY IDOCK:   -4.22 KCAL/MOL
REMARK 922        TOTAL FREE ENERGY PREDICTED BY IDOCK:   -7.94 KCAL/MOL
REMARK 923 INTER-LIGAND FREE ENERGY PREDICTED BY IDOCK:   -7.30 KCAL/MOL
REMARK 924 INTRA-LIGAND FREE ENERGY PREDICTED BY IDOCK:   -0.65 KCAL/MOL
REMARK 927      BINDING AFFINITY PREDICTED BY RF-SCORE:    0.00 PKD
ROOT
HETATM    1  C   UNL     1      -6.242   8.781  68.332  1.00  0.00    -0.054 C  
HETATM    2  C   UNL     1      -7.488   9.244  67.596  1.00  0.00    -0.088 C  
ENDROOT
BRANCH   2   3
HETATM    3  C   UNL     1      -7.334   9.070  66.086  1.00  0.00    -0.091 C  
BRANCH   3   4
HETATM    4  C   UNL     1      -8.669   9.223  65.368  1.00  0.00    -0.178 C  
BRANCH   4   5
HETATM    5  O   UNL     1      -8.735  10.544  64.818  1.00  0.00    -0.182 OA 
BRANCH   5   6
HETATM    6  C   UNL     1      -9.871  11.249  65.140  1.00  0.00    -0.252 A  
HETATM    7  C   UNL     1     -10.584  11.823  64.070  1.00  0.00    -0.375 A  
HETATM    8  C   UNL     1     -11.792  12.478  64.335  1.00  0.00    -0.455 A  
HETATM    9  N   UNL     1     -10.214  11.563  62.739  1.00  0.00    -0.621 NA 
HETATM   10  H1  UNL     1     -10.730  11.979  61.965  1.00  0.00     0.000 HD 
HETATM   11  C   UNL     1     -12.214  12.693  65.648  1.00  0.00    -0.474 A  
HETATM   12  H2  UNL     1     -10.197  10.552  62.604  1.00  0.00     0.000 HD 
HETATM   13  C   UNL     1     -11.444  12.217  66.713  1.00  0.00    -0.421 A  
HETATM   14  C   UNL     1     -10.285  11.476  66.452  1.00  0.00    -0.261 A  
BRANCH  13  15
HETATM   15  C   UNL     1     -11.804  12.636  68.094  1.00  0.00    -0.315 C  
HETATM   16  O   UNL     1     -12.072  11.863  68.996  1.00  0.00    -0.284 OA 
BRANCH  15  17
HETATM   17  O   UNL     1     -11.955  13.982  68.124  1.00  0.00    -0.357 OA 
BRANCH  17  18
HETATM   18  C   UNL     1     -11.284  14.634  69.216  1.00  0.00    -0.282 C  
BRANCH  18  19
HETATM   19  C   UNL     1     -12.378  15.260  70.106  1.00  0.00    -0.353 C  
BRANCH  19  20
HETATM   20  N   UNL     1     -12.373  14.895  71.534  1.00  0.00    -0.319 NA 
BRANCH  20  21
HETATM   21  C   UNL     1     -13.219  15.766  72.363  1.00  0.00    -0.462 C  
HETATM   22  C   UNL     1     -12.699  16.079  73.762  1.00  0.00    -0.719 C  
ENDBRANCH  20  21
BRANCH  20  23
HETATM   23  C   UNL     1     -12.675  13.458  71.666  1.00  0.00    -0.265 C  
HETATM   24  C   UNL     1     -14.023  13.153  72.308  1.00  0.00    -0.490 C  
ENDBRANCH  20  23
ENDBRANCH  19  20
ENDBRANCH  18  19
ENDBRANCH  17  18
ENDBRANCH  15  17
ENDBRANCH  13  15
ENDBRANCH   5   6
ENDBRANCH   4   5
ENDBRANCH   3   4
ENDBRANCH   2   3
TORSDOF 11
ENDMDL
MODEL      111
REMARK 921   NORMALIZED FREE ENERGY PREDICTED BY IDOCK:   -4.21 KCAL/MOL
REMARK 922        TOTAL FREE ENERGY PREDICTED BY IDOCK:   -7.93 KCAL/MOL
REMARK 923 INTER-LIGAND FREE ENERGY PREDICTED BY IDOCK:   -7.36 KCAL/MOL
REMARK 924 INTRA-LIGAND FREE ENERGY PREDICTED BY IDOCK:   -0.57 KCAL/MOL
REMARK 927      BINDING AFFINITY PREDICTED BY RF-SCORE:    0.00 PKD
ROOT
HETATM    1  C   UNL     1      -6.679  18.116  67.240  1.00  0.00    -0.205 C  
HETATM    2  C   UNL     1      -7.871  17.213  67.512  1.00  0.00    -0.190 C  
ENDROOT
BRANCH   2   3
HETATM    3  C   UNL     1      -9.160  18.022  67.637  1.00  0.00    -0.255 C  
BRANCH   3   4
HETATM    4  C   UNL     1     -10.015  17.906  66.381  1.00  0.00    -0.358 C  
BRANCH   4   5
HETATM    5  O   UNL     1      -9.652  16.700  65.699  1.00  0.00    -0.519 OA 
BRANCH   5   6
HETATM    6  C   UNL     1     -10.521  15.650  65.879  1.00  0.00    -0.344 A  
HETATM    7  C   UNL     1     -11.534  15.494  64.913  1.00  0.00    -0.279 A  
HETATM    8  C   UNL     1     -12.393  14.393  65.002  1.00  0.00    -0.401 A  
HETATM    9  N   UNL     1     -11.555  16.298  63.759  1.00  0.00    -1.482 NA 
HETATM   10  H1  UNL     1     -12.289  16.185  63.060  1.00  0.00     0.000 HD 
HETATM   11  C   UNL     1     -12.348  13.541  66.109  1.00  0.00    -0.463 A  
HETATM   12  H2  UNL     1     -10.653  16.209  63.292  1.00  0.00     0.000 HD 
HETATM   13  C   UNL     1     -11.413  13.766  67.121  1.00  0.00    -0.365 A  
HETATM   14  C   UNL     1     -10.486  14.808  66.991  1.00  0.00    -0.270 A  
BRANCH  13  15
HETATM   15  C   UNL     1     -11.521  12.978  68.378  1.00  0.00    -0.310 C  
HETATM   16  O   UNL     1     -10.997  13.292  69.431  1.00  0.00    -0.149 OA 
BRANCH  15  17
HETATM   17  O   UNL     1     -12.130  11.797  68.110  1.00  0.00    -0.556 OA 
BRANCH  17  18
HETATM   18  C   UNL     1     -11.286  10.819  67.478  1.00  0.00    -0.205 C  
BRANCH  18  19
HETATM   19  C   UNL     1     -10.412  10.197  68.587  1.00  0.00    -0.202 C  
BRANCH  19  20
HETATM   20  N   UNL     1      -9.073   9.718  68.197  1.00  0.00    -0.125 NA 
BRANCH  20  21
HETATM   21  C   UNL     1      -8.303  10.702  67.424  1.00  0.00    -0.119 C  
HETATM   22  C   UNL     1      -7.938  11.994  68.147  1.00  0.00    -0.152 C  
ENDBRANCH  20  21
BRANCH  20  23
HETATM   23  C   UNL     1      -8.375   9.209  69.393  1.00  0.00    -0.124 C  
HETATM   24  C   UNL     1      -9.110   9.456  70.704  1.00  0.00    -0.292 C  
ENDBRANCH  20  23
ENDBRANCH  19  20
ENDBRANCH  18  19
ENDBRANCH  17  18
ENDBRANCH  15  17
ENDBRANCH  13  15
ENDBRANCH   5   6
ENDBRANCH   4   5
ENDBRANCH   3   4
ENDBRANCH   2   3
TORSDOF 11
ENDMDL
MODEL      112
REMARK 921   NORMALIZED FREE ENERGY PREDICTED BY IDOCK:   -4.21 KCAL/MOL
REMARK 922        TOTAL FREE ENERGY PREDICTED BY IDOCK:   -7.93 KCAL/MOL
REMARK 923 INTER-LIGAND FREE ENERGY PREDICTED BY IDOCK:   -6.75 KCAL/MOL
REMARK 924 INTRA-LIGAND FREE ENERGY PREDICTED BY IDOCK:   -1.18 KCAL/MOL
REMARK 927      BINDING AFFINITY PREDICTED BY RF-SCORE:    0.00 PKD
ROOT
HETATM    1  C   UNL     1      -9.209  17.646  68.530  1.00  0.00    -0.281 C  
HETATM    2  C   UNL     1      -8.726  16.360  69.180  1.00  0.00    -0.185 C  
ENDROOT
BRANCH   2   3
HETATM    3  C   UNL     1      -9.892  15.565  69.763  1.00  0.00    -0.268 C  
BRANCH   3   4
HETATM    4  C   UNL     1     -10.594  14.737  68.693  1.00  0.00    -0.255 C  
BRANCH   4   5
HETATM    5  O   UNL     1     -11.989  14.677  69.013  1.00  0.00    -0.307 OA 
BRANCH   5   6
HETATM    6  C   UNL     1     -12.325  13.738  69.959  1.00  0.00    -0.300 A  
HETATM    7  C   UNL     1     -13.069  14.191  71.065  1.00  0.00    -0.302 A  
HETATM    8  C   UNL     1     -13.510  13.262  72.014  1.00  0.00    -0.596 A  
HETATM    9  N   UNL     1     -13.551  15.512  71.113  1.00  0.00    -0.680 NA 
HETATM   10  H1  UNL     1     -14.089  15.841  71.914  1.00  0.00     0.000 HD 
HETATM   11  C   UNL     1     -13.097  11.929  71.952  1.00  0.00    -0.474 A  
HETATM   12  H2  UNL     1     -14.097  15.683  70.269  1.00  0.00     0.000 HD 
HETATM   13  C   UNL     1     -12.266  11.507  70.912  1.00  0.00    -0.425 A  
HETATM   14  C   UNL     1     -11.901  12.410  69.905  1.00  0.00    -0.376 A  
BRANCH  13  15
HETATM   15  C   UNL     1     -11.675  10.144  70.982  1.00  0.00    -0.382 C  
HETATM   16  O   UNL     1     -11.446   9.549  72.020  1.00  0.00    -0.274 OA 
BRANCH  15  17
HETATM   17  O   UNL     1     -11.279   9.767  69.742  1.00  0.00    -0.238 OA 
BRANCH  17  18
HETATM   18  C   UNL     1     -10.519   8.547  69.702  1.00  0.00    -0.221 C  
BRANCH  18  19
HETATM   19  C   UNL     1      -9.350   8.778  68.721  1.00  0.00    -0.141 C  
BRANCH  19  20
HETATM   20  N   UNL     1      -9.532   9.817  67.692  1.00  0.00    -0.143 NA 
BRANCH  20  21
HETATM   21  C   UNL     1      -8.393  10.740  67.585  1.00  0.00    -0.119 C  
HETATM   22  C   UNL     1      -8.388  11.921  68.550  1.00  0.00    -0.118 C  
ENDBRANCH  20  21
BRANCH  20  23
HETATM   23  C   UNL     1      -9.911   9.175  66.419  1.00  0.00    -0.288 C  
HETATM   24  C   UNL     1     -10.002  10.130  65.235  1.00  0.00    -0.381 C  
ENDBRANCH  20  23
ENDBRANCH  19  20
ENDBRANCH  18  19
ENDBRANCH  17  18
ENDBRANCH  15  17
ENDBRANCH  13  15
ENDBRANCH   5   6
ENDBRANCH   4   5
ENDBRANCH   3   4
ENDBRANCH   2   3
TORSDOF 11
ENDMDL
MODEL      113
REMARK 921   NORMALIZED FREE ENERGY PREDICTED BY IDOCK:   -4.20 KCAL/MOL
REMARK 922        TOTAL FREE ENERGY PREDICTED BY IDOCK:   -7.92 KCAL/MOL
REMARK 923 INTER-LIGAND FREE ENERGY PREDICTED BY IDOCK:   -6.81 KCAL/MOL
REMARK 924 INTRA-LIGAND FREE ENERGY PREDICTED BY IDOCK:   -1.11 KCAL/MOL
REMARK 927      BINDING AFFINITY PREDICTED BY RF-SCORE:    0.00 PKD
ROOT
HETATM    1  C   UNL     1     -10.723  14.364  64.747  1.00  0.00    -0.423 C  
HETATM    2  C   UNL     1     -11.865  13.562  64.146  1.00  0.00    -0.483 C  
ENDROOT
BRANCH   2   3
HETATM    3  C   UNL     1     -12.221  12.364  65.024  1.00  0.00    -0.465 C  
BRANCH   3   4
HETATM    4  C   UNL     1     -10.989  11.795  65.717  1.00  0.00    -0.301 C  
BRANCH   4   5
HETATM    5  O   UNL     1     -11.265  11.702  67.120  1.00  0.00    -0.280 OA 
BRANCH   5   6
HETATM    6  C   UNL     1     -10.561  10.724  67.783  1.00  0.00    -0.228 A  
HETATM    7  C   UNL     1      -9.406  11.134  68.476  1.00  0.00    -0.190 A  
HETATM    8  C   UNL     1      -8.701  10.195  69.236  1.00  0.00    -0.186 A  
HETATM    9  N   UNL     1      -9.082  12.499  68.585  1.00  0.00    -0.390 NA 
HETATM   10  H1  UNL     1      -8.246  12.796  69.087  1.00  0.00     0.000 HD 
HETATM   11  C   UNL     1      -9.044   8.842  69.195  1.00  0.00    -0.141 A  
HETATM   12  H2  UNL     1      -9.884  12.986  68.985  1.00  0.00     0.000 HD 
HETATM   13  C   UNL     1     -10.126   8.423  68.416  1.00  0.00    -0.224 A  
HETATM   14  C   UNL     1     -10.895   9.371  67.730  1.00  0.00    -0.223 A  
BRANCH  13  15
HETATM   15  C   UNL     1     -10.341   6.963  68.225  1.00  0.00    -0.193 C  
HETATM   16  O   UNL     1      -9.709   6.275  67.443  1.00  0.00    -0.116 OA 
BRANCH  15  17
HETATM   17  O   UNL     1     -11.445   6.583  68.911  1.00  0.00    -0.266 OA 
BRANCH  17  18
HETATM   18  C   UNL     1     -11.221   6.324  70.308  1.00  0.00    -0.388 C  
BRANCH  18  19
HETATM   19  C   UNL     1     -12.323   7.072  71.087  1.00  0.00    -0.378 C  
BRANCH  19  20
HETATM   20  N   UNL     1     -11.888   7.960  72.180  1.00  0.00    -0.316 NA 
BRANCH  20  21
HETATM   21  C   UNL     1     -10.849   7.369  73.035  1.00  0.00    -0.375 C  
HETATM   22  C   UNL     1      -9.512   8.103  73.078  1.00  0.00    -0.333 C  
ENDBRANCH  20  21
BRANCH  20  23
HETATM   23  C   UNL     1     -11.534   9.278  71.620  1.00  0.00    -0.398 C  
HETATM   24  C   UNL     1     -12.728  10.136  71.223  1.00  0.00    -0.509 C  
ENDBRANCH  20  23
ENDBRANCH  19  20
ENDBRANCH  18  19
ENDBRANCH  17  18
ENDBRANCH  15  17
ENDBRANCH  13  15
ENDBRANCH   5   6
ENDBRANCH   4   5
ENDBRANCH   3   4
ENDBRANCH   2   3
TORSDOF 11
ENDMDL
MODEL      114
REMARK 921   NORMALIZED FREE ENERGY PREDICTED BY IDOCK:   -4.20 KCAL/MOL
REMARK 922        TOTAL FREE ENERGY PREDICTED BY IDOCK:   -7.91 KCAL/MOL
REMARK 923 INTER-LIGAND FREE ENERGY PREDICTED BY IDOCK:   -7.34 KCAL/MOL
REMARK 924 INTRA-LIGAND FREE ENERGY PREDICTED BY IDOCK:   -0.58 KCAL/MOL
REMARK 927      BINDING AFFINITY PREDICTED BY RF-SCORE:    0.00 PKD
ROOT
HETATM    1  C   UNL     1     -11.160   6.314  67.160  1.00  0.00    -0.389 C  
HETATM    2  C   UNL     1     -10.428   6.988  68.309  1.00  0.00    -0.237 C  
ENDROOT
BRANCH   2   3
HETATM    3  C   UNL     1      -9.756   8.281  67.853  1.00  0.00    -0.192 C  
BRANCH   3   4
HETATM    4  C   UNL     1     -10.532   8.944  66.721  1.00  0.00    -0.199 C  
BRANCH   4   5
HETATM    5  O   UNL     1      -9.629   9.776  65.983  1.00  0.00    -0.197 OA 
BRANCH   5   6
HETATM    6  C   UNL     1     -10.214  10.851  65.357  1.00  0.00    -0.277 A  
HETATM    7  C   UNL     1     -10.205  10.847  63.949  1.00  0.00    -0.354 A  
HETATM    8  C   UNL     1     -10.861  11.875  63.263  1.00  0.00    -0.408 A  
HETATM    9  N   UNL     1      -9.740   9.725  63.239  1.00  0.00    -0.471 NA 
HETATM   10  H1  UNL     1      -9.734   9.721  62.219  1.00  0.00     0.000 HD 
HETATM   11  C   UNL     1     -11.388  12.969  63.952  1.00  0.00    -0.460 A  
HETATM   12  H2  UNL     1     -10.261   8.908  63.557  1.00  0.00     0.000 HD 
HETATM   13  C   UNL     1     -11.295  13.023  65.345  1.00  0.00    -0.327 A  
HETATM   14  C   UNL     1     -10.727  11.951  66.045  1.00  0.00    -0.326 A  
BRANCH  13  15
HETATM   15  C   UNL     1     -11.674  14.286  66.034  1.00  0.00    -0.379 C  
HETATM   16  O   UNL     1     -12.418  14.344  66.998  1.00  0.00    -0.260 OA 
BRANCH  15  17
HETATM   17  O   UNL     1     -11.213  15.339  65.317  1.00  0.00    -0.352 OA 
BRANCH  17  18
HETATM   18  C   UNL     1      -9.816  15.622  65.502  1.00  0.00    -0.291 C  
BRANCH  18  19
HETATM   19  C   UNL     1      -9.719  16.735  66.566  1.00  0.00    -0.283 C  
BRANCH  19  20
HETATM   20  N   UNL     1      -9.127  18.018  66.145  1.00  0.00    -0.504 NA 
BRANCH  20  21
HETATM   21  C   UNL     1      -9.971  19.181  66.456  1.00  0.00    -0.383 C  
HETATM   22  C   UNL     1     -10.464  19.292  67.895  1.00  0.00    -0.514 C  
ENDBRANCH  20  21
BRANCH  20  23
HETATM   23  C   UNL     1      -7.752  18.111  66.670  1.00  0.00    -0.236 C  
HETATM   24  C   UNL     1      -6.712  18.531  65.639  1.00  0.00    -0.300 C  
ENDBRANCH  20  23
ENDBRANCH  19  20
ENDBRANCH  18  19
ENDBRANCH  17  18
ENDBRANCH  15  17
ENDBRANCH  13  15
ENDBRANCH   5   6
ENDBRANCH   4   5
ENDBRANCH   3   4
ENDBRANCH   2   3
TORSDOF 11
ENDMDL
MODEL      115
REMARK 921   NORMALIZED FREE ENERGY PREDICTED BY IDOCK:   -4.20 KCAL/MOL
REMARK 922        TOTAL FREE ENERGY PREDICTED BY IDOCK:   -7.90 KCAL/MOL
REMARK 923 INTER-LIGAND FREE ENERGY PREDICTED BY IDOCK:   -6.81 KCAL/MOL
REMARK 924 INTRA-LIGAND FREE ENERGY PREDICTED BY IDOCK:   -1.09 KCAL/MOL
REMARK 927      BINDING AFFINITY PREDICTED BY RF-SCORE:    0.00 PKD
ROOT
HETATM    1  C   UNL     1     -10.320   5.353  70.692  1.00  0.00    -0.333 C  
HETATM    2  C   UNL     1     -10.192   6.857  70.516  1.00  0.00    -0.209 C  
ENDROOT
BRANCH   2   3
HETATM    3  C   UNL     1     -10.279   7.579  71.859  1.00  0.00    -0.221 C  
BRANCH   3   4
HETATM    4  C   UNL     1     -10.794   9.004  71.693  1.00  0.00    -0.366 C  
BRANCH   4   5
HETATM    5  O   UNL     1     -11.627   9.049  70.529  1.00  0.00    -0.254 OA 
BRANCH   5   6
HETATM    6  C   UNL     1     -11.705  10.280  69.921  1.00  0.00    -0.225 A  
HETATM    7  C   UNL     1     -11.319  10.343  68.568  1.00  0.00    -0.220 A  
HETATM    8  C   UNL     1     -11.458  11.552  67.879  1.00  0.00    -0.372 A  
HETATM    9  N   UNL     1     -11.004   9.171  67.856  1.00  0.00    -0.498 NA 
HETATM   10  H1  UNL     1     -10.725   9.217  66.877  1.00  0.00     0.000 HD 
HETATM   11  C   UNL     1     -11.831  12.718  68.551  1.00  0.00    -0.345 A  
HETATM   12  H2  UNL     1     -11.794   8.530  67.933  1.00  0.00     0.000 HD 
HETATM   13  C   UNL     1     -12.106  12.673  69.920  1.00  0.00    -0.322 A  
HETATM   14  C   UNL     1     -12.064  11.446  70.596  1.00  0.00    -0.469 A  
BRANCH  13  15
HETATM   15  C   UNL     1     -12.297  13.954  70.650  1.00  0.00    -0.381 C  
HETATM   16  O   UNL     1     -12.640  14.034  71.816  1.00  0.00    -0.326 OA 
BRANCH  15  17
HETATM   17  O   UNL     1     -12.207  14.983  69.773  1.00  0.00    -0.310 OA 
BRANCH  17  18
HETATM   18  C   UNL     1     -11.393  16.081  70.220  1.00  0.00    -0.382 C  
BRANCH  18  19
HETATM   19  C   UNL     1      -9.929  15.716  69.899  1.00  0.00    -0.228 C  
BRANCH  19  20
HETATM   20  N   UNL     1      -9.302  16.399  68.754  1.00  0.00    -0.236 NA 
BRANCH  20  21
HETATM   21  C   UNL     1      -8.917  15.487  67.668  1.00  0.00    -0.184 C  
HETATM   22  C   UNL     1      -8.360  14.131  68.090  1.00  0.00    -0.161 C  
ENDBRANCH  20  21
BRANCH  20  23
HETATM   23  C   UNL     1     -10.164  17.517  68.327  1.00  0.00    -0.365 C  
HETATM   24  C   UNL     1      -9.509  18.890  68.420  1.00  0.00    -0.405 C  
ENDBRANCH  20  23
ENDBRANCH  19  20
ENDBRANCH  18  19
ENDBRANCH  17  18
ENDBRANCH  15  17
ENDBRANCH  13  15
ENDBRANCH   5   6
ENDBRANCH   4   5
ENDBRANCH   3   4
ENDBRANCH   2   3
TORSDOF 11
ENDMDL
MODEL      116
REMARK 921   NORMALIZED FREE ENERGY PREDICTED BY IDOCK:   -4.19 KCAL/MOL
REMARK 922        TOTAL FREE ENERGY PREDICTED BY IDOCK:   -7.90 KCAL/MOL
REMARK 923 INTER-LIGAND FREE ENERGY PREDICTED BY IDOCK:   -7.12 KCAL/MOL
REMARK 924 INTRA-LIGAND FREE ENERGY PREDICTED BY IDOCK:   -0.78 KCAL/MOL
REMARK 927      BINDING AFFINITY PREDICTED BY RF-SCORE:    0.00 PKD
ROOT
HETATM    1  C   UNL     1      -9.213   6.983  66.598  1.00  0.00    -0.189 C  
HETATM    2  C   UNL     1     -10.030   8.263  66.656  1.00  0.00    -0.348 C  
ENDROOT
BRANCH   2   3
HETATM    3  C   UNL     1      -9.142   9.472  66.947  1.00  0.00    -0.158 C  
BRANCH   3   4
HETATM    4  C   UNL     1      -9.282  10.538  65.868  1.00  0.00    -0.179 C  
BRANCH   4   5
HETATM    5  O   UNL     1     -10.662  10.914  65.782  1.00  0.00    -0.204 OA 
BRANCH   5   6
HETATM    6  C   UNL     1     -10.945  12.181  66.236  1.00  0.00    -0.295 A  
HETATM    7  C   UNL     1     -11.759  12.276  67.382  1.00  0.00    -0.335 A  
HETATM    8  C   UNL     1     -12.008  13.537  67.934  1.00  0.00    -0.372 A  
HETATM    9  N   UNL     1     -12.139  11.122  68.089  1.00  0.00    -0.737 NA 
HETATM   10  H1  UNL     1     -12.728  11.190  68.918  1.00  0.00     0.000 HD 
HETATM   11  C   UNL     1     -11.585  14.698  67.282  1.00  0.00    -0.404 A  
HETATM   12  H2  UNL     1     -11.294  10.609  68.340  1.00  0.00     0.000 HD 
HETATM   13  C   UNL     1     -10.872  14.602  66.085  1.00  0.00    -0.321 A  
HETATM   14  C   UNL     1     -10.535  13.340  65.578  1.00  0.00    -0.295 A  
BRANCH  13  15
HETATM   15  C   UNL     1     -10.616  15.844  65.308  1.00  0.00    -0.419 C  
HETATM   16  O   UNL     1     -11.352  16.271  64.436  1.00  0.00    -0.659 OA 
BRANCH  15  17
HETATM   17  O   UNL     1      -9.375  16.302  65.600  1.00  0.00    -0.457 OA 
BRANCH  17  18
HETATM   18  C   UNL     1      -9.352  17.497  66.400  1.00  0.00    -0.246 C  
BRANCH  18  19
HETATM   19  C   UNL     1      -8.483  17.192  67.639  1.00  0.00    -0.200 C  
BRANCH  19  20
HETATM   20  N   UNL     1      -7.666  18.295  68.175  1.00  0.00    -0.269 NA 
BRANCH  20  21
HETATM   21  C   UNL     1      -6.550  17.841  69.017  1.00  0.00    -0.244 C  
HETATM   22  C   UNL     1      -6.015  18.847  70.030  1.00  0.00    -0.238 C  
ENDBRANCH  20  21
BRANCH  20  23
HETATM   23  C   UNL     1      -7.265  19.183  67.067  1.00  0.00    -0.204 C  
HETATM   24  C   UNL     1      -7.761  20.618  67.199  1.00  0.00    -0.348 C  
ENDBRANCH  20  23
ENDBRANCH  19  20
ENDBRANCH  18  19
ENDBRANCH  17  18
ENDBRANCH  15  17
ENDBRANCH  13  15
ENDBRANCH   5   6
ENDBRANCH   4   5
ENDBRANCH   3   4
ENDBRANCH   2   3
TORSDOF 11
ENDMDL
MODEL      117
REMARK 921   NORMALIZED FREE ENERGY PREDICTED BY IDOCK:   -4.19 KCAL/MOL
REMARK 922        TOTAL FREE ENERGY PREDICTED BY IDOCK:   -7.89 KCAL/MOL
REMARK 923 INTER-LIGAND FREE ENERGY PREDICTED BY IDOCK:   -6.72 KCAL/MOL
REMARK 924 INTRA-LIGAND FREE ENERGY PREDICTED BY IDOCK:   -1.17 KCAL/MOL
REMARK 927      BINDING AFFINITY PREDICTED BY RF-SCORE:    0.00 PKD
ROOT
HETATM    1  C   UNL     1     -12.533  12.094  63.613  1.00  0.00    -0.658 C  
HETATM    2  C   UNL     1     -11.102  11.621  63.419  1.00  0.00    -0.422 C  
ENDROOT
BRANCH   2   3
HETATM    3  C   UNL     1     -10.161  12.279  64.426  1.00  0.00    -0.341 C  
BRANCH   3   4
HETATM    4  C   UNL     1      -9.304  11.246  65.146  1.00  0.00    -0.189 C  
BRANCH   4   5
HETATM    5  O   UNL     1     -10.106  10.084  65.387  1.00  0.00    -0.310 OA 
BRANCH   5   6
HETATM    6  C   UNL     1     -10.373   9.829  66.712  1.00  0.00    -0.218 A  
HETATM    7  C   UNL     1     -10.224   8.496  67.142  1.00  0.00    -0.284 A  
HETATM    8  C   UNL     1     -10.401   8.198  68.498  1.00  0.00    -0.230 A  
HETATM    9  N   UNL     1      -9.698   7.518  66.280  1.00  0.00    -0.423 NA 
HETATM   10  H1  UNL     1      -9.590   6.553  66.592  1.00  0.00     0.000 HD 
HETATM   11  C   UNL     1     -10.863   9.170  69.388  1.00  0.00    -0.165 A  
HETATM   12  H2  UNL     1      -8.794   7.846  65.940  1.00  0.00     0.000 HD 
HETATM   13  C   UNL     1     -11.116  10.466  68.932  1.00  0.00    -0.296 A  
HETATM   14  C   UNL     1     -10.847  10.796  67.597  1.00  0.00    -0.332 A  
BRANCH  13  15
HETATM   15  C   UNL     1     -11.799  11.421  69.845  1.00  0.00    -0.359 C  
HETATM   16  O   UNL     1     -12.793  11.154  70.496  1.00  0.00    -0.235 OA 
BRANCH  15  17
HETATM   17  O   UNL     1     -11.251  12.651  69.691  1.00  0.00    -0.145 OA 
BRANCH  17  18
HETATM   18  C   UNL     1     -12.206  13.719  69.564  1.00  0.00    -0.293 C  
BRANCH  18  19
HETATM   19  C   UNL     1     -12.138  14.212  68.104  1.00  0.00    -0.262 C  
BRANCH  19  20
HETATM   20  N   UNL     1     -11.349  15.429  67.841  1.00  0.00    -0.334 NA 
BRANCH  20  21
HETATM   21  C   UNL     1     -10.787  16.034  69.057  1.00  0.00    -0.283 C  
HETATM   22  C   UNL     1      -9.274  15.939  69.221  1.00  0.00    -0.254 C  
ENDBRANCH  20  21
BRANCH  20  23
HETATM   23  C   UNL     1     -10.353  15.143  66.792  1.00  0.00    -0.273 C  
HETATM   24  C   UNL     1     -10.536  15.951  65.513  1.00  0.00    -0.419 C  
ENDBRANCH  20  23
ENDBRANCH  19  20
ENDBRANCH  18  19
ENDBRANCH  17  18
ENDBRANCH  15  17
ENDBRANCH  13  15
ENDBRANCH   5   6
ENDBRANCH   4   5
ENDBRANCH   3   4
ENDBRANCH   2   3
TORSDOF 11
ENDMDL
MODEL      118
REMARK 921   NORMALIZED FREE ENERGY PREDICTED BY IDOCK:   -4.17 KCAL/MOL
REMARK 922        TOTAL FREE ENERGY PREDICTED BY IDOCK:   -7.87 KCAL/MOL
REMARK 923 INTER-LIGAND FREE ENERGY PREDICTED BY IDOCK:   -6.96 KCAL/MOL
REMARK 924 INTRA-LIGAND FREE ENERGY PREDICTED BY IDOCK:   -0.91 KCAL/MOL
REMARK 927      BINDING AFFINITY PREDICTED BY RF-SCORE:    0.00 PKD
ROOT
HETATM    1  C   UNL     1     -12.212  13.135  63.490  1.00  0.00    -0.552 C  
HETATM    2  C   UNL     1     -10.802  13.162  64.055  1.00  0.00    -0.348 C  
ENDROOT
BRANCH   2   3
HETATM    3  C   UNL     1     -10.771  13.824  65.431  1.00  0.00    -0.320 C  
BRANCH   3   4
HETATM    4  C   UNL     1     -10.224  12.878  66.493  1.00  0.00    -0.259 C  
BRANCH   4   5
HETATM    5  O   UNL     1     -10.229  11.549  65.958  1.00  0.00    -0.226 OA 
BRANCH   5   6
HETATM    6  C   UNL     1     -10.327  10.549  66.896  1.00  0.00    -0.239 A  
HETATM    7  C   UNL     1     -10.013   9.245  66.467  1.00  0.00    -0.274 A  
HETATM    8  C   UNL     1     -10.015   8.204  67.401  1.00  0.00    -0.271 A  
HETATM    9  N   UNL     1      -9.495   9.020  65.178  1.00  0.00    -0.449 NA 
HETATM   10  H1  UNL     1      -9.268   8.076  64.867  1.00  0.00     0.000 HD 
HETATM   11  C   UNL     1     -10.465   8.417  68.706  1.00  0.00    -0.202 A  
HETATM   12  H2  UNL     1      -8.667   9.602  65.061  1.00  0.00     0.000 HD 
HETATM   13  C   UNL     1     -10.882   9.692  69.097  1.00  0.00    -0.212 A  
HETATM   14  C   UNL     1     -10.790  10.759  68.195  1.00  0.00    -0.284 A  
BRANCH  13  15
HETATM   15  C   UNL     1     -11.547   9.848  70.418  1.00  0.00    -0.282 C  
HETATM   16  O   UNL     1     -12.169   8.965  70.981  1.00  0.00    -0.282 OA 
BRANCH  15  17
HETATM   17  O   UNL     1     -11.499  11.151  70.788  1.00  0.00    -0.143 OA 
BRANCH  17  18
HETATM   18  C   UNL     1     -12.775  11.728  71.111  1.00  0.00    -0.305 C  
BRANCH  18  19
HETATM   19  C   UNL     1     -12.764  13.173  70.571  1.00  0.00    -0.070 C  
BRANCH  19  20
HETATM   20  N   UNL     1     -12.330  14.234  71.497  1.00  0.00    -0.349 NA 
BRANCH  20  21
HETATM   21  C   UNL     1     -12.027  15.507  70.828  1.00  0.00    -0.378 C  
HETATM   22  C   UNL     1     -11.749  15.433  69.330  1.00  0.00    -0.367 C  
ENDBRANCH  20  21
BRANCH  20  23
HETATM   23  C   UNL     1     -13.308  14.347  72.595  1.00  0.00    -0.507 C  
HETATM   24  C   UNL     1     -13.641  15.779  72.998  1.00  0.00    -0.638 C  
ENDBRANCH  20  23
ENDBRANCH  19  20
ENDBRANCH  18  19
ENDBRANCH  17  18
ENDBRANCH  15  17
ENDBRANCH  13  15
ENDBRANCH   5   6
ENDBRANCH   4   5
ENDBRANCH   3   4
ENDBRANCH   2   3
TORSDOF 11
ENDMDL
MODEL      119
REMARK 921   NORMALIZED FREE ENERGY PREDICTED BY IDOCK:   -4.16 KCAL/MOL
REMARK 922        TOTAL FREE ENERGY PREDICTED BY IDOCK:   -7.85 KCAL/MOL
REMARK 923 INTER-LIGAND FREE ENERGY PREDICTED BY IDOCK:   -6.58 KCAL/MOL
REMARK 924 INTRA-LIGAND FREE ENERGY PREDICTED BY IDOCK:   -1.27 KCAL/MOL
REMARK 927      BINDING AFFINITY PREDICTED BY RF-SCORE:    0.00 PKD
ROOT
HETATM    1  C   UNL     1      -5.337  11.013  66.051  1.00  0.00    -0.142 C  
HETATM    2  C   UNL     1      -6.693  11.436  66.593  1.00  0.00    -0.112 C  
ENDROOT
BRANCH   2   3
HETATM    3  C   UNL     1      -7.363  10.295  67.356  1.00  0.00    -0.093 C  
BRANCH   3   4
HETATM    4  C   UNL     1      -8.778  10.664  67.781  1.00  0.00    -0.129 C  
BRANCH   4   5
HETATM    5  O   UNL     1      -9.699   9.977  66.926  1.00  0.00    -0.174 OA 
BRANCH   5   6
HETATM    6  C   UNL     1     -10.130  10.701  65.839  1.00  0.00    -0.261 A  
HETATM    7  C   UNL     1      -9.761  10.218  64.569  1.00  0.00    -0.329 A  
HETATM    8  C   UNL     1     -10.242  10.869  63.429  1.00  0.00    -0.356 A  
HETATM    9  N   UNL     1      -9.103   8.981  64.436  1.00  0.00    -0.420 NA 
HETATM   10  H1  UNL     1      -8.836   8.631  63.517  1.00  0.00     0.000 HD 
HETATM   11  C   UNL     1     -10.954  12.065  63.538  1.00  0.00    -0.514 A  
HETATM   12  H2  UNL     1      -9.668   8.268  64.897  1.00  0.00     0.000 HD 
HETATM   13  C   UNL     1     -11.223  12.602  64.799  1.00  0.00    -0.337 A  
HETATM   14  C   UNL     1     -10.828  11.904  65.948  1.00  0.00    -0.342 A  
BRANCH  13  15
HETATM   15  C   UNL     1     -11.796  13.972  64.882  1.00  0.00    -0.393 C  
HETATM   16  O   UNL     1     -12.973  14.211  65.083  1.00  0.00    -0.729 OA 
BRANCH  15  17
HETATM   17  O   UNL     1     -10.848  14.872  64.526  1.00  0.00    -0.316 OA 
BRANCH  17  18
HETATM   18  C   UNL     1     -11.013  16.176  65.108  1.00  0.00    -0.316 C  
BRANCH  18  19
HETATM   19  C   UNL     1     -10.504  16.088  66.562  1.00  0.00    -0.302 C  
BRANCH  19  20
HETATM   20  N   UNL     1      -9.272  16.828  66.889  1.00  0.00    -0.224 NA 
BRANCH  20  21
HETATM   21  C   UNL     1      -9.398  17.674  68.084  1.00  0.00    -0.279 C  
HETATM   22  C   UNL     1      -8.385  18.805  68.221  1.00  0.00    -0.360 C  
ENDBRANCH  20  21
BRANCH  20  23
HETATM   23  C   UNL     1      -8.139  15.885  66.933  1.00  0.00    -0.250 C  
HETATM   24  C   UNL     1      -8.468  14.534  67.559  1.00  0.00    -0.201 C  
ENDBRANCH  20  23
ENDBRANCH  19  20
ENDBRANCH  18  19
ENDBRANCH  17  18
ENDBRANCH  15  17
ENDBRANCH  13  15
ENDBRANCH   5   6
ENDBRANCH   4   5
ENDBRANCH   3   4
ENDBRANCH   2   3
TORSDOF 11
ENDMDL
MODEL      120
REMARK 921   NORMALIZED FREE ENERGY PREDICTED BY IDOCK:   -4.16 KCAL/MOL
REMARK 922        TOTAL FREE ENERGY PREDICTED BY IDOCK:   -7.85 KCAL/MOL
REMARK 923 INTER-LIGAND FREE ENERGY PREDICTED BY IDOCK:   -6.97 KCAL/MOL
REMARK 924 INTRA-LIGAND FREE ENERGY PREDICTED BY IDOCK:   -0.88 KCAL/MOL
REMARK 927      BINDING AFFINITY PREDICTED BY RF-SCORE:    0.00 PKD
ROOT
HETATM    1  C   UNL     1      -8.324  17.413  68.527  1.00  0.00    -0.271 C  
HETATM    2  C   UNL     1      -9.594  16.883  67.881  1.00  0.00    -0.244 C  
ENDROOT
BRANCH   2   3
HETATM    3  C   UNL     1     -10.759  16.887  68.869  1.00  0.00    -0.321 C  
BRANCH   3   4
HETATM    4  C   UNL     1     -11.632  15.650  68.707  1.00  0.00    -0.384 C  
BRANCH   4   5
HETATM    5  O   UNL     1     -12.204  15.333  69.981  1.00  0.00    -0.332 OA 
BRANCH   5   6
HETATM    6  C   UNL     1     -12.326  13.988  70.243  1.00  0.00    -0.358 A  
HETATM    7  C   UNL     1     -12.940  13.633  71.459  1.00  0.00    -0.360 A  
HETATM    8  C   UNL     1     -13.164  12.280  71.736  1.00  0.00    -0.428 A  
HETATM    9  N   UNL     1     -13.515  14.615  72.286  1.00  0.00    -0.371 NA 
HETATM   10  H1  UNL     1     -13.960  14.357  73.167  1.00  0.00     0.000 HD 
HETATM   11  C   UNL     1     -12.657  11.286  70.896  1.00  0.00    -0.467 A  
HETATM   12  H2  UNL     1     -14.188  15.144  71.732  1.00  0.00     0.000 HD 
HETATM   13  C   UNL     1     -11.950  11.644  69.745  1.00  0.00    -0.402 A  
HETATM   14  C   UNL     1     -11.807  12.996  69.411  1.00  0.00    -0.380 A  
BRANCH  13  15
HETATM   15  C   UNL     1     -11.247  10.578  68.983  1.00  0.00    -0.259 C  
HETATM   16  O   UNL     1     -10.902  10.682  67.819  1.00  0.00    -0.240 OA 
BRANCH  15  17
HETATM   17  O   UNL     1     -11.221   9.445  69.725  1.00  0.00    -0.211 OA 
BRANCH  17  18
HETATM   18  C   UNL     1     -10.178   8.520  69.369  1.00  0.00    -0.211 C  
BRANCH  18  19
HETATM   19  C   UNL     1     -10.282   7.329  70.344  1.00  0.00    -0.194 C  
BRANCH  19  20
HETATM   20  N   UNL     1     -10.882   7.591  71.665  1.00  0.00    -0.219 NA 
BRANCH  20  21
HETATM   21  C   UNL     1     -12.087   6.791  71.928  1.00  0.00    -0.334 C  
HETATM   22  C   UNL     1     -13.410   7.387  71.456  1.00  0.00    -0.435 C  
ENDBRANCH  20  21
BRANCH  20  23
HETATM   23  C   UNL     1      -9.840   7.473  72.701  1.00  0.00    -0.191 C  
HETATM   24  C   UNL     1     -10.323   6.865  74.013  1.00  0.00    -0.355 C  
ENDBRANCH  20  23
ENDBRANCH  19  20
ENDBRANCH  18  19
ENDBRANCH  17  18
ENDBRANCH  15  17
ENDBRANCH  13  15
ENDBRANCH   5   6
ENDBRANCH   4   5
ENDBRANCH   3   4
ENDBRANCH   2   3
TORSDOF 11
ENDMDL
MODEL      121
REMARK 921   NORMALIZED FREE ENERGY PREDICTED BY IDOCK:   -4.16 KCAL/MOL
REMARK 922        TOTAL FREE ENERGY PREDICTED BY IDOCK:   -7.85 KCAL/MOL
REMARK 923 INTER-LIGAND FREE ENERGY PREDICTED BY IDOCK:   -7.03 KCAL/MOL
REMARK 924 INTRA-LIGAND FREE ENERGY PREDICTED BY IDOCK:   -0.82 KCAL/MOL
REMARK 927      BINDING AFFINITY PREDICTED BY RF-SCORE:    0.00 PKD
ROOT
HETATM    1  C   UNL     1      -8.593  18.512  67.961  1.00  0.00    -0.310 C  
HETATM    2  C   UNL     1      -9.186  17.136  68.217  1.00  0.00    -0.262 C  
ENDROOT
BRANCH   2   3
HETATM    3  C   UNL     1     -10.639  17.237  68.675  1.00  0.00    -0.329 C  
BRANCH   3   4
HETATM    4  C   UNL     1     -11.199  15.873  69.059  1.00  0.00    -0.327 C  
BRANCH   4   5
HETATM    5  O   UNL     1     -11.486  15.883  70.462  1.00  0.00    -0.334 OA 
BRANCH   5   6
HETATM    6  C   UNL     1     -12.090  14.743  70.937  1.00  0.00    -0.324 A  
HETATM    7  C   UNL     1     -12.816  14.864  72.138  1.00  0.00    -0.325 A  
HETATM    8  C   UNL     1     -13.520  13.755  72.620  1.00  0.00    -0.638 A  
HETATM    9  N   UNL     1     -13.015  16.124  72.731  1.00  0.00    -0.406 NA 
HETATM   10  H1  UNL     1     -13.541  16.211  73.601  1.00  0.00     0.000 HD 
HETATM   11  C   UNL     1     -13.389  12.506  72.009  1.00  0.00    -0.528 A  
HETATM   12  H2  UNL     1     -13.440  16.739  72.038  1.00  0.00     0.000 HD 
HETATM   13  C   UNL     1     -12.577  12.367  70.880  1.00  0.00    -0.337 A  
HETATM   14  C   UNL     1     -11.948  13.493  70.335  1.00  0.00    -0.367 A  
BRANCH  13  15
HETATM   15  C   UNL     1     -12.291  10.997  70.375  1.00  0.00    -0.356 C  
HETATM   16  O   UNL     1     -12.524  10.623  69.239  1.00  0.00    -0.304 OA 
BRANCH  15  17
HETATM   17  O   UNL     1     -11.910  10.213  71.412  1.00  0.00    -0.368 OA 
BRANCH  17  18
HETATM   18  C   UNL     1     -11.962   8.801  71.144  1.00  0.00    -0.285 C  
BRANCH  18  19
HETATM   19  C   UNL     1     -10.525   8.260  71.299  1.00  0.00    -0.211 C  
BRANCH  19  20
HETATM   20  N   UNL     1      -9.664   8.286  70.103  1.00  0.00    -0.175 NA 
BRANCH  20  21
HETATM   21  C   UNL     1     -10.380   7.961  68.861  1.00  0.00    -0.213 C  
HETATM   22  C   UNL     1     -10.154   8.905  67.685  1.00  0.00    -0.274 C  
ENDBRANCH  20  21
BRANCH  20  23
HETATM   23  C   UNL     1      -8.933   9.565  70.062  1.00  0.00    -0.223 C  
HETATM   24  C   UNL     1      -7.427   9.437  70.263  1.00  0.00    -0.131 C  
ENDBRANCH  20  23
ENDBRANCH  19  20
ENDBRANCH  18  19
ENDBRANCH  17  18
ENDBRANCH  15  17
ENDBRANCH  13  15
ENDBRANCH   5   6
ENDBRANCH   4   5
ENDBRANCH   3   4
ENDBRANCH   2   3
TORSDOF 11
ENDMDL
MODEL      122
REMARK 921   NORMALIZED FREE ENERGY PREDICTED BY IDOCK:   -4.16 KCAL/MOL
REMARK 922        TOTAL FREE ENERGY PREDICTED BY IDOCK:   -7.85 KCAL/MOL
REMARK 923 INTER-LIGAND FREE ENERGY PREDICTED BY IDOCK:   -6.31 KCAL/MOL
REMARK 924 INTRA-LIGAND FREE ENERGY PREDICTED BY IDOCK:   -1.54 KCAL/MOL
REMARK 927      BINDING AFFINITY PREDICTED BY RF-SCORE:    0.00 PKD
ROOT
HETATM    1  C   UNL     1      -9.316   4.497  70.696  1.00  0.00    -0.223 C  
HETATM    2  C   UNL     1      -8.594   5.395  71.687  1.00  0.00    -0.131 C  
ENDROOT
BRANCH   2   3
HETATM    3  C   UNL     1      -9.585   6.165  72.558  1.00  0.00    -0.149 C  
BRANCH   3   4
HETATM    4  C   UNL     1     -10.849   6.519  71.785  1.00  0.00    -0.238 C  
BRANCH   4   5
HETATM    5  O   UNL     1     -11.575   7.500  72.535  1.00  0.00    -0.311 OA 
BRANCH   5   6
HETATM    6  C   UNL     1     -11.772   8.696  71.885  1.00  0.00    -0.352 A  
HETATM    7  C   UNL     1     -12.930   9.420  72.228  1.00  0.00    -0.400 A  
HETATM    8  C   UNL     1     -13.135  10.681  71.659  1.00  0.00    -0.555 A  
HETATM    9  N   UNL     1     -13.758   8.991  73.281  1.00  0.00    -1.077 NA 
HETATM   10  H1  UNL     1     -14.597   9.515  73.529  1.00  0.00     0.000 HD 
HETATM   11  C   UNL     1     -12.289  11.157  70.655  1.00  0.00    -0.482 A  
HETATM   12  H2  UNL     1     -13.184   8.893  74.118  1.00  0.00     0.000 HD 
HETATM   13  C   UNL     1     -11.202  10.384  70.239  1.00  0.00    -0.395 A  
HETATM   14  C   UNL     1     -10.935   9.164  70.873  1.00  0.00    -0.349 A  
BRANCH  13  15
HETATM   15  C   UNL     1     -10.443  10.815  69.034  1.00  0.00    -0.215 C  
HETATM   16  O   UNL     1      -9.764  11.825  68.977  1.00  0.00    -0.042 OA 
BRANCH  15  17
HETATM   17  O   UNL     1     -10.773  10.016  67.992  1.00  0.00    -0.223 OA 
BRANCH  17  18
HETATM   18  C   UNL     1      -9.882  10.101  66.866  1.00  0.00    -0.195 C  
BRANCH  18  19
HETATM   19  C   UNL     1      -8.743   9.091  67.117  1.00  0.00    -0.116 C  
BRANCH  19  20
HETATM   20  N   UNL     1      -9.035   7.958  68.015  1.00  0.00    -0.127 NA 
BRANCH  20  21
HETATM   21  C   UNL     1      -9.679   6.825  67.335  1.00  0.00    -0.133 C  
HETATM   22  C   UNL     1     -10.983   6.324  67.946  1.00  0.00    -0.421 C  
ENDBRANCH  20  21
BRANCH  20  23
HETATM   23  C   UNL     1      -7.811   7.602  68.756  1.00  0.00    -0.120 C  
HETATM   24  C   UNL     1      -7.339   8.664  69.741  1.00  0.00    -0.052 C  
ENDBRANCH  20  23
ENDBRANCH  19  20
ENDBRANCH  18  19
ENDBRANCH  17  18
ENDBRANCH  15  17
ENDBRANCH  13  15
ENDBRANCH   5   6
ENDBRANCH   4   5
ENDBRANCH   3   4
ENDBRANCH   2   3
TORSDOF 11
ENDMDL
MODEL      123
REMARK 921   NORMALIZED FREE ENERGY PREDICTED BY IDOCK:   -4.15 KCAL/MOL
REMARK 922        TOTAL FREE ENERGY PREDICTED BY IDOCK:   -7.84 KCAL/MOL
REMARK 923 INTER-LIGAND FREE ENERGY PREDICTED BY IDOCK:   -7.16 KCAL/MOL
REMARK 924 INTRA-LIGAND FREE ENERGY PREDICTED BY IDOCK:   -0.68 KCAL/MOL
REMARK 927      BINDING AFFINITY PREDICTED BY RF-SCORE:    0.00 PKD
ROOT
HETATM    1  C   UNL     1      -7.012   9.627  64.562  1.00  0.00    -0.117 C  
HETATM    2  C   UNL     1      -8.454   9.157  64.461  1.00  0.00    -0.195 C  
ENDROOT
BRANCH   2   3
HETATM    3  C   UNL     1      -9.428  10.314  64.671  1.00  0.00    -0.351 C  
BRANCH   3   4
HETATM    4  C   UNL     1     -10.152  10.674  63.379  1.00  0.00    -0.202 C  
BRANCH   4   5
HETATM    5  O   UNL     1     -10.074  12.093  63.200  1.00  0.00    -0.383 OA 
BRANCH   5   6
HETATM    6  C   UNL     1     -10.685  12.835  64.184  1.00  0.00    -0.412 A  
HETATM    7  C   UNL     1     -12.080  12.994  64.083  1.00  0.00    -0.427 A  
HETATM    8  C   UNL     1     -12.762  13.667  65.101  1.00  0.00    -0.443 A  
HETATM    9  N   UNL     1     -12.810  12.306  63.096  1.00  0.00    -0.763 NA 
HETATM   10  H1  UNL     1     -13.821  12.421  63.023  1.00  0.00     0.000 HD 
HETATM   11  C   UNL     1     -12.062  14.304  66.128  1.00  0.00    -0.424 A  
HETATM   12  H2  UNL     1     -12.608  11.311  63.185  1.00  0.00     0.000 HD 
HETATM   13  C   UNL     1     -10.667  14.238  66.163  1.00  0.00    -0.295 A  
HETATM   14  C   UNL     1      -9.984  13.483  65.201  1.00  0.00    -0.201 A  
BRANCH  13  15
HETATM   15  C   UNL     1      -9.939  15.091  67.140  1.00  0.00    -0.237 C  
HETATM   16  O   UNL     1      -8.958  14.731  67.766  1.00  0.00    -0.174 OA 
BRANCH  15  17
HETATM   17  O   UNL     1     -10.640  16.232  67.342  1.00  0.00    -0.308 OA 
BRANCH  17  18
HETATM   18  C   UNL     1     -10.732  16.643  68.717  1.00  0.00    -0.342 C  
BRANCH  18  19
HETATM   19  C   UNL     1     -12.014  16.006  69.292  1.00  0.00    -0.178 C  
BRANCH  19  20
HETATM   20  N   UNL     1     -11.947  15.490  70.671  1.00  0.00    -0.345 NA 
BRANCH  20  21
HETATM   21  C   UNL     1     -13.227  15.576  71.390  1.00  0.00    -0.510 C  
HETATM   22  C   UNL     1     -13.198  15.198  72.867  1.00  0.00    -0.600 C  
ENDBRANCH  20  21
BRANCH  20  23
HETATM   23  C   UNL     1     -11.355  14.139  70.653  1.00  0.00     0.116 C  
HETATM   24  C   UNL     1     -11.952  13.203  69.609  1.00  0.00    -0.370 C  
ENDBRANCH  20  23
ENDBRANCH  19  20
ENDBRANCH  18  19
ENDBRANCH  17  18
ENDBRANCH  15  17
ENDBRANCH  13  15
ENDBRANCH   5   6
ENDBRANCH   4   5
ENDBRANCH   3   4
ENDBRANCH   2   3
TORSDOF 11
ENDMDL
MODEL      124
REMARK 921   NORMALIZED FREE ENERGY PREDICTED BY IDOCK:   -4.14 KCAL/MOL
REMARK 922        TOTAL FREE ENERGY PREDICTED BY IDOCK:   -7.82 KCAL/MOL
REMARK 923 INTER-LIGAND FREE ENERGY PREDICTED BY IDOCK:   -6.90 KCAL/MOL
REMARK 924 INTRA-LIGAND FREE ENERGY PREDICTED BY IDOCK:   -0.92 KCAL/MOL
REMARK 927      BINDING AFFINITY PREDICTED BY RF-SCORE:    0.00 PKD
ROOT
HETATM    1  C   UNL     1     -13.224  10.034  71.571  1.00  0.00    -0.497 C  
HETATM    2  C   UNL     1     -13.865   8.669  71.756  1.00  0.00    -0.472 C  
ENDROOT
BRANCH   2   3
HETATM    3  C   UNL     1     -12.854   7.548  71.525  1.00  0.00    -0.397 C  
BRANCH   3   4
HETATM    4  C   UNL     1     -11.439   7.993  71.874  1.00  0.00    -0.291 C  
BRANCH   4   5
HETATM    5  O   UNL     1     -10.529   7.345  70.977  1.00  0.00    -0.214 OA 
BRANCH   5   6
HETATM    6  C   UNL     1     -10.476   7.889  69.714  1.00  0.00    -0.233 A  
HETATM    7  C   UNL     1     -10.531   6.987  68.634  1.00  0.00    -0.204 A  
HETATM    8  C   UNL     1     -10.566   7.492  67.330  1.00  0.00    -0.394 A  
HETATM    9  N   UNL     1     -10.764   5.618  68.854  1.00  0.00    -0.239 NA 
HETATM   10  H1  UNL     1     -10.804   4.965  68.072  1.00  0.00     0.000 HD 
HETATM   11  C   UNL     1     -10.399   8.858  67.089  1.00  0.00    -0.351 A  
HETATM   12  H2  UNL     1     -11.626   5.524  69.391  1.00  0.00     0.000 HD 
HETATM   13  C   UNL     1     -10.234   9.738  68.162  1.00  0.00    -0.220 A  
HETATM   14  C   UNL     1     -10.296   9.251  69.474  1.00  0.00    -0.223 A  
BRANCH  13  15
HETATM   15  C   UNL     1      -9.854  11.146  67.874  1.00  0.00    -0.174 C  
HETATM   16  O   UNL     1      -9.097  11.806  68.564  1.00  0.00    -0.190 OA 
BRANCH  15  17
HETATM   17  O   UNL     1     -10.611  11.611  66.852  1.00  0.00    -0.222 OA 
BRANCH  17  18
HETATM   18  C   UNL     1     -11.769  12.361  67.258  1.00  0.00    -0.349 C  
BRANCH  18  19
HETATM   19  C   UNL     1     -12.212  13.198  66.039  1.00  0.00    -0.414 C  
BRANCH  19  20
HETATM   20  N   UNL     1     -11.246  13.344  64.936  1.00  0.00    -0.319 NA 
BRANCH  20  21
HETATM   21  C   UNL     1     -11.411  12.338  63.877  1.00  0.00    -0.435 C  
HETATM   22  C   UNL     1     -10.129  11.777  63.272  1.00  0.00    -0.448 C  
ENDBRANCH  20  21
BRANCH  20  23
HETATM   23  C   UNL     1     -11.269  14.737  64.454  1.00  0.00    -0.172 C  
HETATM   24  C   UNL     1     -10.636  15.744  65.408  1.00  0.00    -0.441 C  
ENDBRANCH  20  23
ENDBRANCH  19  20
ENDBRANCH  18  19
ENDBRANCH  17  18
ENDBRANCH  15  17
ENDBRANCH  13  15
ENDBRANCH   5   6
ENDBRANCH   4   5
ENDBRANCH   3   4
ENDBRANCH   2   3
TORSDOF 11
ENDMDL
MODEL      125
REMARK 921   NORMALIZED FREE ENERGY PREDICTED BY IDOCK:   -4.11 KCAL/MOL
REMARK 922        TOTAL FREE ENERGY PREDICTED BY IDOCK:   -7.77 KCAL/MOL
REMARK 923 INTER-LIGAND FREE ENERGY PREDICTED BY IDOCK:   -6.43 KCAL/MOL
REMARK 924 INTRA-LIGAND FREE ENERGY PREDICTED BY IDOCK:   -1.34 KCAL/MOL
REMARK 927      BINDING AFFINITY PREDICTED BY RF-SCORE:    0.00 PKD
ROOT
HETATM    1  C   UNL     1     -12.943  11.342  71.461  1.00  0.00    -0.505 C  
HETATM    2  C   UNL     1     -12.029  11.471  70.253  1.00  0.00    -0.455 C  
ENDROOT
BRANCH   2   3
HETATM    3  C   UNL     1     -12.013  12.904  69.724  1.00  0.00    -0.365 C  
BRANCH   3   4
HETATM    4  C   UNL     1     -11.294  12.995  68.384  1.00  0.00    -0.291 C  
BRANCH   4   5
HETATM    5  O   UNL     1     -12.195  12.561  67.358  1.00  0.00    -0.430 OA 
BRANCH   5   6
HETATM    6  C   UNL     1     -11.598  12.249  66.159  1.00  0.00    -0.390 A  
HETATM    7  C   UNL     1     -12.180  12.800  65.001  1.00  0.00    -0.473 A  
HETATM    8  C   UNL     1     -11.564  12.584  63.764  1.00  0.00    -0.552 A  
HETATM    9  N   UNL     1     -13.232  13.729  65.099  1.00  0.00    -0.682 NA 
HETATM   10  H1  UNL     1     -13.652  14.128  64.260  1.00  0.00     0.000 HD 
HETATM   11  C   UNL     1     -10.476  11.715  63.650  1.00  0.00    -0.483 A  
HETATM   12  H2  UNL     1     -12.925  14.495  65.698  1.00  0.00     0.000 HD 
HETATM   13  C   UNL     1      -9.971  11.082  64.789  1.00  0.00    -0.350 A  
HETATM   14  C   UNL     1     -10.522  11.370  66.044  1.00  0.00    -0.305 A  
BRANCH  13  15
HETATM   15  C   UNL     1      -8.955  10.010  64.615  1.00  0.00    -0.214 C  
HETATM   16  O   UNL     1      -9.091   8.866  65.012  1.00  0.00    -0.165 OA 
BRANCH  15  17
HETATM   17  O   UNL     1      -7.817  10.553  64.119  1.00  0.00    -0.096 OA 
BRANCH  17  18
HETATM   18  C   UNL     1      -6.630   9.777  64.360  1.00  0.00    -0.118 C  
BRANCH  18  19
HETATM   19  C   UNL     1      -5.804  10.538  65.418  1.00  0.00    -0.134 C  
BRANCH  19  20
HETATM   20  N   UNL     1      -5.906  10.073  66.813  1.00  0.00    -0.050 NA 
BRANCH  20  21
HETATM   21  C   UNL     1      -6.863  10.844  67.618  1.00  0.00    -0.081 C  
HETATM   22  C   UNL     1      -6.932  12.341  67.334  1.00  0.00    -0.151 C  
ENDBRANCH  20  21
BRANCH  20  23
HETATM   23  C   UNL     1      -6.145   8.617  66.821  1.00  0.00    -0.058 C  
HETATM   24  C   UNL     1      -7.158   8.151  67.858  1.00  0.00    -0.083 C  
ENDBRANCH  20  23
ENDBRANCH  19  20
ENDBRANCH  18  19
ENDBRANCH  17  18
ENDBRANCH  15  17
ENDBRANCH  13  15
ENDBRANCH   5   6
ENDBRANCH   4   5
ENDBRANCH   3   4
ENDBRANCH   2   3
TORSDOF 11
ENDMDL
MODEL      126
REMARK 921   NORMALIZED FREE ENERGY PREDICTED BY IDOCK:   -4.09 KCAL/MOL
REMARK 922        TOTAL FREE ENERGY PREDICTED BY IDOCK:   -7.74 KCAL/MOL
REMARK 923 INTER-LIGAND FREE ENERGY PREDICTED BY IDOCK:   -6.80 KCAL/MOL
REMARK 924 INTRA-LIGAND FREE ENERGY PREDICTED BY IDOCK:   -0.94 KCAL/MOL
REMARK 927      BINDING AFFINITY PREDICTED BY RF-SCORE:    0.00 PKD
ROOT
HETATM    1  C   UNL     1     -11.134   6.370  67.508  1.00  0.00    -0.401 C  
HETATM    2  C   UNL     1     -10.284   5.357  68.258  1.00  0.00    -0.224 C  
ENDROOT
BRANCH   2   3
HETATM    3  C   UNL     1     -10.309   5.620  69.762  1.00  0.00    -0.352 C  
BRANCH   3   4
HETATM    4  C   UNL     1      -9.246   6.632  70.170  1.00  0.00    -0.155 C  
BRANCH   4   5
HETATM    5  O   UNL     1      -9.750   7.395  71.272  1.00  0.00    -0.166 OA 
BRANCH   5   6
HETATM    6  C   UNL     1     -10.587   8.430  70.925  1.00  0.00    -0.204 A  
HETATM    7  C   UNL     1     -11.673   8.682  71.786  1.00  0.00    -0.331 A  
HETATM    8  C   UNL     1     -12.506   9.775  71.525  1.00  0.00    -0.495 A  
HETATM    9  N   UNL     1     -11.798   7.990  73.004  1.00  0.00    -0.607 NA 
HETATM   10  H1  UNL     1     -12.584   8.172  73.627  1.00  0.00     0.000 HD 
HETATM   11  C   UNL     1     -12.361  10.519  70.352  1.00  0.00    -0.409 A  
HETATM   12  H2  UNL     1     -10.935   8.116  73.533  1.00  0.00     0.000 HD 
HETATM   13  C   UNL     1     -11.349  10.194  69.444  1.00  0.00    -0.233 A  
HETATM   14  C   UNL     1     -10.451   9.163  69.746  1.00  0.00    -0.234 A  
BRANCH  13  15
HETATM   15  C   UNL     1     -11.345  10.862  68.115  1.00  0.00    -0.315 C  
HETATM   16  O   UNL     1     -10.601  10.560  67.199  1.00  0.00    -0.237 OA 
BRANCH  15  17
HETATM   17  O   UNL     1     -12.157  11.946  68.161  1.00  0.00    -0.516 OA 
BRANCH  17  18
HETATM   18  C   UNL     1     -11.913  12.919  67.130  1.00  0.00    -0.310 C  
BRANCH  18  19
HETATM   19  C   UNL     1     -11.882  14.301  67.815  1.00  0.00    -0.379 C  
BRANCH  19  20
HETATM   20  N   UNL     1     -10.580  14.987  67.886  1.00  0.00    -0.254 NA 
BRANCH  20  21
HETATM   21  C   UNL     1     -10.677  16.380  68.347  1.00  0.00    -0.327 C  
HETATM   22  C   UNL     1     -10.104  17.442  67.414  1.00  0.00    -0.321 C  
ENDBRANCH  20  21
BRANCH  20  23
HETATM   23  C   UNL     1      -9.638  14.158  68.661  1.00  0.00    -0.179 C  
HETATM   24  C   UNL     1      -8.169  14.487  68.426  1.00  0.00    -0.150 C  
ENDBRANCH  20  23
ENDBRANCH  19  20
ENDBRANCH  18  19
ENDBRANCH  17  18
ENDBRANCH  15  17
ENDBRANCH  13  15
ENDBRANCH   5   6
ENDBRANCH   4   5
ENDBRANCH   3   4
ENDBRANCH   2   3
TORSDOF 11
ENDMDL
MODEL      127
REMARK 921   NORMALIZED FREE ENERGY PREDICTED BY IDOCK:   -4.09 KCAL/MOL
REMARK 922        TOTAL FREE ENERGY PREDICTED BY IDOCK:   -7.73 KCAL/MOL
REMARK 923 INTER-LIGAND FREE ENERGY PREDICTED BY IDOCK:   -6.78 KCAL/MOL
REMARK 924 INTRA-LIGAND FREE ENERGY PREDICTED BY IDOCK:   -0.95 KCAL/MOL
REMARK 927      BINDING AFFINITY PREDICTED BY RF-SCORE:    0.00 PKD
ROOT
HETATM    1  C   UNL     1     -11.781  12.532  69.152  1.00  0.00    -0.375 C  
HETATM    2  C   UNL     1     -10.802  11.455  68.714  1.00  0.00    -0.251 C  
ENDROOT
BRANCH   2   3
HETATM    3  C   UNL     1     -11.081  11.005  67.282  1.00  0.00    -0.359 C  
BRANCH   3   4
HETATM    4  C   UNL     1     -11.991  11.988  66.555  1.00  0.00    -0.006 C  
BRANCH   4   5
HETATM    5  O   UNL     1     -11.304  12.461  65.391  1.00  0.00    -0.313 OA 
BRANCH   5   6
HETATM    6  C   UNL     1     -10.806  13.739  65.493  1.00  0.00    -0.299 A  
HETATM    7  C   UNL     1     -11.510  14.750  64.811  1.00  0.00    -0.410 A  
HETATM    8  C   UNL     1     -11.096  16.078  64.950  1.00  0.00    -0.381 A  
HETATM    9  N   UNL     1     -12.734  14.467  64.176  1.00  0.00    -0.707 NA 
HETATM   10  H1  UNL     1     -13.244  15.199  63.682  1.00  0.00     0.000 HD 
HETATM   11  C   UNL     1      -9.917  16.390  65.631  1.00  0.00    -0.270 A  
HETATM   12  H2  UNL     1     -13.361  14.051  64.864  1.00  0.00     0.000 HD 
HETATM   13  C   UNL     1      -9.160  15.370  66.213  1.00  0.00    -0.355 A  
HETATM   14  C   UNL     1      -9.621  14.049  66.161  1.00  0.00    -0.263 A  
BRANCH  13  15
HETATM   15  C   UNL     1      -7.813  15.701  66.749  1.00  0.00    -0.176 C  
HETATM   16  O   UNL     1      -7.004  14.873  67.129  1.00  0.00    -0.233 OA 
BRANCH  15  17
HETATM   17  O   UNL     1      -7.715  17.043  66.906  1.00  0.00    -0.178 OA 
BRANCH  17  18
HETATM   18  C   UNL     1      -7.935  17.505  68.250  1.00  0.00    -0.259 C  
BRANCH  18  19
HETATM   19  C   UNL     1      -7.306  18.911  68.351  1.00  0.00    -0.288 C  
BRANCH  19  20
HETATM   20  N   UNL     1      -8.176  20.060  68.039  1.00  0.00    -0.262 NA 
BRANCH  20  21
HETATM   21  C   UNL     1      -7.645  20.922  66.973  1.00  0.00    -0.189 C  
HETATM   22  C   UNL     1      -6.513  20.339  66.134  1.00  0.00    -0.241 C  
ENDBRANCH  20  21
BRANCH  20  23
HETATM   23  C   UNL     1      -9.548  19.576  67.798  1.00  0.00    -0.346 C  
HETATM   24  C   UNL     1     -10.110  19.932  66.427  1.00  0.00    -0.615 C  
ENDBRANCH  20  23
ENDBRANCH  19  20
ENDBRANCH  18  19
ENDBRANCH  17  18
ENDBRANCH  15  17
ENDBRANCH  13  15
ENDBRANCH   5   6
ENDBRANCH   4   5
ENDBRANCH   3   4
ENDBRANCH   2   3
TORSDOF 11
ENDMDL
MODEL      128
REMARK 921   NORMALIZED FREE ENERGY PREDICTED BY IDOCK:   -4.08 KCAL/MOL
REMARK 922        TOTAL FREE ENERGY PREDICTED BY IDOCK:   -7.71 KCAL/MOL
REMARK 923 INTER-LIGAND FREE ENERGY PREDICTED BY IDOCK:   -6.93 KCAL/MOL
REMARK 924 INTRA-LIGAND FREE ENERGY PREDICTED BY IDOCK:   -0.79 KCAL/MOL
REMARK 927      BINDING AFFINITY PREDICTED BY RF-SCORE:    0.00 PKD
ROOT
HETATM    1  C   UNL     1     -10.911   5.921  67.400  1.00  0.00    -0.341 C  
HETATM    2  C   UNL     1      -9.827   6.503  66.508  1.00  0.00    -0.169 C  
ENDROOT
BRANCH   2   3
HETATM    3  C   UNL     1      -9.335   7.847  67.041  1.00  0.00    -0.200 C  
BRANCH   3   4
HETATM    4  C   UNL     1     -10.142   9.004  66.468  1.00  0.00    -0.283 C  
BRANCH   4   5
HETATM    5  O   UNL     1      -9.541  10.230  66.901  1.00  0.00    -0.165 OA 
BRANCH   5   6
HETATM    6  C   UNL     1     -10.409  11.291  67.015  1.00  0.00    -0.227 A  
HETATM    7  C   UNL     1     -10.960  11.524  68.290  1.00  0.00    -0.224 A  
HETATM    8  C   UNL     1     -11.782  12.640  68.480  1.00  0.00    -0.372 A  
HETATM    9  N   UNL     1     -10.527  10.783  69.405  1.00  0.00    -0.298 NA 
HETATM   10  H1  UNL     1     -10.926  10.952  70.327  1.00  0.00     0.000 HD 
HETATM   11  C   UNL     1     -12.175  13.429  67.397  1.00  0.00    -0.262 A  
HETATM   12  H2  UNL     1      -9.514  10.874  69.474  1.00  0.00     0.000 HD 
HETATM   13  C   UNL     1     -11.714  13.128  66.114  1.00  0.00    -0.428 A  
HETATM   14  C   UNL     1     -10.812  12.071  65.931  1.00  0.00    -0.329 A  
BRANCH  13  15
HETATM   15  C   UNL     1     -12.306  13.850  64.957  1.00  0.00    -0.430 C  
HETATM   16  O   UNL     1     -12.621  13.320  63.906  1.00  0.00    -0.661 OA 
BRANCH  15  17
HETATM   17  O   UNL     1     -12.266  15.183  65.198  1.00  0.00    -0.082 OA 
BRANCH  17  18
HETATM   18  C   UNL     1     -11.166  15.870  64.576  1.00  0.00    -0.312 C  
BRANCH  18  19
HETATM   19  C   UNL     1     -10.165  16.221  65.697  1.00  0.00    -0.343 C  
BRANCH  19  20
HETATM   20  N   UNL     1     -10.564  17.272  66.650  1.00  0.00    -0.236 NA 
BRANCH  20  21
HETATM   21  C   UNL     1      -9.837  17.211  67.925  1.00  0.00    -0.283 C  
HETATM   22  C   UNL     1     -10.626  16.706  69.129  1.00  0.00    -0.340 C  
ENDBRANCH  20  21
BRANCH  20  23
HETATM   23  C   UNL     1     -10.498  18.584  65.979  1.00  0.00    -0.400 C  
HETATM   24  C   UNL     1     -10.786  19.772  66.888  1.00  0.00    -0.541 C  
ENDBRANCH  20  23
ENDBRANCH  19  20
ENDBRANCH  18  19
ENDBRANCH  17  18
ENDBRANCH  15  17
ENDBRANCH  13  15
ENDBRANCH   5   6
ENDBRANCH   4   5
ENDBRANCH   3   4
ENDBRANCH   2   3
TORSDOF 11
ENDMDL
MODEL      129
REMARK 921   NORMALIZED FREE ENERGY PREDICTED BY IDOCK:   -4.08 KCAL/MOL
REMARK 922        TOTAL FREE ENERGY PREDICTED BY IDOCK:   -7.71 KCAL/MOL
REMARK 923 INTER-LIGAND FREE ENERGY PREDICTED BY IDOCK:   -6.60 KCAL/MOL
REMARK 924 INTRA-LIGAND FREE ENERGY PREDICTED BY IDOCK:   -1.11 KCAL/MOL
REMARK 927      BINDING AFFINITY PREDICTED BY RF-SCORE:    0.00 PKD
ROOT
HETATM    1  C   UNL     1     -12.519  15.565  73.883  1.00  0.00    -0.769 C  
HETATM    2  C   UNL     1     -11.765  15.105  72.646  1.00  0.00    -0.465 C  
ENDROOT
BRANCH   2   3
HETATM    3  C   UNL     1     -11.743  16.195  71.576  1.00  0.00    -0.533 C  
BRANCH   3   4
HETATM    4  C   UNL     1     -11.623  15.601  70.178  1.00  0.00    -0.354 C  
BRANCH   4   5
HETATM    5  O   UNL     1     -11.339  16.664  69.260  1.00  0.00    -0.210 OA 
BRANCH   5   6
HETATM    6  C   UNL     1     -10.217  16.477  68.488  1.00  0.00    -0.266 A  
HETATM    7  C   UNL     1      -9.994  17.411  67.458  1.00  0.00    -0.298 A  
HETATM    8  C   UNL     1      -8.823  17.317  66.698  1.00  0.00    -0.280 A  
HETATM    9  N   UNL     1     -10.814  18.547  67.330  1.00  0.00    -0.370 NA 
HETATM   10  H1  UNL     1     -10.653  19.223  66.584  1.00  0.00     0.000 HD 
HETATM   11  C   UNL     1      -7.958  16.231  66.852  1.00  0.00    -0.278 A  
HETATM   12  H2  UNL     1     -10.810  19.046  68.219  1.00  0.00     0.000 HD 
HETATM   13  C   UNL     1      -8.242  15.246  67.801  1.00  0.00    -0.157 A  
HETATM   14  C   UNL     1      -9.361  15.385  68.633  1.00  0.00    -0.202 A  
BRANCH  13  15
HETATM   15  C   UNL     1      -7.425  14.003  67.803  1.00  0.00    -0.161 C  
HETATM   16  O   UNL     1      -6.286  13.933  68.231  1.00  0.00    -0.087 OA 
BRANCH  15  17
HETATM   17  O   UNL     1      -8.075  13.043  67.103  1.00  0.00    -0.171 OA 
BRANCH  17  18
HETATM   18  C   UNL     1      -8.811  12.108  67.911  1.00  0.00    -0.177 C  
BRANCH  18  19
HETATM   19  C   UNL     1     -10.051  11.687  67.095  1.00  0.00    -0.204 C  
BRANCH  19  20
HETATM   20  N   UNL     1     -10.095  12.096  65.680  1.00  0.00    -0.244 NA 
BRANCH  20  21
HETATM   21  C   UNL     1     -10.054  10.964  64.743  1.00  0.00    -0.321 C  
HETATM   22  C   UNL     1     -10.463  11.263  63.305  1.00  0.00    -0.370 C  
ENDBRANCH  20  21
BRANCH  20  23
HETATM   23  C   UNL     1     -11.236  13.008  65.476  1.00  0.00    -0.288 C  
HETATM   24  C   UNL     1     -10.844  14.431  65.096  1.00  0.00    -0.397 C  
ENDBRANCH  20  23
ENDBRANCH  19  20
ENDBRANCH  18  19
ENDBRANCH  17  18
ENDBRANCH  15  17
ENDBRANCH  13  15
ENDBRANCH   5   6
ENDBRANCH   4   5
ENDBRANCH   3   4
ENDBRANCH   2   3
TORSDOF 11
ENDMDL
MODEL      130
REMARK 921   NORMALIZED FREE ENERGY PREDICTED BY IDOCK:   -4.07 KCAL/MOL
REMARK 922        TOTAL FREE ENERGY PREDICTED BY IDOCK:   -7.70 KCAL/MOL
REMARK 923 INTER-LIGAND FREE ENERGY PREDICTED BY IDOCK:   -6.69 KCAL/MOL
REMARK 924 INTRA-LIGAND FREE ENERGY PREDICTED BY IDOCK:   -1.01 KCAL/MOL
REMARK 927      BINDING AFFINITY PREDICTED BY RF-SCORE:    0.00 PKD
ROOT
HETATM    1  C   UNL     1      -7.447  20.341  66.353  1.00  0.00    -0.284 C  
HETATM    2  C   UNL     1      -8.551  19.630  67.117  1.00  0.00    -0.357 C  
ENDROOT
BRANCH   2   3
HETATM    3  C   UNL     1      -8.574  18.138  66.793  1.00  0.00    -0.272 C  
BRANCH   3   4
HETATM    4  C   UNL     1      -9.997  17.594  66.764  1.00  0.00    -0.320 C  
BRANCH   4   5
HETATM    5  O   UNL     1     -10.175  16.864  65.544  1.00  0.00    -0.580 OA 
BRANCH   5   6
HETATM    6  C   UNL     1     -10.766  15.631  65.690  1.00  0.00    -0.364 A  
HETATM    7  C   UNL     1     -11.776  15.300  64.766  1.00  0.00    -0.276 A  
HETATM    8  C   UNL     1     -12.350  14.025  64.817  1.00  0.00    -0.437 A  
HETATM    9  N   UNL     1     -12.055  16.144  63.676  1.00  0.00    -1.030 NA 
HETATM   10  H1  UNL     1     -12.786  15.904  63.007  1.00  0.00     0.000 HD 
HETATM   11  C   UNL     1     -12.040  13.144  65.855  1.00  0.00    -0.501 A  
HETATM   12  H2  UNL     1     -11.188  16.296  63.160  1.00  0.00     0.000 HD 
HETATM   13  C   UNL     1     -11.118  13.521  66.834  1.00  0.00    -0.309 A  
HETATM   14  C   UNL     1     -10.467  14.757  66.735  1.00  0.00    -0.282 A  
BRANCH  13  15
HETATM   15  C   UNL     1     -10.962  12.656  68.034  1.00  0.00    -0.235 C  
HETATM   16  O   UNL     1     -11.825  12.492  68.878  1.00  0.00    -0.304 OA 
BRANCH  15  17
HETATM   17  O   UNL     1      -9.674  12.243  68.119  1.00  0.00    -0.202 OA 
BRANCH  17  18
HETATM   18  C   UNL     1      -9.304  11.238  67.160  1.00  0.00    -0.163 C  
BRANCH  18  19
HETATM   19  C   UNL     1      -7.764  11.237  67.081  1.00  0.00    -0.147 C  
BRANCH  19  20
HETATM   20  N   UNL     1      -7.035  11.921  68.164  1.00  0.00    -0.072 NA 
BRANCH  20  21
HETATM   21  C   UNL     1      -6.299  11.002  69.044  1.00  0.00    -0.048 C  
HETATM   22  C   UNL     1      -7.136  10.196  70.031  1.00  0.00    -0.156 C  
ENDBRANCH  20  21
BRANCH  20  23
HETATM   23  C   UNL     1      -6.208  12.996  67.586  1.00  0.00    -0.157 C  
HETATM   24  C   UNL     1      -6.808  14.391  67.714  1.00  0.00    -0.194 C  
ENDBRANCH  20  23
ENDBRANCH  19  20
ENDBRANCH  18  19
ENDBRANCH  17  18
ENDBRANCH  15  17
ENDBRANCH  13  15
ENDBRANCH   5   6
ENDBRANCH   4   5
ENDBRANCH   3   4
ENDBRANCH   2   3
TORSDOF 11
ENDMDL
MODEL      131
REMARK 921   NORMALIZED FREE ENERGY PREDICTED BY IDOCK:   -4.06 KCAL/MOL
REMARK 922        TOTAL FREE ENERGY PREDICTED BY IDOCK:   -7.69 KCAL/MOL
REMARK 923 INTER-LIGAND FREE ENERGY PREDICTED BY IDOCK:   -6.44 KCAL/MOL
REMARK 924 INTRA-LIGAND FREE ENERGY PREDICTED BY IDOCK:   -1.25 KCAL/MOL
REMARK 927      BINDING AFFINITY PREDICTED BY RF-SCORE:    0.00 PKD
ROOT
HETATM    1  C   UNL     1     -13.060  11.406  71.870  1.00  0.00    -0.505 C  
HETATM    2  C   UNL     1     -12.280  11.511  70.570  1.00  0.00    -0.469 C  
ENDROOT
BRANCH   2   3
HETATM    3  C   UNL     1     -12.160  12.964  70.114  1.00  0.00    -0.373 C  
BRANCH   3   4
HETATM    4  C   UNL     1     -11.332  13.083  68.841  1.00  0.00    -0.287 C  
BRANCH   4   5
HETATM    5  O   UNL     1     -12.088  12.527  67.759  1.00  0.00    -0.409 OA 
BRANCH   5   6
HETATM    6  C   UNL     1     -11.387  11.666  66.946  1.00  0.00    -0.295 A  
HETATM    7  C   UNL     1     -11.165  12.087  65.621  1.00  0.00    -0.327 A  
HETATM    8  C   UNL     1     -10.386  11.288  64.777  1.00  0.00    -0.366 A  
HETATM    9  N   UNL     1     -11.530  13.381  65.208  1.00  0.00    -0.294 NA 
HETATM   10  H1  UNL     1     -11.369  13.686  64.249  1.00  0.00     0.000 HD 
HETATM   11  C   UNL     1      -9.957  10.024  65.187  1.00  0.00    -0.350 A  
HETATM   12  H2  UNL     1     -11.085  14.053  65.835  1.00  0.00     0.000 HD 
HETATM   13  C   UNL     1     -10.276   9.564  66.467  1.00  0.00    -0.307 A  
HETATM   14  C   UNL     1     -10.972  10.398  67.351  1.00  0.00    -0.335 A  
BRANCH  13  15
HETATM   15  C   UNL     1      -9.990   8.143  66.804  1.00  0.00    -0.279 C  
HETATM   16  O   UNL     1     -10.832   7.263  66.834  1.00  0.00    -0.355 OA 
BRANCH  15  17
HETATM   17  O   UNL     1      -8.710   8.039  67.235  1.00  0.00    -0.129 OA 
BRANCH  17  18
HETATM   18  C   UNL     1      -8.396   6.793  67.881  1.00  0.00    -0.120 C  
BRANCH  18  19
HETATM   19  C   UNL     1      -8.441   7.051  69.402  1.00  0.00    -0.133 C  
BRANCH  19  20
HETATM   20  N   UNL     1      -9.493   6.360  70.170  1.00  0.00    -0.160 NA 
BRANCH  20  21
HETATM   21  C   UNL     1     -10.625   7.229  70.523  1.00  0.00    -0.222 C  
HETATM   22  C   UNL     1     -10.333   8.725  70.589  1.00  0.00    -0.253 C  
ENDBRANCH  20  21
BRANCH  20  23
HETATM   23  C   UNL     1      -9.877   5.126  69.461  1.00  0.00    -0.208 C  
HETATM   24  C   UNL     1      -9.573   3.841  70.223  1.00  0.00    -0.257 C  
ENDBRANCH  20  23
ENDBRANCH  19  20
ENDBRANCH  18  19
ENDBRANCH  17  18
ENDBRANCH  15  17
ENDBRANCH  13  15
ENDBRANCH   5   6
ENDBRANCH   4   5
ENDBRANCH   3   4
ENDBRANCH   2   3
TORSDOF 11
ENDMDL
MODEL      132
REMARK 921   NORMALIZED FREE ENERGY PREDICTED BY IDOCK:   -4.05 KCAL/MOL
REMARK 922        TOTAL FREE ENERGY PREDICTED BY IDOCK:   -7.67 KCAL/MOL
REMARK 923 INTER-LIGAND FREE ENERGY PREDICTED BY IDOCK:   -7.01 KCAL/MOL
REMARK 924 INTRA-LIGAND FREE ENERGY PREDICTED BY IDOCK:   -0.66 KCAL/MOL
REMARK 927      BINDING AFFINITY PREDICTED BY RF-SCORE:    0.00 PKD
ROOT
HETATM    1  C   UNL     1     -14.269  13.810  72.221  1.00  0.00    -0.563 C  
HETATM    2  C   UNL     1     -14.302  15.217  71.647  1.00  0.00    -0.685 C  
ENDROOT
BRANCH   2   3
HETATM    3  C   UNL     1     -12.971  15.579  70.993  1.00  0.00    -0.550 C  
BRANCH   3   4
HETATM    4  C   UNL     1     -12.052  14.368  70.891  1.00  0.00    -0.344 C  
BRANCH   4   5
HETATM    5  O   UNL     1     -12.225  13.780  69.596  1.00  0.00    -0.332 OA 
BRANCH   5   6
HETATM    6  C   UNL     1     -11.889  12.449  69.515  1.00  0.00    -0.303 A  
HETATM    7  C   UNL     1     -11.246  12.028  68.335  1.00  0.00    -0.262 A  
HETATM    8  C   UNL     1     -10.807  10.704  68.237  1.00  0.00    -0.287 A  
HETATM    9  N   UNL     1     -10.854  12.963  67.360  1.00  0.00    -0.247 NA 
HETATM   10  H1  UNL     1     -10.388  12.659  66.506  1.00  0.00     0.000 HD 
HETATM   11  C   UNL     1     -11.129   9.770  69.225  1.00  0.00    -0.184 A  
HETATM   12  H2  UNL     1     -10.268  13.666  67.810  1.00  0.00     0.000 HD 
HETATM   13  C   UNL     1     -11.865  10.168  70.343  1.00  0.00    -0.373 A  
HETATM   14  C   UNL     1     -12.223  11.514  70.495  1.00  0.00    -0.469 A  
BRANCH  13  15
HETATM   15  C   UNL     1     -12.370   9.122  71.271  1.00  0.00    -0.315 C  
HETATM   16  O   UNL     1     -13.415   9.203  71.892  1.00  0.00    -0.374 OA 
BRANCH  15  17
HETATM   17  O   UNL     1     -11.412   8.179  71.441  1.00  0.00    -0.251 OA 
BRANCH  17  18
HETATM   18  C   UNL     1     -11.911   6.837  71.575  1.00  0.00    -0.350 C  
BRANCH  18  19
HETATM   19  C   UNL     1     -10.934   6.084  72.501  1.00  0.00    -0.260 C  
BRANCH  19  20
HETATM   20  N   UNL     1     -10.846   4.621  72.339  1.00  0.00    -0.118 NA 
BRANCH  20  21
HETATM   21  C   UNL     1      -9.539   4.165  71.847  1.00  0.00    -0.152 C  
HETATM   22  C   UNL     1      -9.135   4.645  70.457  1.00  0.00    -0.174 C  
ENDBRANCH  20  21
BRANCH  20  23
HETATM   23  C   UNL     1     -11.282   3.970  73.589  1.00  0.00    -0.216 C  
HETATM   24  C   UNL     1     -10.251   3.032  74.203  1.00  0.00    -0.202 C  
ENDBRANCH  20  23
ENDBRANCH  19  20
ENDBRANCH  18  19
ENDBRANCH  17  18
ENDBRANCH  15  17
ENDBRANCH  13  15
ENDBRANCH   5   6
ENDBRANCH   4   5
ENDBRANCH   3   4
ENDBRANCH   2   3
TORSDOF 11
ENDMDL
MODEL      133
REMARK 921   NORMALIZED FREE ENERGY PREDICTED BY IDOCK:   -4.04 KCAL/MOL
REMARK 922        TOTAL FREE ENERGY PREDICTED BY IDOCK:   -7.64 KCAL/MOL
REMARK 923 INTER-LIGAND FREE ENERGY PREDICTED BY IDOCK:   -6.91 KCAL/MOL
REMARK 924 INTRA-LIGAND FREE ENERGY PREDICTED BY IDOCK:   -0.73 KCAL/MOL
REMARK 927      BINDING AFFINITY PREDICTED BY RF-SCORE:    0.00 PKD
ROOT
HETATM    1  C   UNL     1      -7.772  19.907  68.302  1.00  0.00    -0.295 C  
HETATM    2  C   UNL     1      -8.629  18.688  68.598  1.00  0.00    -0.338 C  
ENDROOT
BRANCH   2   3
HETATM    3  C   UNL     1     -10.008  18.813  67.952  1.00  0.00    -0.400 C  
BRANCH   3   4
HETATM    4  C   UNL     1     -10.795  17.513  68.064  1.00  0.00    -0.258 C  
BRANCH   4   5
HETATM    5  O   UNL     1     -10.876  17.153  69.448  1.00  0.00    -0.215 OA 
BRANCH   5   6
HETATM    6  C   UNL     1     -11.300  15.867  69.686  1.00  0.00    -0.342 A  
HETATM    7  C   UNL     1     -11.788  15.590  70.978  1.00  0.00    -0.382 A  
HETATM    8  C   UNL     1     -12.310  14.321  71.249  1.00  0.00    -0.439 A  
HETATM    9  N   UNL     1     -11.952  16.623  71.919  1.00  0.00    -0.563 NA 
HETATM   10  H1  UNL     1     -12.306  16.423  72.854  1.00  0.00     0.000 HD 
HETATM   11  C   UNL     1     -12.217  13.295  70.306  1.00  0.00    -0.391 A  
HETATM   12  H2  UNL     1     -12.543  17.343  71.502  1.00  0.00     0.000 HD 
HETATM   13  C   UNL     1     -11.630  13.545  69.063  1.00  0.00    -0.356 A  
HETATM   14  C   UNL     1     -11.193  14.839  68.750  1.00  0.00    -0.286 A  
BRANCH  13  15
HETATM   15  C   UNL     1     -11.355  12.394  68.162  1.00  0.00    -0.291 C  
HETATM   16  O   UNL     1     -11.804  12.285  67.034  1.00  0.00    -0.519 OA 
BRANCH  15  17
HETATM   17  O   UNL     1     -10.693  11.436  68.854  1.00  0.00    -0.196 OA 
BRANCH  17  18
HETATM   18  C   UNL     1     -10.864  10.103  68.343  1.00  0.00    -0.242 C  
BRANCH  18  19
HETATM   19  C   UNL     1      -9.561   9.334  68.646  1.00  0.00    -0.147 C  
BRANCH  19  20
HETATM   20  N   UNL     1      -9.582   8.398  69.784  1.00  0.00    -0.170 NA 
BRANCH  20  21
HETATM   21  C   UNL     1      -9.117   8.998  71.043  1.00  0.00    -0.257 C  
HETATM   22  C   UNL     1      -8.538   8.036  72.076  1.00  0.00    -0.193 C  
ENDBRANCH  20  21
BRANCH  20  23
HETATM   23  C   UNL     1     -10.915   7.772  69.870  1.00  0.00    -0.190 C  
HETATM   24  C   UNL     1     -10.931   6.280  69.561  1.00  0.00    -0.445 C  
ENDBRANCH  20  23
ENDBRANCH  19  20
ENDBRANCH  18  19
ENDBRANCH  17  18
ENDBRANCH  15  17
ENDBRANCH  13  15
ENDBRANCH   5   6
ENDBRANCH   4   5
ENDBRANCH   3   4
ENDBRANCH   2   3
TORSDOF 11
ENDMDL
MODEL      134
REMARK 921   NORMALIZED FREE ENERGY PREDICTED BY IDOCK:   -4.04 KCAL/MOL
REMARK 922        TOTAL FREE ENERGY PREDICTED BY IDOCK:   -7.64 KCAL/MOL
REMARK 923 INTER-LIGAND FREE ENERGY PREDICTED BY IDOCK:   -7.00 KCAL/MOL
REMARK 924 INTRA-LIGAND FREE ENERGY PREDICTED BY IDOCK:   -0.64 KCAL/MOL
REMARK 927      BINDING AFFINITY PREDICTED BY RF-SCORE:    0.00 PKD
ROOT
HETATM    1  C   UNL     1     -11.253  15.300  65.666  1.00  0.00    -0.256 C  
HETATM    2  C   UNL     1     -12.039  14.792  64.469  1.00  0.00    -0.460 C  
ENDROOT
BRANCH   2   3
HETATM    3  C   UNL     1     -12.716  13.459  64.779  1.00  0.00    -0.310 C  
BRANCH   3   4
HETATM    4  C   UNL     1     -12.299  12.377  63.790  1.00  0.00    -0.528 C  
BRANCH   4   5
HETATM    5  O   UNL     1     -10.876  12.433  63.635  1.00  0.00    -0.411 OA 
BRANCH   5   6
HETATM    6  C   UNL     1     -10.175  11.533  64.402  1.00  0.00    -0.300 A  
HETATM    7  C   UNL     1      -9.756  10.349  63.765  1.00  0.00    -0.290 A  
HETATM    8  C   UNL     1      -8.967   9.439  64.476  1.00  0.00    -0.227 A  
HETATM    9  N   UNL     1      -9.935  10.178  62.381  1.00  0.00    -0.658 NA 
HETATM   10  H1  UNL     1      -9.632   9.321  61.919  1.00  0.00     0.000 HD 
HETATM   11  C   UNL     1      -8.721   9.620  65.839  1.00  0.00    -0.163 A  
HETATM   12  H2  UNL     1      -9.502  10.968  61.903  1.00  0.00     0.000 HD 
HETATM   13  C   UNL     1      -9.234  10.742  66.494  1.00  0.00    -0.187 A  
HETATM   14  C   UNL     1      -9.942  11.707  65.766  1.00  0.00    -0.270 A  
BRANCH  13  15
HETATM   15  C   UNL     1      -9.136  10.807  67.977  1.00  0.00    -0.150 C  
HETATM   16  O   UNL     1      -8.389  11.555  68.582  1.00  0.00    -0.157 OA 
BRANCH  15  17
HETATM   17  O   UNL     1      -9.861   9.797  68.514  1.00  0.00    -0.151 OA 
BRANCH  17  18
HETATM   18  C   UNL     1     -11.270  10.063  68.622  1.00  0.00    -0.121 C  
BRANCH  18  19
HETATM   19  C   UNL     1     -11.417  11.420  69.342  1.00  0.00    -0.310 C  
BRANCH  19  20
HETATM   20  N   UNL     1     -12.409  11.499  70.430  1.00  0.00    -0.322 NA 
BRANCH  20  21
HETATM   21  C   UNL     1     -12.247  10.450  71.446  1.00  0.00    -0.362 C  
HETATM   22  C   UNL     1     -13.468   9.576  71.716  1.00  0.00    -0.480 C  
ENDBRANCH  20  21
BRANCH  20  23
HETATM   23  C   UNL     1     -12.423  12.870  70.973  1.00  0.00    -0.283 C  
HETATM   24  C   UNL     1     -13.480  13.113  72.043  1.00  0.00    -0.598 C  
ENDBRANCH  20  23
ENDBRANCH  19  20
ENDBRANCH  18  19
ENDBRANCH  17  18
ENDBRANCH  15  17
ENDBRANCH  13  15
ENDBRANCH   5   6
ENDBRANCH   4   5
ENDBRANCH   3   4
ENDBRANCH   2   3
TORSDOF 11
ENDMDL
MODEL      135
REMARK 921   NORMALIZED FREE ENERGY PREDICTED BY IDOCK:   -4.03 KCAL/MOL
REMARK 922        TOTAL FREE ENERGY PREDICTED BY IDOCK:   -7.64 KCAL/MOL
REMARK 923 INTER-LIGAND FREE ENERGY PREDICTED BY IDOCK:   -6.96 KCAL/MOL
REMARK 924 INTRA-LIGAND FREE ENERGY PREDICTED BY IDOCK:   -0.67 KCAL/MOL
REMARK 927      BINDING AFFINITY PREDICTED BY RF-SCORE:    0.00 PKD
ROOT
HETATM    1  C   UNL     1     -10.125   7.751  70.883  1.00  0.00    -0.195 C  
HETATM    2  C   UNL     1     -10.315   9.132  71.487  1.00  0.00    -0.414 C  
ENDROOT
BRANCH   2   3
HETATM    3  C   UNL     1     -11.741   9.636  71.278  1.00  0.00    -0.458 C  
BRANCH   3   4
HETATM    4  C   UNL     1     -11.792  10.754  70.244  1.00  0.00    -0.349 C  
BRANCH   4   5
HETATM    5  O   UNL     1     -10.573  10.728  69.492  1.00  0.00    -0.223 OA 
BRANCH   5   6
HETATM    6  C   UNL     1     -10.674  11.216  68.210  1.00  0.00    -0.196 A  
HETATM    7  C   UNL     1     -10.470  10.295  67.164  1.00  0.00    -0.254 A  
HETATM    8  C   UNL     1     -10.644  10.720  65.843  1.00  0.00    -0.216 A  
HETATM    9  N   UNL     1     -10.308   8.925  67.437  1.00  0.00    -0.251 NA 
HETATM   10  H1  UNL     1     -10.160   8.258  66.679  1.00  0.00     0.000 HD 
HETATM   11  C   UNL     1     -10.870  12.067  65.551  1.00  0.00    -0.336 A  
HETATM   12  H2  UNL     1     -11.109   8.612  67.985  1.00  0.00     0.000 HD 
HETATM   13  C   UNL     1     -10.962  12.997  66.589  1.00  0.00    -0.301 A  
HETATM   14  C   UNL     1     -10.886  12.563  67.918  1.00  0.00    -0.251 A  
BRANCH  13  15
HETATM   15  C   UNL     1     -10.994  14.444  66.246  1.00  0.00    -0.318 C  
HETATM   16  O   UNL     1     -11.384  14.887  65.180  1.00  0.00    -0.354 OA 
BRANCH  15  17
HETATM   17  O   UNL     1     -10.365  15.145  67.220  1.00  0.00    -0.254 OA 
BRANCH  17  18
HETATM   18  C   UNL     1     -11.128  16.239  67.757  1.00  0.00    -0.227 C  
BRANCH  18  19
HETATM   19  C   UNL     1     -10.465  17.539  67.254  1.00  0.00    -0.327 C  
BRANCH  19  20
HETATM   20  N   UNL     1      -9.828  18.403  68.264  1.00  0.00    -0.339 NA 
BRANCH  20  21
HETATM   21  C   UNL     1      -8.415  18.079  68.503  1.00  0.00    -0.305 C  
HETATM   22  C   UNL     1      -7.516  19.239  68.919  1.00  0.00    -0.397 C  
ENDBRANCH  20  21
BRANCH  20  23
HETATM   23  C   UNL     1     -10.074  19.815  67.917  1.00  0.00    -0.430 C  
HETATM   24  C   UNL     1     -10.094  20.101  66.420  1.00  0.00    -0.569 C  
ENDBRANCH  20  23
ENDBRANCH  19  20
ENDBRANCH  18  19
ENDBRANCH  17  18
ENDBRANCH  15  17
ENDBRANCH  13  15
ENDBRANCH   5   6
ENDBRANCH   4   5
ENDBRANCH   3   4
ENDBRANCH   2   3
TORSDOF 11
ENDMDL
MODEL      136
REMARK 921   NORMALIZED FREE ENERGY PREDICTED BY IDOCK:   -4.03 KCAL/MOL
REMARK 922        TOTAL FREE ENERGY PREDICTED BY IDOCK:   -7.63 KCAL/MOL
REMARK 923 INTER-LIGAND FREE ENERGY PREDICTED BY IDOCK:   -6.20 KCAL/MOL
REMARK 924 INTRA-LIGAND FREE ENERGY PREDICTED BY IDOCK:   -1.43 KCAL/MOL
REMARK 927      BINDING AFFINITY PREDICTED BY RF-SCORE:    0.00 PKD
ROOT
HETATM    1  C   UNL     1     -12.715  12.173  71.355  1.00  0.00    -0.368 C  
HETATM    2  C   UNL     1     -13.286  10.845  71.826  1.00  0.00    -0.513 C  
ENDROOT
BRANCH   2   3
HETATM    3  C   UNL     1     -12.580   9.671  71.152  1.00  0.00    -0.411 C  
BRANCH   3   4
HETATM    4  C   UNL     1     -12.020   8.693  72.178  1.00  0.00    -0.379 C  
BRANCH   4   5
HETATM    5  O   UNL     1     -12.562   7.395  71.904  1.00  0.00    -0.312 OA 
BRANCH   5   6
HETATM    6  C   UNL     1     -11.704   6.535  71.259  1.00  0.00    -0.331 A  
HETATM    7  C   UNL     1     -10.977   5.640  72.067  1.00  0.00    -0.243 A  
HETATM    8  C   UNL     1     -10.155   4.688  71.455  1.00  0.00    -0.255 A  
HETATM    9  N   UNL     1     -11.230   5.554  73.448  1.00  0.00    -0.472 NA 
HETATM   10  H1  UNL     1     -10.704   4.906  74.033  1.00  0.00     0.000 HD 
HETATM   11  C   UNL     1      -9.937   4.714  70.076  1.00  0.00    -0.302 A  
HETATM   12  H2  UNL     1     -12.224   5.366  73.579  1.00  0.00     0.000 HD 
HETATM   13  C   UNL     1     -10.576   5.676  69.290  1.00  0.00    -0.359 A  
HETATM   14  C   UNL     1     -11.476   6.570  69.883  1.00  0.00    -0.467 A  
BRANCH  13  15
HETATM   15  C   UNL     1     -10.171   5.814  67.866  1.00  0.00    -0.187 C  
HETATM   16  O   UNL     1     -10.907   5.599  66.920  1.00  0.00    -0.286 OA 
BRANCH  15  17
HETATM   17  O   UNL     1      -8.835   6.034  67.803  1.00  0.00    -0.109 OA 
BRANCH  17  18
HETATM   18  C   UNL     1      -8.465   7.326  67.292  1.00  0.00    -0.118 C  
BRANCH  18  19
HETATM   19  C   UNL     1      -7.977   8.163  68.493  1.00  0.00    -0.126 C  
BRANCH  19  20
HETATM   20  N   UNL     1      -8.763   9.360  68.842  1.00  0.00    -0.129 NA 
BRANCH  20  21
HETATM   21  C   UNL     1     -10.077   9.408  68.186  1.00  0.00    -0.181 C  
HETATM   22  C   UNL     1     -10.369  10.647  67.346  1.00  0.00    -0.262 C  
ENDBRANCH  20  21
BRANCH  20  23
HETATM   23  C   UNL     1      -8.815   9.493  70.310  1.00  0.00    -0.243 C  
HETATM   24  C   UNL     1      -8.504   8.209  71.070  1.00  0.00    -0.144 C  
ENDBRANCH  20  23
ENDBRANCH  19  20
ENDBRANCH  18  19
ENDBRANCH  17  18
ENDBRANCH  15  17
ENDBRANCH  13  15
ENDBRANCH   5   6
ENDBRANCH   4   5
ENDBRANCH   3   4
ENDBRANCH   2   3
TORSDOF 11
ENDMDL
MODEL      137
REMARK 921   NORMALIZED FREE ENERGY PREDICTED BY IDOCK:   -4.03 KCAL/MOL
REMARK 922        TOTAL FREE ENERGY PREDICTED BY IDOCK:   -7.62 KCAL/MOL
REMARK 923 INTER-LIGAND FREE ENERGY PREDICTED BY IDOCK:   -6.94 KCAL/MOL
REMARK 924 INTRA-LIGAND FREE ENERGY PREDICTED BY IDOCK:   -0.68 KCAL/MOL
REMARK 927      BINDING AFFINITY PREDICTED BY RF-SCORE:    0.00 PKD
ROOT
HETATM    1  C   UNL     1     -10.616   6.531  73.470  1.00  0.00    -0.312 C  
HETATM    2  C   UNL     1     -11.072   7.602  72.493  1.00  0.00    -0.388 C  
ENDROOT
BRANCH   2   3
HETATM    3  C   UNL     1     -12.061   7.037  71.476  1.00  0.00    -0.392 C  
BRANCH   3   4
HETATM    4  C   UNL     1     -11.345   6.473  70.255  1.00  0.00    -0.395 C  
BRANCH   4   5
HETATM    5  O   UNL     1     -10.182   7.272  70.006  1.00  0.00    -0.195 OA 
BRANCH   5   6
HETATM    6  C   UNL     1     -10.233   8.023  68.855  1.00  0.00    -0.209 A  
HETATM    7  C   UNL     1      -9.461   7.568  67.768  1.00  0.00    -0.141 A  
HETATM    8  C   UNL     1      -9.542   8.246  66.547  1.00  0.00    -0.312 A  
HETATM    9  N   UNL     1      -8.789   6.334  67.832  1.00  0.00    -0.113 NA 
HETATM   10  H1  UNL     1      -8.231   6.004  67.046  1.00  0.00     0.000 HD 
HETATM   11  C   UNL     1     -10.256   9.442  66.441  1.00  0.00    -0.300 A  
HETATM   12  H2  UNL     1      -9.471   5.611  68.064  1.00  0.00     0.000 HD 
HETATM   13  C   UNL     1     -10.930   9.949  67.555  1.00  0.00    -0.239 A  
HETATM   14  C   UNL     1     -10.934   9.224  68.753  1.00  0.00    -0.047 A  
BRANCH  13  15
HETATM   15  C   UNL     1     -11.506  11.318  67.475  1.00  0.00    -0.246 C  
HETATM   16  O   UNL     1     -11.725  11.909  66.432  1.00  0.00    -0.522 OA 
BRANCH  15  17
HETATM   17  O   UNL     1     -11.571  11.846  68.720  1.00  0.00    -0.258 OA 
BRANCH  17  18
HETATM   18  C   UNL     1     -11.933  13.237  68.762  1.00  0.00    -0.300 C  
BRANCH  18  19
HETATM   19  C   UNL     1     -12.043  13.629  70.251  1.00  0.00    -0.357 C  
BRANCH  19  20
HETATM   20  N   UNL     1     -12.800  14.853  70.569  1.00  0.00    -0.347 NA 
BRANCH  20  21
HETATM   21  C   UNL     1     -13.921  14.624  71.491  1.00  0.00    -0.438 C  
HETATM   22  C   UNL     1     -13.842  13.366  72.351  1.00  0.00    -0.665 C  
ENDBRANCH  20  21
BRANCH  20  23
HETATM   23  C   UNL     1     -11.860  15.901  71.009  1.00  0.00    -0.428 C  
HETATM   24  C   UNL     1     -10.941  16.424  69.912  1.00  0.00    -0.339 C  
ENDBRANCH  20  23
ENDBRANCH  19  20
ENDBRANCH  18  19
ENDBRANCH  17  18
ENDBRANCH  15  17
ENDBRANCH  13  15
ENDBRANCH   5   6
ENDBRANCH   4   5
ENDBRANCH   3   4
ENDBRANCH   2   3
TORSDOF 11
ENDMDL
MODEL      138
REMARK 921   NORMALIZED FREE ENERGY PREDICTED BY IDOCK:   -4.02 KCAL/MOL
REMARK 922        TOTAL FREE ENERGY PREDICTED BY IDOCK:   -7.62 KCAL/MOL
REMARK 923 INTER-LIGAND FREE ENERGY PREDICTED BY IDOCK:   -7.05 KCAL/MOL
REMARK 924 INTRA-LIGAND FREE ENERGY PREDICTED BY IDOCK:   -0.57 KCAL/MOL
REMARK 927      BINDING AFFINITY PREDICTED BY RF-SCORE:    0.00 PKD
ROOT
HETATM    1  C   UNL     1     -10.401   4.497  72.502  1.00  0.00    -0.257 C  
HETATM    2  C   UNL     1      -9.901   4.234  71.091  1.00  0.00    -0.250 C  
ENDROOT
BRANCH   2   3
HETATM    3  C   UNL     1      -9.339   5.506  70.459  1.00  0.00    -0.195 C  
BRANCH   3   4
HETATM    4  C   UNL     1     -10.421   6.562  70.273  1.00  0.00    -0.216 C  
BRANCH   4   5
HETATM    5  O   UNL     1     -10.084   7.698  71.077  1.00  0.00    -0.190 OA 
BRANCH   5   6
HETATM    6  C   UNL     1     -10.946   8.763  70.962  1.00  0.00    -0.268 A  
HETATM    7  C   UNL     1     -11.980   8.847  71.915  1.00  0.00    -0.371 A  
HETATM    8  C   UNL     1     -12.833   9.956  71.895  1.00  0.00    -0.524 A  
HETATM    9  N   UNL     1     -12.029   7.954  73.000  1.00  0.00    -0.646 NA 
HETATM   10  H1  UNL     1     -12.777   8.015  73.690  1.00  0.00     0.000 HD 
HETATM   11  C   UNL     1     -12.762  10.892  70.861  1.00  0.00    -0.464 A  
HETATM   12  H2  UNL     1     -11.137   8.002  73.493  1.00  0.00     0.000 HD 
HETATM   13  C   UNL     1     -11.805  10.744  69.854  1.00  0.00    -0.413 A  
HETATM   14  C   UNL     1     -10.884   9.690  69.922  1.00  0.00    -0.287 A  
BRANCH  13  15
HETATM   15  C   UNL     1     -11.883  11.630  68.662  1.00  0.00    -0.308 C  
HETATM   16  O   UNL     1     -12.004  11.230  67.518  1.00  0.00    -0.612 OA 
BRANCH  15  17
HETATM   17  O   UNL     1     -11.622  12.905  69.039  1.00  0.00    -0.282 OA 
BRANCH  17  18
HETATM   18  C   UNL     1     -10.760  13.628  68.144  1.00  0.00    -0.248 C  
BRANCH  18  19
HETATM   19  C   UNL     1     -10.847  15.117  68.539  1.00  0.00    -0.247 C  
BRANCH  19  20
HETATM   20  N   UNL     1      -9.668  15.956  68.263  1.00  0.00    -0.207 NA 
BRANCH  20  21
HETATM   21  C   UNL     1      -8.591  15.795  69.250  1.00  0.00    -0.259 C  
HETATM   22  C   UNL     1      -7.287  16.528  68.953  1.00  0.00    -0.219 C  
ENDBRANCH  20  21
BRANCH  20  23
HETATM   23  C   UNL     1      -9.243  15.748  66.866  1.00  0.00    -0.229 C  
HETATM   24  C   UNL     1     -10.068  16.510  65.836  1.00  0.00    -0.359 C  
ENDBRANCH  20  23
ENDBRANCH  19  20
ENDBRANCH  18  19
ENDBRANCH  17  18
ENDBRANCH  15  17
ENDBRANCH  13  15
ENDBRANCH   5   6
ENDBRANCH   4   5
ENDBRANCH   3   4
ENDBRANCH   2   3
TORSDOF 11
ENDMDL
MODEL      139
REMARK 921   NORMALIZED FREE ENERGY PREDICTED BY IDOCK:   -4.02 KCAL/MOL
REMARK 922        TOTAL FREE ENERGY PREDICTED BY IDOCK:   -7.61 KCAL/MOL
REMARK 923 INTER-LIGAND FREE ENERGY PREDICTED BY IDOCK:   -6.29 KCAL/MOL
REMARK 924 INTRA-LIGAND FREE ENERGY PREDICTED BY IDOCK:   -1.32 KCAL/MOL
REMARK 927      BINDING AFFINITY PREDICTED BY RF-SCORE:    0.00 PKD
ROOT
HETATM    1  C   UNL     1     -12.347  11.175  70.777  1.00  0.00    -0.504 C  
HETATM    2  C   UNL     1     -12.880  10.015  71.602  1.00  0.00    -0.543 C  
ENDROOT
BRANCH   2   3
HETATM    3  C   UNL     1     -12.020   8.766  71.418  1.00  0.00    -0.367 C  
BRANCH   3   4
HETATM    4  C   UNL     1     -10.567   9.126  71.137  1.00  0.00    -0.309 C  
BRANCH   4   5
HETATM    5  O   UNL     1     -10.118   8.349  70.020  1.00  0.00    -0.186 OA 
BRANCH   5   6
HETATM    6  C   UNL     1      -9.903   9.064  68.866  1.00  0.00    -0.175 A  
HETATM    7  C   UNL     1     -10.363   8.486  67.667  1.00  0.00    -0.253 A  
HETATM    8  C   UNL     1     -10.246   9.210  66.476  1.00  0.00    -0.322 A  
HETATM    9  N   UNL     1     -11.122   7.302  67.688  1.00  0.00    -0.543 NA 
HETATM   10  H1  UNL     1     -11.455   6.883  66.820  1.00  0.00     0.000 HD 
HETATM   11  C   UNL     1      -9.551  10.421  66.442  1.00  0.00    -0.225 A  
HETATM   12  H2  UNL     1     -11.924   7.447  68.300  1.00  0.00     0.000 HD 
HETATM   13  C   UNL     1      -8.999  10.938  67.617  1.00  0.00    -0.140 A  
HETATM   14  C   UNL     1      -9.197  10.267  68.830  1.00  0.00    -0.176 A  
BRANCH  13  15
HETATM   15  C   UNL     1      -8.093  12.113  67.519  1.00  0.00    -0.163 C  
HETATM   16  O   UNL     1      -6.997  12.091  66.989  1.00  0.00    -0.142 OA 
BRANCH  15  17
HETATM   17  O   UNL     1      -8.602  13.129  68.258  1.00  0.00    -0.173 OA 
BRANCH  17  18
HETATM   18  C   UNL     1      -8.786  14.359  67.537  1.00  0.00    -0.193 C  
BRANCH  18  19
HETATM   19  C   UNL     1      -9.445  15.357  68.512  1.00  0.00    -0.202 C  
BRANCH  19  20
HETATM   20  N   UNL     1     -10.917  15.418  68.520  1.00  0.00    -0.265 NA 
BRANCH  20  21
HETATM   21  C   UNL     1     -11.531  14.866  67.303  1.00  0.00    -0.340 C  
HETATM   22  C   UNL     1     -12.078  13.446  67.407  1.00  0.00    -0.338 C  
ENDBRANCH  20  21
BRANCH  20  23
HETATM   23  C   UNL     1     -11.419  14.823  69.773  1.00  0.00    -0.291 C  
HETATM   24  C   UNL     1     -12.518  15.627  70.457  1.00  0.00    -0.440 C  
ENDBRANCH  20  23
ENDBRANCH  19  20
ENDBRANCH  18  19
ENDBRANCH  17  18
ENDBRANCH  15  17
ENDBRANCH  13  15
ENDBRANCH   5   6
ENDBRANCH   4   5
ENDBRANCH   3   4
ENDBRANCH   2   3
TORSDOF 11
ENDMDL
MODEL      140
REMARK 921   NORMALIZED FREE ENERGY PREDICTED BY IDOCK:   -4.00 KCAL/MOL
REMARK 922        TOTAL FREE ENERGY PREDICTED BY IDOCK:   -7.59 KCAL/MOL
REMARK 923 INTER-LIGAND FREE ENERGY PREDICTED BY IDOCK:   -6.82 KCAL/MOL
REMARK 924 INTRA-LIGAND FREE ENERGY PREDICTED BY IDOCK:   -0.77 KCAL/MOL
REMARK 927      BINDING AFFINITY PREDICTED BY RF-SCORE:    0.00 PKD
ROOT
HETATM    1  C   UNL     1     -14.076  13.849  72.020  1.00  0.00    -0.568 C  
HETATM    2  C   UNL     1     -14.038  15.257  72.591  1.00  0.00    -0.476 C  
ENDROOT
BRANCH   2   3
HETATM    3  C   UNL     1     -12.639  15.860  72.481  1.00  0.00    -0.545 C  
BRANCH   3   4
HETATM    4  C   UNL     1     -11.784  15.106  71.471  1.00  0.00    -0.390 C  
BRANCH   4   5
HETATM    5  O   UNL     1     -11.913  15.754  70.200  1.00  0.00    -0.353 OA 
BRANCH   5   6
HETATM    6  C   UNL     1     -11.339  15.081  69.147  1.00  0.00    -0.296 A  
HETATM    7  C   UNL     1     -10.684  15.864  68.176  1.00  0.00    -0.302 A  
HETATM    8  C   UNL     1     -10.012  15.224  67.129  1.00  0.00    -0.233 A  
HETATM    9  N   UNL     1     -10.520  17.248  68.364  1.00  0.00    -0.365 NA 
HETATM   10  H1  UNL     1     -10.046  17.815  67.661  1.00  0.00     0.000 HD 
HETATM   11  C   UNL     1     -10.108  13.842  66.959  1.00  0.00    -0.256 A  
HETATM   12  H2  UNL     1     -10.054  17.395  69.259  1.00  0.00     0.000 HD 
HETATM   13  C   UNL     1     -10.852  13.080  67.863  1.00  0.00    -0.260 A  
HETATM   14  C   UNL     1     -11.447  13.702  68.968  1.00  0.00    -0.346 A  
BRANCH  13  15
HETATM   15  C   UNL     1     -11.110  11.650  67.546  1.00  0.00    -0.276 C  
HETATM   16  O   UNL     1     -12.130  11.055  67.843  1.00  0.00    -0.600 OA 
BRANCH  15  17
HETATM   17  O   UNL     1      -9.978  11.095  67.049  1.00  0.00    -0.186 OA 
BRANCH  17  18
HETATM   18  C   UNL     1     -10.177  10.265  65.892  1.00  0.00    -0.223 C  
BRANCH  18  19
HETATM   19  C   UNL     1      -9.136   9.129  65.969  1.00  0.00    -0.197 C  
BRANCH  19  20
HETATM   20  N   UNL     1      -9.074   8.357  67.223  1.00  0.00    -0.135 NA 
BRANCH  20  21
HETATM   21  C   UNL     1      -9.450   6.945  67.059  1.00  0.00    -0.151 C  
HETATM   22  C   UNL     1     -10.942   6.632  67.121  1.00  0.00    -0.478 C  
ENDBRANCH  20  21
BRANCH  20  23
HETATM   23  C   UNL     1      -7.756   8.562  67.852  1.00  0.00    -0.103 C  
HETATM   24  C   UNL     1      -6.981   7.279  68.123  1.00  0.00    -0.076 C  
ENDBRANCH  20  23
ENDBRANCH  19  20
ENDBRANCH  18  19
ENDBRANCH  17  18
ENDBRANCH  15  17
ENDBRANCH  13  15
ENDBRANCH   5   6
ENDBRANCH   4   5
ENDBRANCH   3   4
ENDBRANCH   2   3
TORSDOF 11
ENDMDL
MODEL      141
REMARK 921   NORMALIZED FREE ENERGY PREDICTED BY IDOCK:   -3.98 KCAL/MOL
REMARK 922        TOTAL FREE ENERGY PREDICTED BY IDOCK:   -7.55 KCAL/MOL
REMARK 923 INTER-LIGAND FREE ENERGY PREDICTED BY IDOCK:   -6.55 KCAL/MOL
REMARK 924 INTRA-LIGAND FREE ENERGY PREDICTED BY IDOCK:   -1.00 KCAL/MOL
REMARK 927      BINDING AFFINITY PREDICTED BY RF-SCORE:    0.00 PKD
ROOT
HETATM    1  C   UNL     1     -10.824   5.879  66.916  1.00  0.00    -0.376 C  
HETATM    2  C   UNL     1     -10.750   7.383  67.125  1.00  0.00    -0.400 C  
ENDROOT
BRANCH   2   3
HETATM    3  C   UNL     1      -9.374   7.926  66.744  1.00  0.00    -0.232 C  
BRANCH   3   4
HETATM    4  C   UNL     1      -9.411   9.434  66.526  1.00  0.00    -0.171 C  
BRANCH   4   5
HETATM    5  O   UNL     1      -9.644  10.066  67.790  1.00  0.00    -0.146 OA 
BRANCH   5   6
HETATM    6  C   UNL     1     -10.280  11.283  67.719  1.00  0.00    -0.180 A  
HETATM    7  C   UNL     1     -11.055  11.658  68.833  1.00  0.00    -0.232 A  
HETATM    8  C   UNL     1     -11.655  12.922  68.848  1.00  0.00    -0.360 A  
HETATM    9  N   UNL     1     -11.055  10.876  70.003  1.00  0.00    -0.426 NA 
HETATM   10  H1  UNL     1     -11.616  11.148  70.809  1.00  0.00     0.000 HD 
HETATM   11  C   UNL     1     -11.614  13.744  67.720  1.00  0.00    -0.381 A  
HETATM   12  H2  UNL     1     -10.089  10.763  70.310  1.00  0.00     0.000 HD 
HETATM   13  C   UNL     1     -10.936  13.320  66.575  1.00  0.00    -0.299 A  
HETATM   14  C   UNL     1     -10.251  12.098  66.587  1.00  0.00    -0.223 A  
BRANCH  13  15
HETATM   15  C   UNL     1     -11.082  14.114  65.326  1.00  0.00    -0.331 C  
HETATM   16  O   UNL     1     -10.826  13.693  64.212  1.00  0.00    -0.388 OA 
BRANCH  15  17
HETATM   17  O   UNL     1     -11.363  15.400  65.649  1.00  0.00    -0.263 OA 
BRANCH  17  18
HETATM   18  C   UNL     1     -10.224  16.277  65.659  1.00  0.00    -0.343 C  
BRANCH  18  19
HETATM   19  C   UNL     1     -10.469  17.319  66.770  1.00  0.00    -0.261 C  
BRANCH  19  20
HETATM   20  N   UNL     1      -9.372  17.551  67.727  1.00  0.00    -0.254 NA 
BRANCH  20  21
HETATM   21  C   UNL     1      -9.161  18.971  68.041  1.00  0.00    -0.310 C  
HETATM   22  C   UNL     1      -9.303  19.948  66.879  1.00  0.00    -0.493 C  
ENDBRANCH  20  21
BRANCH  20  23
HETATM   23  C   UNL     1      -9.575  16.694  68.910  1.00  0.00    -0.252 C  
HETATM   24  C   UNL     1      -8.646  15.487  68.980  1.00  0.00    -0.234 C  
ENDBRANCH  20  23
ENDBRANCH  19  20
ENDBRANCH  18  19
ENDBRANCH  17  18
ENDBRANCH  15  17
ENDBRANCH  13  15
ENDBRANCH   5   6
ENDBRANCH   4   5
ENDBRANCH   3   4
ENDBRANCH   2   3
TORSDOF 11
ENDMDL
MODEL      142
REMARK 921   NORMALIZED FREE ENERGY PREDICTED BY IDOCK:   -3.97 KCAL/MOL
REMARK 922        TOTAL FREE ENERGY PREDICTED BY IDOCK:   -7.53 KCAL/MOL
REMARK 923 INTER-LIGAND FREE ENERGY PREDICTED BY IDOCK:   -6.43 KCAL/MOL
REMARK 924 INTRA-LIGAND FREE ENERGY PREDICTED BY IDOCK:   -1.11 KCAL/MOL
REMARK 927      BINDING AFFINITY PREDICTED BY RF-SCORE:    0.00 PKD
ROOT
HETATM    1  C   UNL     1     -10.561  19.490  66.634  1.00  0.00    -0.583 C  
HETATM    2  C   UNL     1      -9.441  20.312  67.249  1.00  0.00    -0.557 C  
ENDROOT
BRANCH   2   3
HETATM    3  C   UNL     1      -8.108  20.035  66.557  1.00  0.00    -0.346 C  
BRANCH   3   4
HETATM    4  C   UNL     1      -6.981  19.861  67.567  1.00  0.00    -0.238 C  
BRANCH   4   5
HETATM    5  O   UNL     1      -7.504  19.180  68.714  1.00  0.00    -0.320 OA 
BRANCH   5   6
HETATM    6  C   UNL     1      -7.285  17.822  68.730  1.00  0.00    -0.271 A  
HETATM    7  C   UNL     1      -6.113  17.378  69.372  1.00  0.00    -0.244 A  
HETATM    8  C   UNL     1      -5.885  16.003  69.491  1.00  0.00    -0.140 A  
HETATM    9  N   UNL     1      -5.292  18.281  70.071  1.00  0.00    -0.218 NA 
HETATM   10  H1  UNL     1      -4.444  17.959  70.536  1.00  0.00     0.000 HD 
HETATM   11  C   UNL     1      -6.723  15.083  68.858  1.00  0.00    -0.099 A  
HETATM   12  H2  UNL     1      -5.867  18.767  70.759  1.00  0.00     0.000 HD 
HETATM   13  C   UNL     1      -7.825  15.535  68.128  1.00  0.00    -0.129 A  
HETATM   14  C   UNL     1      -8.115  16.905  68.086  1.00  0.00    -0.201 A  
BRANCH  13  15
HETATM   15  C   UNL     1      -8.577  14.557  67.296  1.00  0.00    -0.215 C  
HETATM   16  O   UNL     1      -9.078  14.818  66.217  1.00  0.00    -0.269 OA 
BRANCH  15  17
HETATM   17  O   UNL     1      -8.760  13.418  68.007  1.00  0.00    -0.162 OA 
BRANCH  17  18
HETATM   18  C   UNL     1      -9.365  12.344  67.268  1.00  0.00    -0.184 C  
BRANCH  18  19
HETATM   19  C   UNL     1     -10.728  12.054  67.932  1.00  0.00    -0.210 C  
BRANCH  19  20
HETATM   20  N   UNL     1     -11.917  12.683  67.330  1.00  0.00    -0.467 NA 
BRANCH  20  21
HETATM   21  C   UNL     1     -12.127  14.071  67.766  1.00  0.00    -0.290 C  
HETATM   22  C   UNL     1     -11.812  14.376  69.227  1.00  0.00    -0.365 C  
ENDBRANCH  20  21
BRANCH  20  23
HETATM   23  C   UNL     1     -11.865  12.511  65.866  1.00  0.00    -0.430 C  
HETATM   24  C   UNL     1     -12.644  13.559  65.081  1.00  0.00    -0.485 C  
ENDBRANCH  20  23
ENDBRANCH  19  20
ENDBRANCH  18  19
ENDBRANCH  17  18
ENDBRANCH  15  17
ENDBRANCH  13  15
ENDBRANCH   5   6
ENDBRANCH   4   5
ENDBRANCH   3   4
ENDBRANCH   2   3
TORSDOF 11
ENDMDL
MODEL      143
REMARK 921   NORMALIZED FREE ENERGY PREDICTED BY IDOCK:   -3.96 KCAL/MOL
REMARK 922        TOTAL FREE ENERGY PREDICTED BY IDOCK:   -7.52 KCAL/MOL
REMARK 923 INTER-LIGAND FREE ENERGY PREDICTED BY IDOCK:   -6.53 KCAL/MOL
REMARK 924 INTRA-LIGAND FREE ENERGY PREDICTED BY IDOCK:   -0.98 KCAL/MOL
REMARK 927      BINDING AFFINITY PREDICTED BY RF-SCORE:    0.00 PKD
ROOT
HETATM    1  C   UNL     1     -10.958  15.143  65.030  1.00  0.00    -0.443 C  
HETATM    2  C   UNL     1     -12.240  14.586  64.434  1.00  0.00    -0.480 C  
ENDROOT
BRANCH   2   3
HETATM    3  C   UNL     1     -12.634  13.270  65.101  1.00  0.00    -0.512 C  
BRANCH   3   4
HETATM    4  C   UNL     1     -11.529  12.756  66.015  1.00  0.00    -0.350 C  
BRANCH   4   5
HETATM    5  O   UNL     1     -12.058  12.643  67.341  1.00  0.00    -0.432 OA 
BRANCH   5   6
HETATM    6  C   UNL     1     -11.589  11.569  68.061  1.00  0.00    -0.300 A  
HETATM    7  C   UNL     1     -11.561  11.710  69.462  1.00  0.00    -0.331 A  
HETATM    8  C   UNL     1     -11.173  10.618  70.246  1.00  0.00    -0.365 A  
HETATM    9  N   UNL     1     -12.116  12.845  70.080  1.00  0.00    -0.367 NA 
HETATM   10  H1  UNL     1     -12.096  12.947  71.094  1.00  0.00     0.000 HD 
HETATM   11  C   UNL     1     -10.678   9.454  69.653  1.00  0.00    -0.251 A  
HETATM   12  H2  UNL     1     -13.083  12.936  69.770  1.00  0.00     0.000 HD 
HETATM   13  C   UNL     1     -10.603   9.361  68.261  1.00  0.00    -0.256 A  
HETATM   14  C   UNL     1     -11.081  10.413  67.469  1.00  0.00    -0.336 A  
BRANCH  13  15
HETATM   15  C   UNL     1      -9.885   8.204  67.664  1.00  0.00    -0.169 C  
HETATM   16  O   UNL     1      -8.878   8.300  66.983  1.00  0.00    -0.130 OA 
BRANCH  15  17
HETATM   17  O   UNL     1     -10.621   7.082  67.846  1.00  0.00    -0.197 OA 
BRANCH  17  18
HETATM   18  C   UNL     1      -9.884   5.961  68.366  1.00  0.00    -0.134 C  
BRANCH  18  19
HETATM   19  C   UNL     1     -10.629   5.480  69.628  1.00  0.00    -0.305 C  
BRANCH  19  20
HETATM   20  N   UNL     1     -10.200   6.047  70.919  1.00  0.00    -0.199 NA 
BRANCH  20  21
HETATM   21  C   UNL     1     -11.321   6.444  71.784  1.00  0.00    -0.289 C  
HETATM   22  C   UNL     1     -11.013   7.488  72.852  1.00  0.00    -0.434 C  
ENDBRANCH  20  21
BRANCH  20  23
HETATM   23  C   UNL     1      -9.241   5.126  71.557  1.00  0.00    -0.146 C  
HETATM   24  C   UNL     1      -7.916   5.770  71.950  1.00  0.00    -0.107 C  
ENDBRANCH  20  23
ENDBRANCH  19  20
ENDBRANCH  18  19
ENDBRANCH  17  18
ENDBRANCH  15  17
ENDBRANCH  13  15
ENDBRANCH   5   6
ENDBRANCH   4   5
ENDBRANCH   3   4
ENDBRANCH   2   3
TORSDOF 11
ENDMDL
MODEL      144
REMARK 921   NORMALIZED FREE ENERGY PREDICTED BY IDOCK:   -3.96 KCAL/MOL
REMARK 922        TOTAL FREE ENERGY PREDICTED BY IDOCK:   -7.51 KCAL/MOL
REMARK 923 INTER-LIGAND FREE ENERGY PREDICTED BY IDOCK:   -6.50 KCAL/MOL
REMARK 924 INTRA-LIGAND FREE ENERGY PREDICTED BY IDOCK:   -1.02 KCAL/MOL
REMARK 927      BINDING AFFINITY PREDICTED BY RF-SCORE:    0.00 PKD
ROOT
HETATM    1  C   UNL     1     -11.150  11.726  63.577  1.00  0.00    -0.503 C  
HETATM    2  C   UNL     1     -12.359  12.255  64.330  1.00  0.00    -0.519 C  
ENDROOT
BRANCH   2   3
HETATM    3  C   UNL     1     -12.035  12.486  65.804  1.00  0.00    -0.482 C  
BRANCH   3   4
HETATM    4  C   UNL     1     -10.999  11.490  66.311  1.00  0.00    -0.275 C  
BRANCH   4   5
HETATM    5  O   UNL     1     -10.905  11.623  67.734  1.00  0.00    -0.197 OA 
BRANCH   5   6
HETATM    6  C   UNL     1     -10.202  12.722  68.167  1.00  0.00    -0.241 A  
HETATM    7  C   UNL     1      -8.797  12.617  68.163  1.00  0.00    -0.194 A  
HETATM    8  C   UNL     1      -8.033  13.735  68.513  1.00  0.00    -0.131 A  
HETATM    9  N   UNL     1      -8.164  11.489  67.611  1.00  0.00    -0.126 NA 
HETATM   10  H1  UNL     1      -7.148  11.413  67.608  1.00  0.00     0.000 HD 
HETATM   11  C   UNL     1      -8.643  14.892  69.004  1.00  0.00    -0.170 A  
HETATM   12  H2  UNL     1      -8.496  11.374  66.653  1.00  0.00     0.000 HD 
HETATM   13  C   UNL     1     -10.034  14.951  69.111  1.00  0.00    -0.213 A  
HETATM   14  C   UNL     1     -10.811  13.872  68.670  1.00  0.00    -0.278 A  
BRANCH  13  15
HETATM   15  C   UNL     1     -10.644  16.105  69.826  1.00  0.00    -0.312 C  
HETATM   16  O   UNL     1     -11.412  16.000  70.766  1.00  0.00    -0.373 OA 
BRANCH  15  17
HETATM   17  O   UNL     1     -10.351  17.246  69.156  1.00  0.00    -0.330 OA 
BRANCH  17  18
HETATM   18  C   UNL     1     -11.030  17.390  67.897  1.00  0.00    -0.155 C  
BRANCH  18  19
HETATM   19  C   UNL     1     -10.021  18.018  66.912  1.00  0.00    -0.340 C  
BRANCH  19  20
HETATM   20  N   UNL     1      -9.458  17.136  65.874  1.00  0.00    -0.523 NA 
BRANCH  20  21
HETATM   21  C   UNL     1      -8.059  16.760  66.123  1.00  0.00    -0.258 C  
HETATM   22  C   UNL     1      -7.276  17.660  67.074  1.00  0.00    -0.212 C  
ENDBRANCH  20  21
BRANCH  20  23
HETATM   23  C   UNL     1     -10.364  15.991  65.669  1.00  0.00    -0.392 C  
HETATM   24  C   UNL     1     -11.330  16.153  64.501  1.00  0.00    -0.273 C  
ENDBRANCH  20  23
ENDBRANCH  19  20
ENDBRANCH  18  19
ENDBRANCH  17  18
ENDBRANCH  15  17
ENDBRANCH  13  15
ENDBRANCH   5   6
ENDBRANCH   4   5
ENDBRANCH   3   4
ENDBRANCH   2   3
TORSDOF 11
ENDMDL
MODEL      145
REMARK 921   NORMALIZED FREE ENERGY PREDICTED BY IDOCK:   -3.96 KCAL/MOL
REMARK 922        TOTAL FREE ENERGY PREDICTED BY IDOCK:   -7.51 KCAL/MOL
REMARK 923 INTER-LIGAND FREE ENERGY PREDICTED BY IDOCK:   -6.34 KCAL/MOL
REMARK 924 INTRA-LIGAND FREE ENERGY PREDICTED BY IDOCK:   -1.18 KCAL/MOL
REMARK 927      BINDING AFFINITY PREDICTED BY RF-SCORE:    0.00 PKD
ROOT
HETATM    1  C   UNL     1     -13.803   7.493  71.578  1.00  0.00    -0.487 C  
HETATM    2  C   UNL     1     -12.310   7.481  71.293  1.00  0.00    -0.356 C  
ENDROOT
BRANCH   2   3
HETATM    3  C   UNL     1     -11.777   8.895  71.073  1.00  0.00    -0.340 C  
BRANCH   3   4
HETATM    4  C   UNL     1     -10.555   8.896  70.165  1.00  0.00    -0.222 C  
BRANCH   4   5
HETATM    5  O   UNL     1     -10.165  10.255  69.936  1.00  0.00    -0.246 OA 
BRANCH   5   6
HETATM    6  C   UNL     1      -9.820  10.547  68.637  1.00  0.00    -0.178 A  
HETATM    7  C   UNL     1      -8.444  10.568  68.336  1.00  0.00    -0.128 A  
HETATM    8  C   UNL     1      -8.042  10.776  67.013  1.00  0.00    -0.124 A  
HETATM    9  N   UNL     1      -7.495  10.174  69.296  1.00  0.00    -0.099 NA 
HETATM   10  H1  UNL     1      -6.499  10.190  69.079  1.00  0.00     0.000 HD 
HETATM   11  C   UNL     1      -8.975  11.106  66.027  1.00  0.00    -0.210 A  
HETATM   12  H2  UNL     1      -7.736   9.237  69.618  1.00  0.00     0.000 HD 
HETATM   13  C   UNL     1     -10.330  11.193  66.355  1.00  0.00    -0.300 A  
HETATM   14  C   UNL     1     -10.750  10.891  67.656  1.00  0.00    -0.288 A  
BRANCH  13  15
HETATM   15  C   UNL     1     -11.272  11.745  65.344  1.00  0.00    -0.251 C  
HETATM   16  O   UNL     1     -11.057  11.764  64.145  1.00  0.00    -0.332 OA 
BRANCH  15  17
HETATM   17  O   UNL     1     -12.293  12.368  65.982  1.00  0.00    -0.627 OA 
BRANCH  17  18
HETATM   18  C   UNL     1     -12.269  13.803  65.889  1.00  0.00    -0.466 C  
BRANCH  18  19
HETATM   19  C   UNL     1     -12.146  14.344  67.329  1.00  0.00    -0.323 C  
BRANCH  19  20
HETATM   20  N   UNL     1     -10.787  14.460  67.889  1.00  0.00    -0.247 NA 
BRANCH  20  21
HETATM   21  C   UNL     1      -9.850  15.167  67.005  1.00  0.00    -0.230 C  
HETATM   22  C   UNL     1      -8.412  14.658  67.000  1.00  0.00    -0.237 C  
ENDBRANCH  20  21
BRANCH  20  23
HETATM   23  C   UNL     1     -10.872  15.019  69.251  1.00  0.00    -0.261 C  
HETATM   24  C   UNL     1     -12.190  14.742  69.964  1.00  0.00    -0.383 C  
ENDBRANCH  20  23
ENDBRANCH  19  20
ENDBRANCH  18  19
ENDBRANCH  17  18
ENDBRANCH  15  17
ENDBRANCH  13  15
ENDBRANCH   5   6
ENDBRANCH   4   5
ENDBRANCH   3   4
ENDBRANCH   2   3
TORSDOF 11
ENDMDL
MODEL      146
REMARK 921   NORMALIZED FREE ENERGY PREDICTED BY IDOCK:   -3.95 KCAL/MOL
REMARK 922        TOTAL FREE ENERGY PREDICTED BY IDOCK:   -7.50 KCAL/MOL
REMARK 923 INTER-LIGAND FREE ENERGY PREDICTED BY IDOCK:   -6.59 KCAL/MOL
REMARK 924 INTRA-LIGAND FREE ENERGY PREDICTED BY IDOCK:   -0.91 KCAL/MOL
REMARK 927      BINDING AFFINITY PREDICTED BY RF-SCORE:    0.00 PKD
ROOT
HETATM    1  C   UNL     1     -10.934  16.018  65.209  1.00  0.00    -0.309 C  
HETATM    2  C   UNL     1     -12.074  15.302  64.504  1.00  0.00    -0.252 C  
ENDROOT
BRANCH   2   3
HETATM    3  C   UNL     1     -12.782  14.330  65.445  1.00  0.00    -0.385 C  
BRANCH   3   4
HETATM    4  C   UNL     1     -12.780  12.912  64.889  1.00  0.00    -0.403 C  
BRANCH   4   5
HETATM    5  O   UNL     1     -11.490  12.653  64.320  1.00  0.00    -0.321 OA 
BRANCH   5   6
HETATM    6  C   UNL     1     -10.760  11.680  64.961  1.00  0.00    -0.296 A  
HETATM    7  C   UNL     1     -10.014  10.808  64.145  1.00  0.00    -0.343 A  
HETATM    8  C   UNL     1      -9.189   9.853  64.749  1.00  0.00    -0.309 A  
HETATM    9  N   UNL     1      -9.925  11.024  62.758  1.00  0.00    -0.616 NA 
HETATM   10  H1  UNL     1      -9.385  10.393  62.167  1.00  0.00     0.000 HD 
HETATM   11  C   UNL     1      -9.212   9.663  66.132  1.00  0.00    -0.222 A  
HETATM   12  H2  UNL     1      -9.586  11.973  62.604  1.00  0.00     0.000 HD 
HETATM   13  C   UNL     1     -10.039  10.458  66.929  1.00  0.00    -0.269 A  
HETATM   14  C   UNL     1     -10.795  11.480  66.341  1.00  0.00    -0.334 A  
BRANCH  13  15
HETATM   15  C   UNL     1     -10.202  10.100  68.364  1.00  0.00    -0.169 C  
HETATM   16  O   UNL     1     -10.674  10.843  69.206  1.00  0.00    -0.214 OA 
BRANCH  15  17
HETATM   17  O   UNL     1      -9.586   8.917  68.599  1.00  0.00    -0.150 OA 
BRANCH  17  18
HETATM   18  C   UNL     1     -10.457   7.871  69.062  1.00  0.00    -0.198 C  
BRANCH  18  19
HETATM   19  C   UNL     1     -10.100   7.609  70.540  1.00  0.00    -0.189 C  
BRANCH  19  20
HETATM   20  N   UNL     1     -11.217   7.349  71.466  1.00  0.00    -0.240 NA 
BRANCH  20  21
HETATM   21  C   UNL     1     -10.839   7.457  72.882  1.00  0.00    -0.354 C  
HETATM   22  C   UNL     1      -9.398   7.867  73.167  1.00  0.00    -0.337 C  
ENDBRANCH  20  21
BRANCH  20  23
HETATM   23  C   UNL     1     -12.368   8.186  71.081  1.00  0.00    -0.214 C  
HETATM   24  C   UNL     1     -12.497   9.482  71.873  1.00  0.00    -0.465 C  
ENDBRANCH  20  23
ENDBRANCH  19  20
ENDBRANCH  18  19
ENDBRANCH  17  18
ENDBRANCH  15  17
ENDBRANCH  13  15
ENDBRANCH   5   6
ENDBRANCH   4   5
ENDBRANCH   3   4
ENDBRANCH   2   3
TORSDOF 11
ENDMDL
MODEL      147
REMARK 921   NORMALIZED FREE ENERGY PREDICTED BY IDOCK:   -3.94 KCAL/MOL
REMARK 922        TOTAL FREE ENERGY PREDICTED BY IDOCK:   -7.48 KCAL/MOL
REMARK 923 INTER-LIGAND FREE ENERGY PREDICTED BY IDOCK:   -6.08 KCAL/MOL
REMARK 924 INTRA-LIGAND FREE ENERGY PREDICTED BY IDOCK:   -1.40 KCAL/MOL
REMARK 927      BINDING AFFINITY PREDICTED BY RF-SCORE:    0.00 PKD
ROOT
HETATM    1  C   UNL     1      -6.889  10.215  64.893  1.00  0.00    -0.129 C  
HETATM    2  C   UNL     1      -7.493   9.702  63.597  1.00  0.00    -0.121 C  
ENDROOT
BRANCH   2   3
HETATM    3  C   UNL     1      -9.011   9.577  63.706  1.00  0.00    -0.211 C  
BRANCH   3   4
HETATM    4  C   UNL     1      -9.530  10.195  64.998  1.00  0.00    -0.271 C  
BRANCH   4   5
HETATM    5  O   UNL     1     -10.027   9.141  65.833  1.00  0.00    -0.295 OA 
BRANCH   5   6
HETATM    6  C   UNL     1      -9.942   9.385  67.183  1.00  0.00    -0.204 A  
HETATM    7  C   UNL     1      -8.977   8.652  67.900  1.00  0.00    -0.140 A  
HETATM    8  C   UNL     1      -8.792   8.922  69.260  1.00  0.00    -0.139 A  
HETATM    9  N   UNL     1      -8.064   7.819  67.228  1.00  0.00    -0.117 NA 
HETATM   10  H1  UNL     1      -7.365   7.289  67.746  1.00  0.00     0.000 HD 
HETATM   11  C   UNL     1      -9.646   9.795  69.937  1.00  0.00    -0.269 A  
HETATM   12  H2  UNL     1      -7.582   8.378  66.523  1.00  0.00     0.000 HD 
HETATM   13  C   UNL     1     -10.675  10.437  69.243  1.00  0.00    -0.270 A  
HETATM   14  C   UNL     1     -10.805  10.246  67.862  1.00  0.00    -0.337 A  
BRANCH  13  15
HETATM   15  C   UNL     1     -11.692  11.194  70.021  1.00  0.00    -0.356 C  
HETATM   16  O   UNL     1     -12.118  12.292  69.705  1.00  0.00    -0.287 OA 
BRANCH  15  17
HETATM   17  O   UNL     1     -11.919  10.557  71.194  1.00  0.00    -0.352 OA 
BRANCH  17  18
HETATM   18  C   UNL     1     -13.163   9.838  71.254  1.00  0.00    -0.373 C  
BRANCH  18  19
HETATM   19  C   UNL     1     -12.931   8.614  72.164  1.00  0.00    -0.387 C  
BRANCH  19  20
HETATM   20  N   UNL     1     -11.749   7.780  71.882  1.00  0.00    -0.279 NA 
BRANCH  20  21
HETATM   21  C   UNL     1     -10.981   7.429  73.084  1.00  0.00    -0.359 C  
HETATM   22  C   UNL     1      -9.548   7.949  73.147  1.00  0.00    -0.352 C  
ENDBRANCH  20  21
BRANCH  20  23
HETATM   23  C   UNL     1     -12.159   6.622  71.066  1.00  0.00    -0.327 C  
HETATM   24  C   UNL     1     -11.297   6.383  69.832  1.00  0.00    -0.500 C  
ENDBRANCH  20  23
ENDBRANCH  19  20
ENDBRANCH  18  19
ENDBRANCH  17  18
ENDBRANCH  15  17
ENDBRANCH  13  15
ENDBRANCH   5   6
ENDBRANCH   4   5
ENDBRANCH   3   4
ENDBRANCH   2   3
TORSDOF 11
ENDMDL
MODEL      148
REMARK 921   NORMALIZED FREE ENERGY PREDICTED BY IDOCK:   -3.94 KCAL/MOL
REMARK 922        TOTAL FREE ENERGY PREDICTED BY IDOCK:   -7.48 KCAL/MOL
REMARK 923 INTER-LIGAND FREE ENERGY PREDICTED BY IDOCK:   -7.16 KCAL/MOL
REMARK 924 INTRA-LIGAND FREE ENERGY PREDICTED BY IDOCK:   -0.32 KCAL/MOL
REMARK 927      BINDING AFFINITY PREDICTED BY RF-SCORE:    0.00 PKD
ROOT
HETATM    1  C   UNL     1      -7.575   9.543  70.575  1.00  0.00    -0.165 C  
HETATM    2  C   UNL     1      -8.829   8.874  70.037  1.00  0.00    -0.165 C  
ENDROOT
BRANCH   2   3
HETATM    3  C   UNL     1      -9.897   9.907  69.685  1.00  0.00    -0.255 C  
BRANCH   3   4
HETATM    4  C   UNL     1     -11.192   9.652  70.446  1.00  0.00    -0.283 C  
BRANCH   4   5
HETATM    5  O   UNL     1     -12.204  10.516  69.917  1.00  0.00    -0.281 OA 
BRANCH   5   6
HETATM    6  C   UNL     1     -12.382  11.691  70.610  1.00  0.00    -0.344 A  
HETATM    7  C   UNL     1     -13.189  11.630  71.762  1.00  0.00    -0.333 A  
HETATM    8  C   UNL     1     -13.335  12.776  72.551  1.00  0.00    -0.319 A  
HETATM    9  N   UNL     1     -13.667  10.395  72.239  1.00  0.00    -0.447 NA 
HETATM   10  H1  UNL     1     -14.251  10.351  73.073  1.00  0.00     0.000 HD 
HETATM   11  C   UNL     1     -12.814  14.002  72.130  1.00  0.00    -0.410 A  
HETATM   12  H2  UNL     1     -12.868   9.776  72.376  1.00  0.00     0.000 HD 
HETATM   13  C   UNL     1     -12.107  14.080  70.927  1.00  0.00    -0.404 A  
HETATM   14  C   UNL     1     -11.875  12.917  70.182  1.00  0.00    -0.319 A  
BRANCH  13  15
HETATM   15  C   UNL     1     -11.745  15.424  70.402  1.00  0.00    -0.319 C  
HETATM   16  O   UNL     1     -11.582  16.411  71.097  1.00  0.00    -0.400 OA 
BRANCH  15  17
HETATM   17  O   UNL     1     -11.807  15.403  69.048  1.00  0.00    -0.343 OA 
BRANCH  17  18
HETATM   18  C   UNL     1     -11.142  16.501  68.402  1.00  0.00    -0.333 C  
BRANCH  18  19
HETATM   19  C   UNL     1     -10.229  15.897  67.315  1.00  0.00    -0.278 C  
BRANCH  19  20
HETATM   20  N   UNL     1     -10.120  16.633  66.042  1.00  0.00    -0.368 NA 
BRANCH  20  21
HETATM   21  C   UNL     1     -10.751  15.940  64.910  1.00  0.00    -0.341 C  
HETATM   22  C   UNL     1     -10.852  14.422  65.020  1.00  0.00    -0.420 C  
ENDBRANCH  20  21
BRANCH  20  23
HETATM   23  C   UNL     1     -10.593  18.016  66.243  1.00  0.00    -0.253 C  
HETATM   24  C   UNL     1      -9.508  18.996  66.672  1.00  0.00    -0.375 C  
ENDBRANCH  20  23
ENDBRANCH  19  20
ENDBRANCH  18  19
ENDBRANCH  17  18
ENDBRANCH  15  17
ENDBRANCH  13  15
ENDBRANCH   5   6
ENDBRANCH   4   5
ENDBRANCH   3   4
ENDBRANCH   2   3
TORSDOF 11
ENDMDL
MODEL      149
REMARK 921   NORMALIZED FREE ENERGY PREDICTED BY IDOCK:   -3.92 KCAL/MOL
REMARK 922        TOTAL FREE ENERGY PREDICTED BY IDOCK:   -7.45 KCAL/MOL
REMARK 923 INTER-LIGAND FREE ENERGY PREDICTED BY IDOCK:   -6.76 KCAL/MOL
REMARK 924 INTRA-LIGAND FREE ENERGY PREDICTED BY IDOCK:   -0.69 KCAL/MOL
REMARK 927      BINDING AFFINITY PREDICTED BY RF-SCORE:    0.00 PKD
ROOT
HETATM    1  C   UNL     1      -6.988  10.662  69.771  1.00  0.00    -0.145 C  
HETATM    2  C   UNL     1      -7.014   9.576  68.709  1.00  0.00    -0.067 C  
ENDROOT
BRANCH   2   3
HETATM    3  C   UNL     1      -6.692  10.145  67.329  1.00  0.00    -0.073 C  
BRANCH   3   4
HETATM    4  C   UNL     1      -7.719  11.186  66.901  1.00  0.00    -0.148 C  
BRANCH   4   5
HETATM    5  O   UNL     1      -8.958  10.516  66.642  1.00  0.00    -0.140 OA 
BRANCH   5   6
HETATM    6  C   UNL     1      -9.716  11.070  65.637  1.00  0.00    -0.232 A  
HETATM    7  C   UNL     1      -9.667  10.433  64.382  1.00  0.00    -0.333 A  
HETATM    8  C   UNL     1     -10.483  10.906  63.349  1.00  0.00    -0.220 A  
HETATM    9  N   UNL     1      -8.980   9.216  64.222  1.00  0.00    -0.418 NA 
HETATM   10  H1  UNL     1      -8.944   8.755  63.314  1.00  0.00     0.000 HD 
HETATM   11  C   UNL     1     -11.225  12.079  63.505  1.00  0.00    -0.526 A  
HETATM   12  H2  UNL     1      -9.347   8.551  64.903  1.00  0.00     0.000 HD 
HETATM   13  C   UNL     1     -11.183  12.770  64.718  1.00  0.00    -0.339 A  
HETATM   14  C   UNL     1     -10.445  12.250  65.789  1.00  0.00    -0.287 A  
BRANCH  13  15
HETATM   15  C   UNL     1     -11.811  14.117  64.791  1.00  0.00    -0.417 C  
HETATM   16  O   UNL     1     -12.621  14.539  63.984  1.00  0.00    -0.797 OA 
BRANCH  15  17
HETATM   17  O   UNL     1     -11.210  14.835  65.770  1.00  0.00    -0.330 OA 
BRANCH  17  18
HETATM   18  C   UNL     1     -11.906  14.829  67.028  1.00  0.00    -0.271 C  
BRANCH  18  19
HETATM   19  C   UNL     1     -10.904  15.310  68.098  1.00  0.00    -0.273 C  
BRANCH  19  20
HETATM   20  N   UNL     1     -11.036  14.735  69.449  1.00  0.00    -0.271 NA 
BRANCH  20  21
HETATM   21  C   UNL     1     -11.321  15.738  70.485  1.00  0.00    -0.380 C  
HETATM   22  C   UNL     1     -11.971  15.222  71.765  1.00  0.00    -0.453 C  
ENDBRANCH  20  21
BRANCH  20  23
HETATM   23  C   UNL     1     -12.000  13.619  69.408  1.00  0.00    -0.342 C  
HETATM   24  C   UNL     1     -11.363  12.235  69.453  1.00  0.00    -0.294 C  
ENDBRANCH  20  23
ENDBRANCH  19  20
ENDBRANCH  18  19
ENDBRANCH  17  18
ENDBRANCH  15  17
ENDBRANCH  13  15
ENDBRANCH   5   6
ENDBRANCH   4   5
ENDBRANCH   3   4
ENDBRANCH   2   3
TORSDOF 11
ENDMDL
MODEL      150
REMARK 921   NORMALIZED FREE ENERGY PREDICTED BY IDOCK:   -3.91 KCAL/MOL
REMARK 922        TOTAL FREE ENERGY PREDICTED BY IDOCK:   -7.43 KCAL/MOL
REMARK 923 INTER-LIGAND FREE ENERGY PREDICTED BY IDOCK:   -6.44 KCAL/MOL
REMARK 924 INTRA-LIGAND FREE ENERGY PREDICTED BY IDOCK:   -1.00 KCAL/MOL
REMARK 927      BINDING AFFINITY PREDICTED BY RF-SCORE:    0.00 PKD
ROOT
HETATM    1  C   UNL     1     -12.058  15.400  72.854  1.00  0.00    -0.545 C  
HETATM    2  C   UNL     1     -11.956  14.708  71.505  1.00  0.00    -0.400 C  
ENDROOT
BRANCH   2   3
HETATM    3  C   UNL     1     -12.610  15.541  70.405  1.00  0.00    -0.421 C  
BRANCH   3   4
HETATM    4  C   UNL     1     -11.864  15.405  69.084  1.00  0.00    -0.335 C  
BRANCH   4   5
HETATM    5  O   UNL     1     -11.425  16.707  68.679  1.00  0.00    -0.255 OA 
BRANCH   5   6
HETATM    6  C   UNL     1     -10.066  16.835  68.517  1.00  0.00    -0.281 A  
HETATM    7  C   UNL     1      -9.545  18.143  68.543  1.00  0.00    -0.339 A  
HETATM    8  C   UNL     1      -8.160  18.324  68.468  1.00  0.00    -0.330 A  
HETATM    9  N   UNL     1     -10.371  19.238  68.856  1.00  0.00    -0.520 NA 
HETATM   10  H1  UNL     1      -9.994  20.185  68.876  1.00  0.00     0.000 HD 
HETATM   11  C   UNL     1      -7.312  17.242  68.221  1.00  0.00    -0.214 A  
HETATM   12  H2  UNL     1     -10.817  19.054  69.755  1.00  0.00     0.000 HD 
HETATM   13  C   UNL     1      -7.845  15.958  68.085  1.00  0.00    -0.134 A  
HETATM   14  C   UNL     1      -9.221  15.757  68.256  1.00  0.00    -0.188 A  
BRANCH  13  15
HETATM   15  C   UNL     1      -6.953  14.863  67.619  1.00  0.00    -0.184 C  
HETATM   16  O   UNL     1      -5.738  14.943  67.571  1.00  0.00    -0.327 OA 
BRANCH  15  17
HETATM   17  O   UNL     1      -7.708  13.864  67.102  1.00  0.00    -0.127 OA 
BRANCH  17  18
HETATM   18  C   UNL     1      -7.770  12.679  67.915  1.00  0.00    -0.141 C  
BRANCH  18  19
HETATM   19  C   UNL     1      -8.961  11.843  67.401  1.00  0.00    -0.173 C  
BRANCH  19  20
HETATM   20  N   UNL     1     -10.276  12.100  68.014  1.00  0.00    -0.195 NA 
BRANCH  20  21
HETATM   21  C   UNL     1     -11.360  12.247  67.032  1.00  0.00    -0.334 C  
HETATM   22  C   UNL     1     -11.053  11.779  65.613  1.00  0.00    -0.340 C  
ENDBRANCH  20  21
BRANCH  20  23
HETATM   23  C   UNL     1     -10.533  11.083  69.051  1.00  0.00    -0.216 C  
HETATM   24  C   UNL     1     -11.786  11.333  69.882  1.00  0.00    -0.436 C  
ENDBRANCH  20  23
ENDBRANCH  19  20
ENDBRANCH  18  19
ENDBRANCH  17  18
ENDBRANCH  15  17
ENDBRANCH  13  15
ENDBRANCH   5   6
ENDBRANCH   4   5
ENDBRANCH   3   4
ENDBRANCH   2   3
TORSDOF 11
ENDMDL
MODEL      151
REMARK 921   NORMALIZED FREE ENERGY PREDICTED BY IDOCK:   -3.90 KCAL/MOL
REMARK 922        TOTAL FREE ENERGY PREDICTED BY IDOCK:   -7.42 KCAL/MOL
REMARK 923 INTER-LIGAND FREE ENERGY PREDICTED BY IDOCK:   -6.70 KCAL/MOL
REMARK 924 INTRA-LIGAND FREE ENERGY PREDICTED BY IDOCK:   -0.72 KCAL/MOL
REMARK 927      BINDING AFFINITY PREDICTED BY RF-SCORE:    0.00 PKD
ROOT
HETATM    1  C   UNL     1     -11.304   7.876  72.680  1.00  0.00    -0.468 C  
HETATM    2  C   UNL     1     -12.247   8.359  71.590  1.00  0.00    -0.358 C  
ENDROOT
BRANCH   2   3
HETATM    3  C   UNL     1     -11.730   9.641  70.941  1.00  0.00    -0.412 C  
BRANCH   3   4
HETATM    4  C   UNL     1     -12.858  10.635  70.694  1.00  0.00    -0.320 C  
BRANCH   4   5
HETATM    5  O   UNL     1     -12.687  11.741  71.589  1.00  0.00    -0.328 OA 
BRANCH   5   6
HETATM    6  C   UNL     1     -12.612  12.972  70.979  1.00  0.00    -0.299 A  
HETATM    7  C   UNL     1     -13.331  14.022  71.582  1.00  0.00    -0.367 A  
HETATM    8  C   UNL     1     -13.221  15.311  71.051  1.00  0.00    -0.546 A  
HETATM    9  N   UNL     1     -13.975  13.833  72.818  1.00  0.00    -0.660 NA 
HETATM   10  H1  UNL     1     -14.496  14.593  73.254  1.00  0.00     0.000 HD 
HETATM   11  C   UNL     1     -12.532  15.535  69.857  1.00  0.00    -0.243 A  
HETATM   12  H2  UNL     1     -13.285  13.493  73.488  1.00  0.00     0.000 HD 
HETATM   13  C   UNL     1     -11.912  14.468  69.202  1.00  0.00    -0.344 A  
HETATM   14  C   UNL     1     -11.936  13.192  69.779  1.00  0.00    -0.382 A  
BRANCH  13  15
HETATM   15  C   UNL     1     -11.367  14.692  67.837  1.00  0.00    -0.315 C  
HETATM   16  O   UNL     1     -11.407  13.869  66.939  1.00  0.00    -0.306 OA 
BRANCH  15  17
HETATM   17  O   UNL     1     -10.679  15.859  67.819  1.00  0.00    -0.304 OA 
BRANCH  17  18
HETATM   18  C   UNL     1      -9.457  15.844  68.577  1.00  0.00    -0.209 C  
BRANCH  18  19
HETATM   19  C   UNL     1      -8.525  14.813  67.907  1.00  0.00    -0.155 C  
BRANCH  19  20
HETATM   20  N   UNL     1      -7.722  13.955  68.797  1.00  0.00    -0.125 NA 
BRANCH  20  21
HETATM   21  C   UNL     1      -7.591  12.573  68.314  1.00  0.00    -0.129 C  
HETATM   22  C   UNL     1      -8.889  11.791  68.145  1.00  0.00    -0.169 C  
ENDBRANCH  20  21
BRANCH  20  23
HETATM   23  C   UNL     1      -6.437  14.621  69.079  1.00  0.00    -0.097 C  
HETATM   24  C   UNL     1      -5.839  15.366  67.891  1.00  0.00    -0.162 C  
ENDBRANCH  20  23
ENDBRANCH  19  20
ENDBRANCH  18  19
ENDBRANCH  17  18
ENDBRANCH  15  17
ENDBRANCH  13  15
ENDBRANCH   5   6
ENDBRANCH   4   5
ENDBRANCH   3   4
ENDBRANCH   2   3
TORSDOF 11
ENDMDL
MODEL      152
REMARK 921   NORMALIZED FREE ENERGY PREDICTED BY IDOCK:   -3.88 KCAL/MOL
REMARK 922        TOTAL FREE ENERGY PREDICTED BY IDOCK:   -7.38 KCAL/MOL
REMARK 923 INTER-LIGAND FREE ENERGY PREDICTED BY IDOCK:   -6.54 KCAL/MOL
REMARK 924 INTRA-LIGAND FREE ENERGY PREDICTED BY IDOCK:   -0.84 KCAL/MOL
REMARK 927      BINDING AFFINITY PREDICTED BY RF-SCORE:    0.00 PKD
ROOT
HETATM    1  C   UNL     1     -12.090  14.269  64.252  1.00  0.00    -0.467 C  
HETATM    2  C   UNL     1     -11.270  15.390  64.867  1.00  0.00    -0.410 C  
ENDROOT
BRANCH   2   3
HETATM    3  C   UNL     1     -10.234  14.843  65.847  1.00  0.00    -0.333 C  
BRANCH   3   4
HETATM    4  C   UNL     1     -10.481  15.352  67.262  1.00  0.00    -0.282 C  
BRANCH   4   5
HETATM    5  O   UNL     1     -11.822  15.013  67.634  1.00  0.00    -0.328 OA 
BRANCH   5   6
HETATM    6  C   UNL     1     -11.927  13.998  68.556  1.00  0.00    -0.348 A  
HETATM    7  C   UNL     1     -12.361  14.358  69.847  1.00  0.00    -0.314 A  
HETATM    8  C   UNL     1     -12.566  13.353  70.798  1.00  0.00    -0.369 A  
HETATM    9  N   UNL     1     -12.790  15.669  70.120  1.00  0.00    -0.621 NA 
HETATM   10  H1  UNL     1     -13.104  15.929  71.054  1.00  0.00     0.000 HD 
HETATM   11  C   UNL     1     -12.207  12.030  70.527  1.00  0.00    -0.414 A  
HETATM   12  H2  UNL     1     -13.528  15.908  69.458  1.00  0.00     0.000 HD 
HETATM   13  C   UNL     1     -11.672  11.697  69.281  1.00  0.00    -0.396 A  
HETATM   14  C   UNL     1     -11.555  12.681  68.291  1.00  0.00    -0.377 A  
BRANCH  13  15
HETATM   15  C   UNL     1     -11.108  10.334  69.090  1.00  0.00    -0.235 C  
HETATM   16  O   UNL     1     -11.158   9.712  68.044  1.00  0.00    -0.188 OA 
BRANCH  15  17
HETATM   17  O   UNL     1     -10.708   9.847  70.290  1.00  0.00    -0.268 OA 
BRANCH  17  18
HETATM   18  C   UNL     1      -9.297   9.588  70.389  1.00  0.00    -0.257 C  
BRANCH  18  19
HETATM   19  C   UNL     1      -9.140   8.116  70.823  1.00  0.00    -0.146 C  
BRANCH  19  20
HETATM   20  N   UNL     1      -8.748   7.147  69.783  1.00  0.00    -0.141 NA 
BRANCH  20  21
HETATM   21  C   UNL     1      -7.671   6.240  70.206  1.00  0.00    -0.098 C  
HETATM   22  C   UNL     1      -6.258   6.814  70.184  1.00  0.00    -0.035 C  
ENDBRANCH  20  21
BRANCH  20  23
HETATM   23  C   UNL     1      -9.953   6.461  69.282  1.00  0.00    -0.153 C  
HETATM   24  C   UNL     1     -10.531   5.424  70.238  1.00  0.00    -0.355 C  
ENDBRANCH  20  23
ENDBRANCH  19  20
ENDBRANCH  18  19
ENDBRANCH  17  18
ENDBRANCH  15  17
ENDBRANCH  13  15
ENDBRANCH   5   6
ENDBRANCH   4   5
ENDBRANCH   3   4
ENDBRANCH   2   3
TORSDOF 11
ENDMDL
MODEL      153
REMARK 921   NORMALIZED FREE ENERGY PREDICTED BY IDOCK:   -3.87 KCAL/MOL
REMARK 922        TOTAL FREE ENERGY PREDICTED BY IDOCK:   -7.38 KCAL/MOL
REMARK 923 INTER-LIGAND FREE ENERGY PREDICTED BY IDOCK:   -6.70 KCAL/MOL
REMARK 924 INTRA-LIGAND FREE ENERGY PREDICTED BY IDOCK:   -0.68 KCAL/MOL
REMARK 927      BINDING AFFINITY PREDICTED BY RF-SCORE:    0.00 PKD
ROOT
HETATM    1  C   UNL     1      -6.256  17.264  69.647  1.00  0.00    -0.232 C  
HETATM    2  C   UNL     1      -6.751  17.169  68.213  1.00  0.00    -0.167 C  
ENDROOT
BRANCH   2   3
HETATM    3  C   UNL     1      -8.208  17.612  68.101  1.00  0.00    -0.257 C  
BRANCH   3   4
HETATM    4  C   UNL     1      -9.110  16.463  67.669  1.00  0.00    -0.198 C  
BRANCH   4   5
HETATM    5  O   UNL     1      -9.094  16.392  66.238  1.00  0.00    -0.277 OA 
BRANCH   5   6
HETATM    6  C   UNL     1      -9.891  15.411  65.699  1.00  0.00    -0.352 A  
HETATM    7  C   UNL     1     -10.994  15.839  64.935  1.00  0.00    -0.427 A  
HETATM    8  C   UNL     1     -11.789  14.883  64.295  1.00  0.00    -0.312 A  
HETATM    9  N   UNL     1     -11.174  17.202  64.638  1.00  0.00    -0.959 NA 
HETATM   10  H1  UNL     1     -11.973  17.513  64.085  1.00  0.00     0.000 HD 
HETATM   11  C   UNL     1     -11.589  13.520  64.524  1.00  0.00    -0.410 A  
HETATM   12  H2  UNL     1     -10.325  17.546  64.191  1.00  0.00     0.000 HD 
HETATM   13  C   UNL     1     -10.560  13.101  65.372  1.00  0.00    -0.311 A  
HETATM   14  C   UNL     1      -9.700  14.050  65.939  1.00  0.00    -0.250 A  
BRANCH  13  15
HETATM   15  C   UNL     1     -10.499  11.667  65.762  1.00  0.00    -0.263 C  
HETATM   16  O   UNL     1      -9.932  10.805  65.114  1.00  0.00    -0.250 OA 
BRANCH  15  17
HETATM   17  O   UNL     1     -11.310  11.462  66.827  1.00  0.00    -0.363 OA 
BRANCH  17  18
HETATM   18  C   UNL     1     -10.633  11.023  68.018  1.00  0.00    -0.204 C  
BRANCH  18  19
HETATM   19  C   UNL     1     -11.722  10.567  69.012  1.00  0.00    -0.170 C  
BRANCH  19  20
HETATM   20  N   UNL     1     -12.261  11.584  69.932  1.00  0.00    -0.279 NA 
BRANCH  20  21
HETATM   21  C   UNL     1     -12.331  11.131  71.328  1.00  0.00    -0.297 C  
HETATM   22  C   UNL     1     -13.448  11.729  72.177  1.00  0.00    -0.273 C  
ENDBRANCH  20  21
BRANCH  20  23
HETATM   23  C   UNL     1     -11.523  12.847  69.742  1.00  0.00    -0.132 C  
HETATM   24  C   UNL     1     -12.403  14.090  69.696  1.00  0.00    -0.309 C  
ENDBRANCH  20  23
ENDBRANCH  19  20
ENDBRANCH  18  19
ENDBRANCH  17  18
ENDBRANCH  15  17
ENDBRANCH  13  15
ENDBRANCH   5   6
ENDBRANCH   4   5
ENDBRANCH   3   4
ENDBRANCH   2   3
TORSDOF 11
ENDMDL
MODEL      154
REMARK 921   NORMALIZED FREE ENERGY PREDICTED BY IDOCK:   -3.87 KCAL/MOL
REMARK 922        TOTAL FREE ENERGY PREDICTED BY IDOCK:   -7.37 KCAL/MOL
REMARK 923 INTER-LIGAND FREE ENERGY PREDICTED BY IDOCK:   -6.59 KCAL/MOL
REMARK 924 INTRA-LIGAND FREE ENERGY PREDICTED BY IDOCK:   -0.78 KCAL/MOL
REMARK 927      BINDING AFFINITY PREDICTED BY RF-SCORE:    0.00 PKD
ROOT
HETATM    1  C   UNL     1     -13.694  14.094  72.281  1.00  0.00    -0.623 C  
HETATM    2  C   UNL     1     -12.478  14.468  71.449  1.00  0.00    -0.423 C  
ENDROOT
BRANCH   2   3
HETATM    3  C   UNL     1     -12.888  14.949  70.058  1.00  0.00    -0.113 C  
BRANCH   3   4
HETATM    4  C   UNL     1     -11.703  15.529  69.297  1.00  0.00    -0.365 C  
BRANCH   4   5
HETATM    5  O   UNL     1     -11.902  15.284  67.900  1.00  0.00    -0.303 OA 
BRANCH   5   6
HETATM    6  C   UNL     1     -11.514  14.037  67.470  1.00  0.00    -0.343 A  
HETATM    7  C   UNL     1     -12.234  13.486  66.393  1.00  0.00    -0.400 A  
HETATM    8  C   UNL     1     -11.826  12.257  65.862  1.00  0.00    -0.420 A  
HETATM    9  N   UNL     1     -13.207  14.244  65.717  1.00  0.00    -0.557 NA 
HETATM   10  H1  UNL     1     -13.729  13.845  64.938  1.00  0.00     0.000 HD 
HETATM   11  C   UNL     1     -10.817  11.514  66.478  1.00  0.00    -0.335 A  
HETATM   12  H2  UNL     1     -12.772  15.111  65.400  1.00  0.00     0.000 HD 
HETATM   13  C   UNL     1     -10.179  12.016  67.615  1.00  0.00    -0.210 A  
HETATM   14  C   UNL     1     -10.516  13.288  68.094  1.00  0.00    -0.251 A  
BRANCH  13  15
HETATM   15  C   UNL     1      -9.261  11.121  68.368  1.00  0.00    -0.175 C  
HETATM   16  O   UNL     1      -8.071  11.332  68.520  1.00  0.00    -0.134 OA 
BRANCH  15  17
HETATM   17  O   UNL     1      -9.917   9.980  68.689  1.00  0.00    -0.155 OA 
BRANCH  17  18
HETATM   18  C   UNL     1     -10.010   9.720  70.100  1.00  0.00    -0.263 C  
BRANCH  18  19
HETATM   19  C   UNL     1      -9.635   8.238  70.310  1.00  0.00    -0.168 C  
BRANCH  19  20
HETATM   20  N   UNL     1     -10.648   7.371  70.939  1.00  0.00    -0.222 NA 
BRANCH  20  21
HETATM   21  C   UNL     1     -11.336   6.490  69.985  1.00  0.00    -0.410 C  
HETATM   22  C   UNL     1     -10.582   6.167  68.699  1.00  0.00    -0.324 C  
ENDBRANCH  20  21
BRANCH  20  23
HETATM   23  C   UNL     1     -10.039   6.666  72.082  1.00  0.00    -0.178 C  
HETATM   24  C   UNL     1     -10.982   6.437  73.257  1.00  0.00    -0.218 C  
ENDBRANCH  20  23
ENDBRANCH  19  20
ENDBRANCH  18  19
ENDBRANCH  17  18
ENDBRANCH  15  17
ENDBRANCH  13  15
ENDBRANCH   5   6
ENDBRANCH   4   5
ENDBRANCH   3   4
ENDBRANCH   2   3
TORSDOF 11
ENDMDL
MODEL      155
REMARK 921   NORMALIZED FREE ENERGY PREDICTED BY IDOCK:   -3.86 KCAL/MOL
REMARK 922        TOTAL FREE ENERGY PREDICTED BY IDOCK:   -7.36 KCAL/MOL
REMARK 923 INTER-LIGAND FREE ENERGY PREDICTED BY IDOCK:   -6.27 KCAL/MOL
REMARK 924 INTRA-LIGAND FREE ENERGY PREDICTED BY IDOCK:   -1.09 KCAL/MOL
REMARK 927      BINDING AFFINITY PREDICTED BY RF-SCORE:    0.00 PKD
ROOT
HETATM    1  C   UNL     1      -6.274   8.792  68.309  1.00  0.00    -0.054 C  
HETATM    2  C   UNL     1      -7.536   9.210  67.573  1.00  0.00    -0.088 C  
ENDROOT
BRANCH   2   3
HETATM    3  C   UNL     1      -7.400   8.979  66.069  1.00  0.00    -0.094 C  
BRANCH   3   4
HETATM    4  C   UNL     1      -8.750   9.067  65.368  1.00  0.00    -0.189 C  
BRANCH   4   5
HETATM    5  O   UNL     1      -8.827  10.331  64.699  1.00  0.00    -0.173 OA 
BRANCH   5   6
HETATM    6  C   UNL     1      -9.971  11.051  64.954  1.00  0.00    -0.288 A  
HETATM    7  C   UNL     1     -10.709  11.486  63.836  1.00  0.00    -0.395 A  
HETATM    8  C   UNL     1     -11.923  12.149  64.041  1.00  0.00    -0.533 A  
HETATM    9  N   UNL     1     -10.351  11.077  62.538  1.00  0.00    -0.593 NA 
HETATM   10  H1  UNL     1     -10.885  11.392  61.729  1.00  0.00     0.000 HD 
HETATM   11  C   UNL     1     -12.332  12.509  65.327  1.00  0.00    -0.469 A  
HETATM   12  H2  UNL     1     -10.319  10.058  62.523  1.00  0.00     0.000 HD 
HETATM   13  C   UNL     1     -11.539  12.173  66.427  1.00  0.00    -0.429 A  
HETATM   14  C   UNL     1     -10.371  11.424  66.237  1.00  0.00    -0.287 A  
BRANCH  13  15
HETATM   15  C   UNL     1     -11.887  12.745  67.755  1.00  0.00    -0.332 C  
HETATM   16  O   UNL     1     -12.108  12.079  68.751  1.00  0.00    -0.273 OA 
BRANCH  15  17
HETATM   17  O   UNL     1     -12.089  14.078  67.626  1.00  0.00    -0.382 OA 
BRANCH  17  18
HETATM   18  C   UNL     1     -11.468  14.879  68.646  1.00  0.00    -0.306 C  
BRANCH  18  19
HETATM   19  C   UNL     1      -9.946  14.652  68.531  1.00  0.00    -0.235 C  
BRANCH  19  20
HETATM   20  N   UNL     1      -9.097  15.847  68.381  1.00  0.00    -0.185 NA 
BRANCH  20  21
HETATM   21  C   UNL     1      -7.670  15.583  68.611  1.00  0.00    -0.144 C  
HETATM   22  C   UNL     1      -6.881  16.690  69.303  1.00  0.00    -0.232 C  
ENDBRANCH  20  21
BRANCH  20  23
HETATM   23  C   UNL     1      -9.392  16.489  67.087  1.00  0.00    -0.233 C  
HETATM   24  C   UNL     1      -9.362  15.543  65.892  1.00  0.00    -0.355 C  
ENDBRANCH  20  23
ENDBRANCH  19  20
ENDBRANCH  18  19
ENDBRANCH  17  18
ENDBRANCH  15  17
ENDBRANCH  13  15
ENDBRANCH   5   6
ENDBRANCH   4   5
ENDBRANCH   3   4
ENDBRANCH   2   3
TORSDOF 11
ENDMDL
MODEL      156
REMARK 921   NORMALIZED FREE ENERGY PREDICTED BY IDOCK:   -3.85 KCAL/MOL
REMARK 922        TOTAL FREE ENERGY PREDICTED BY IDOCK:   -7.34 KCAL/MOL
REMARK 923 INTER-LIGAND FREE ENERGY PREDICTED BY IDOCK:   -6.46 KCAL/MOL
REMARK 924 INTRA-LIGAND FREE ENERGY PREDICTED BY IDOCK:   -0.87 KCAL/MOL
REMARK 927      BINDING AFFINITY PREDICTED BY RF-SCORE:    0.00 PKD
ROOT
HETATM    1  C   UNL     1     -12.862  11.353  71.576  1.00  0.00    -0.508 C  
HETATM    2  C   UNL     1     -12.017  11.174  70.325  1.00  0.00    -0.460 C  
ENDROOT
BRANCH   2   3
HETATM    3  C   UNL     1     -11.805  12.505  69.606  1.00  0.00    -0.382 C  
BRANCH   3   4
HETATM    4  C   UNL     1     -11.014  12.323  68.318  1.00  0.00    -0.232 C  
BRANCH   4   5
HETATM    5  O   UNL     1     -11.913  11.872  67.297  1.00  0.00    -0.605 OA 
BRANCH   5   6
HETATM    6  C   UNL     1     -11.382  11.848  66.029  1.00  0.00    -0.316 A  
HETATM    7  C   UNL     1     -12.058  12.594  65.045  1.00  0.00    -0.444 A  
HETATM    8  C   UNL     1     -11.514  12.672  63.758  1.00  0.00    -0.539 A  
HETATM    9  N   UNL     1     -13.139  13.425  65.392  1.00  0.00    -0.596 NA 
HETATM   10  H1  UNL     1     -13.629  13.966  64.680  1.00  0.00     0.000 HD 
HETATM   11  C   UNL     1     -10.401  11.905  63.407  1.00  0.00    -0.481 A  
HETATM   12  H2  UNL     1     -12.827  14.066  66.121  1.00  0.00     0.000 HD 
HETATM   13  C   UNL     1      -9.799  11.078  64.359  1.00  0.00    -0.351 A  
HETATM   14  C   UNL     1     -10.279  11.070  65.674  1.00  0.00    -0.318 A  
BRANCH  13  15
HETATM   15  C   UNL     1      -8.752  10.121  63.909  1.00  0.00    -0.210 C  
HETATM   16  O   UNL     1      -8.953   9.198  63.140  1.00  0.00    -0.162 OA 
BRANCH  15  17
HETATM   17  O   UNL     1      -7.620  10.335  64.622  1.00  0.00    -0.146 OA 
BRANCH  17  18
HETATM   18  C   UNL     1      -6.806   9.166  64.816  1.00  0.00    -0.085 C  
BRANCH  18  19
HETATM   19  C   UNL     1      -6.733   8.916  66.336  1.00  0.00    -0.074 C  
BRANCH  19  20
HETATM   20  N   UNL     1      -7.734   8.002  66.916  1.00  0.00    -0.098 NA 
BRANCH  20  21
HETATM   21  C   UNL     1      -7.429   6.582  66.692  1.00  0.00    -0.079 C  
HETATM   22  C   UNL     1      -8.316   5.850  65.691  1.00  0.00    -0.143 C  
ENDBRANCH  20  21
BRANCH  20  23
HETATM   23  C   UNL     1      -7.951   8.358  68.331  1.00  0.00    -0.118 C  
HETATM   24  C   UNL     1      -7.878   7.180  69.295  1.00  0.00    -0.117 C  
ENDBRANCH  20  23
ENDBRANCH  19  20
ENDBRANCH  18  19
ENDBRANCH  17  18
ENDBRANCH  15  17
ENDBRANCH  13  15
ENDBRANCH   5   6
ENDBRANCH   4   5
ENDBRANCH   3   4
ENDBRANCH   2   3
TORSDOF 11
ENDMDL
MODEL      157
REMARK 921   NORMALIZED FREE ENERGY PREDICTED BY IDOCK:   -3.85 KCAL/MOL
REMARK 922        TOTAL FREE ENERGY PREDICTED BY IDOCK:   -7.33 KCAL/MOL
REMARK 923 INTER-LIGAND FREE ENERGY PREDICTED BY IDOCK:   -6.79 KCAL/MOL
REMARK 924 INTRA-LIGAND FREE ENERGY PREDICTED BY IDOCK:   -0.55 KCAL/MOL
REMARK 927      BINDING AFFINITY PREDICTED BY RF-SCORE:    0.00 PKD
ROOT
HETATM    1  C   UNL     1     -11.378  15.982  64.499  1.00  0.00    -0.303 C  
HETATM    2  C   UNL     1     -12.173  14.713  64.238  1.00  0.00    -0.432 C  
ENDROOT
BRANCH   2   3
HETATM    3  C   UNL     1     -12.619  14.063  65.546  1.00  0.00    -0.543 C  
BRANCH   3   4
HETATM    4  C   UNL     1     -11.442  13.834  66.485  1.00  0.00    -0.348 C  
BRANCH   4   5
HETATM    5  O   UNL     1     -11.868  14.127  67.821  1.00  0.00    -0.350 OA 
BRANCH   5   6
HETATM    6  C   UNL     1     -11.813  13.064  68.692  1.00  0.00    -0.318 A  
HETATM    7  C   UNL     1     -12.265  13.297  70.005  1.00  0.00    -0.275 A  
HETATM    8  C   UNL     1     -12.310  12.228  70.907  1.00  0.00    -0.363 A  
HETATM    9  N   UNL     1     -12.866  14.521  70.350  1.00  0.00    -0.501 NA 
HETATM   10  H1  UNL     1     -13.194  14.689  71.300  1.00  0.00     0.000 HD 
HETATM   11  C   UNL     1     -11.777  10.983  70.565  1.00  0.00    -0.416 A  
HETATM   12  H2  UNL     1     -13.644  14.686  69.711  1.00  0.00     0.000 HD 
HETATM   13  C   UNL     1     -11.226  10.788  69.296  1.00  0.00    -0.333 A  
HETATM   14  C   UNL     1     -11.267  11.825  68.355  1.00  0.00    -0.307 A  
BRANCH  13  15
HETATM   15  C   UNL     1     -10.483   9.528  69.029  1.00  0.00    -0.213 C  
HETATM   16  O   UNL     1      -9.688   9.381  68.118  1.00  0.00    -0.141 OA 
BRANCH  15  17
HETATM   17  O   UNL     1     -10.964   8.550  69.835  1.00  0.00    -0.236 OA 
BRANCH  17  18
HETATM   18  C   UNL     1      -9.994   7.560  70.218  1.00  0.00    -0.192 C  
BRANCH  18  19
HETATM   19  C   UNL     1      -9.161   8.167  71.366  1.00  0.00    -0.153 C  
BRANCH  19  20
HETATM   20  N   UNL     1      -9.817   8.290  72.680  1.00  0.00    -0.288 NA 
BRANCH  20  21
HETATM   21  C   UNL     1     -11.038   7.481  72.801  1.00  0.00    -0.366 C  
HETATM   22  C   UNL     1     -10.839   5.990  73.048  1.00  0.00    -0.290 C  
ENDBRANCH  20  21
BRANCH  20  23
HETATM   23  C   UNL     1      -8.822   8.045  73.741  1.00  0.00    -0.247 C  
HETATM   24  C   UNL     1      -7.373   8.195  73.293  1.00  0.00    -0.170 C  
ENDBRANCH  20  23
ENDBRANCH  19  20
ENDBRANCH  18  19
ENDBRANCH  17  18
ENDBRANCH  15  17
ENDBRANCH  13  15
ENDBRANCH   5   6
ENDBRANCH   4   5
ENDBRANCH   3   4
ENDBRANCH   2   3
TORSDOF 11
ENDMDL
MODEL      158
REMARK 921   NORMALIZED FREE ENERGY PREDICTED BY IDOCK:   -3.84 KCAL/MOL
REMARK 922        TOTAL FREE ENERGY PREDICTED BY IDOCK:   -7.32 KCAL/MOL
REMARK 923 INTER-LIGAND FREE ENERGY PREDICTED BY IDOCK:   -6.66 KCAL/MOL
REMARK 924 INTRA-LIGAND FREE ENERGY PREDICTED BY IDOCK:   -0.66 KCAL/MOL
REMARK 927      BINDING AFFINITY PREDICTED BY RF-SCORE:    0.00 PKD
ROOT
HETATM    1  C   UNL     1      -9.475  17.835  67.375  1.00  0.00    -0.254 C  
HETATM    2  C   UNL     1     -10.530  16.834  67.816  1.00  0.00    -0.335 C  
ENDROOT
BRANCH   2   3
HETATM    3  C   UNL     1      -9.891  15.615  68.478  1.00  0.00    -0.205 C  
BRANCH   3   4
HETATM    4  C   UNL     1     -10.535  15.309  69.824  1.00  0.00    -0.275 C  
BRANCH   4   5
HETATM    5  O   UNL     1     -11.922  15.023  69.606  1.00  0.00    -0.298 OA 
BRANCH   5   6
HETATM    6  C   UNL     1     -12.458  14.080  70.452  1.00  0.00    -0.350 A  
HETATM    7  C   UNL     1     -13.177  14.563  71.562  1.00  0.00    -0.358 A  
HETATM    8  C   UNL     1     -13.814  13.648  72.407  1.00  0.00    -0.691 A  
HETATM    9  N   UNL     1     -13.439  15.937  71.705  1.00  0.00    -0.365 NA 
HETATM   10  H1  UNL     1     -13.960  16.286  72.509  1.00  0.00     0.000 HD 
HETATM   11  C   UNL     1     -13.621  12.274  72.246  1.00  0.00    -0.299 A  
HETATM   12  H2  UNL     1     -13.904  16.263  70.858  1.00  0.00     0.000 HD 
HETATM   13  C   UNL     1     -12.815  11.803  71.207  1.00  0.00    -0.409 A  
HETATM   14  C   UNL     1     -12.253  12.709  70.299  1.00  0.00    -0.347 A  
BRANCH  13  15
HETATM   15  C   UNL     1     -12.459  10.359  71.182  1.00  0.00    -0.404 C  
HETATM   16  O   UNL     1     -12.845   9.544  72.002  1.00  0.00    -0.381 OA 
BRANCH  15  17
HETATM   17  O   UNL     1     -11.517  10.150  70.231  1.00  0.00    -0.265 OA 
BRANCH  17  18
HETATM   18  C   UNL     1     -10.272   9.628  70.727  1.00  0.00    -0.260 C  
BRANCH  18  19
HETATM   19  C   UNL     1     -10.264   8.116  70.421  1.00  0.00    -0.201 C  
BRANCH  19  20
HETATM   20  N   UNL     1      -9.564   7.240  71.378  1.00  0.00    -0.161 NA 
BRANCH  20  21
HETATM   21  C   UNL     1      -8.203   6.881  70.953  1.00  0.00    -0.118 C  
HETATM   22  C   UNL     1      -7.130   7.947  71.153  1.00  0.00    -0.054 C  
ENDBRANCH  20  21
BRANCH  20  23
HETATM   23  C   UNL     1      -9.639   7.837  72.724  1.00  0.00    -0.221 C  
HETATM   24  C   UNL     1     -10.354   6.974  73.757  1.00  0.00    -0.408 C  
ENDBRANCH  20  23
ENDBRANCH  19  20
ENDBRANCH  18  19
ENDBRANCH  17  18
ENDBRANCH  15  17
ENDBRANCH  13  15
ENDBRANCH   5   6
ENDBRANCH   4   5
ENDBRANCH   3   4
ENDBRANCH   2   3
TORSDOF 11
ENDMDL
MODEL      159
REMARK 921   NORMALIZED FREE ENERGY PREDICTED BY IDOCK:   -3.83 KCAL/MOL
REMARK 922        TOTAL FREE ENERGY PREDICTED BY IDOCK:   -7.30 KCAL/MOL
REMARK 923 INTER-LIGAND FREE ENERGY PREDICTED BY IDOCK:   -6.59 KCAL/MOL
REMARK 924 INTRA-LIGAND FREE ENERGY PREDICTED BY IDOCK:   -0.71 KCAL/MOL
REMARK 927      BINDING AFFINITY PREDICTED BY RF-SCORE:    0.00 PKD
ROOT
HETATM    1  C   UNL     1     -14.363   7.541  71.634  1.00  0.00    -0.621 C  
HETATM    2  C   UNL     1     -12.913   7.098  71.729  1.00  0.00    -0.367 C  
ENDROOT
BRANCH   2   3
HETATM    3  C   UNL     1     -11.974   8.155  71.152  1.00  0.00    -0.296 C  
BRANCH   3   4
HETATM    4  C   UNL     1     -11.164   7.605  69.985  1.00  0.00    -0.134 C  
BRANCH   4   5
HETATM    5  O   UNL     1     -10.096   8.518  69.708  1.00  0.00    -0.188 OA 
BRANCH   5   6
HETATM    6  C   UNL     1     -10.166   9.136  68.481  1.00  0.00    -0.198 A  
HETATM    7  C   UNL     1      -9.324   8.635  67.470  1.00  0.00    -0.137 A  
HETATM    8  C   UNL     1      -9.417   9.173  66.182  1.00  0.00    -0.309 A  
HETATM    9  N   UNL     1      -8.558   7.475  67.684  1.00  0.00    -0.120 NA 
HETATM   10  H1  UNL     1      -7.949   7.112  66.952  1.00  0.00     0.000 HD 
HETATM   11  C   UNL     1     -10.221  10.287  65.930  1.00  0.00    -0.293 A  
HETATM   12  H2  UNL     1      -9.188   6.727  67.975  1.00  0.00     0.000 HD 
HETATM   13  C   UNL     1     -10.972  10.850  66.965  1.00  0.00    -0.310 A  
HETATM   14  C   UNL     1     -10.958  10.257  68.234  1.00  0.00    -0.315 A  
BRANCH  13  15
HETATM   15  C   UNL     1     -11.652  12.150  66.723  1.00  0.00    -0.345 C  
HETATM   16  O   UNL     1     -11.993  12.551  65.624  1.00  0.00    -0.423 OA 
BRANCH  15  17
HETATM   17  O   UNL     1     -11.661  12.867  67.872  1.00  0.00    -0.324 OA 
BRANCH  17  18
HETATM   18  C   UNL     1     -12.013  14.252  67.711  1.00  0.00    -0.349 C  
BRANCH  18  19
HETATM   19  C   UNL     1     -10.713  15.068  67.865  1.00  0.00    -0.268 C  
BRANCH  19  20
HETATM   20  N   UNL     1     -10.581  16.284  67.044  1.00  0.00    -0.308 NA 
BRANCH  20  21
HETATM   21  C   UNL     1      -9.831  17.360  67.708  1.00  0.00    -0.283 C  
HETATM   22  C   UNL     1      -8.706  17.998  66.901  1.00  0.00    -0.261 C  
ENDBRANCH  20  21
BRANCH  20  23
HETATM   23  C   UNL     1     -10.058  15.916  65.715  1.00  0.00    -0.361 C  
HETATM   24  C   UNL     1     -11.121  15.803  64.629  1.00  0.00    -0.376 C  
ENDBRANCH  20  23
ENDBRANCH  19  20
ENDBRANCH  18  19
ENDBRANCH  17  18
ENDBRANCH  15  17
ENDBRANCH  13  15
ENDBRANCH   5   6
ENDBRANCH   4   5
ENDBRANCH   3   4
ENDBRANCH   2   3
TORSDOF 11
ENDMDL
MODEL      160
REMARK 921   NORMALIZED FREE ENERGY PREDICTED BY IDOCK:   -3.83 KCAL/MOL
REMARK 922        TOTAL FREE ENERGY PREDICTED BY IDOCK:   -7.30 KCAL/MOL
REMARK 923 INTER-LIGAND FREE ENERGY PREDICTED BY IDOCK:   -6.51 KCAL/MOL
REMARK 924 INTRA-LIGAND FREE ENERGY PREDICTED BY IDOCK:   -0.79 KCAL/MOL
REMARK 927      BINDING AFFINITY PREDICTED BY RF-SCORE:    0.00 PKD
ROOT
HETATM    1  C   UNL     1     -10.318  17.431  67.995  1.00  0.00    -0.362 C  
HETATM    2  C   UNL     1      -9.272  16.695  68.815  1.00  0.00    -0.253 C  
ENDROOT
BRANCH   2   3
HETATM    3  C   UNL     1      -9.868  15.463  69.493  1.00  0.00    -0.262 C  
BRANCH   3   4
HETATM    4  C   UNL     1     -10.508  14.523  68.479  1.00  0.00    -0.250 C  
BRANCH   4   5
HETATM    5  O   UNL     1     -11.921  14.501  68.715  1.00  0.00    -0.313 OA 
BRANCH   5   6
HETATM    6  C   UNL     1     -12.319  13.717  69.772  1.00  0.00    -0.228 A  
HETATM    7  C   UNL     1     -13.021  14.360  70.809  1.00  0.00    -0.326 A  
HETATM    8  C   UNL     1     -13.522  13.593  71.867  1.00  0.00    -0.519 A  
HETATM    9  N   UNL     1     -13.406  15.707  70.686  1.00  0.00    -0.792 NA 
HETATM   10  H1  UNL     1     -13.915  16.173  71.437  1.00  0.00     0.000 HD 
HETATM   11  C   UNL     1     -13.206  12.237  71.977  1.00  0.00    -0.508 A  
HETATM   12  H2  UNL     1     -13.944  15.808  69.826  1.00  0.00     0.000 HD 
HETATM   13  C   UNL     1     -12.414  11.627  71.001  1.00  0.00    -0.436 A  
HETATM   14  C   UNL     1     -11.991  12.366  69.889  1.00  0.00    -0.369 A  
BRANCH  13  15
HETATM   15  C   UNL     1     -11.923  10.245  71.247  1.00  0.00    -0.363 C  
HETATM   16  O   UNL     1     -12.360   9.506  72.111  1.00  0.00    -0.340 OA 
BRANCH  15  17
HETATM   17  O   UNL     1     -10.820  10.025  70.491  1.00  0.00    -0.294 OA 
BRANCH  17  18
HETATM   18  C   UNL     1      -9.869   9.115  71.072  1.00  0.00    -0.296 C  
BRANCH  18  19
HETATM   19  C   UNL     1      -9.463   8.122  69.963  1.00  0.00    -0.167 C  
BRANCH  19  20
HETATM   20  N   UNL     1      -8.049   8.123  69.546  1.00  0.00    -0.117 NA 
BRANCH  20  21
HETATM   21  C   UNL     1      -7.384   6.826  69.733  1.00  0.00    -0.089 C  
HETATM   22  C   UNL     1      -6.241   6.793  70.743  1.00  0.00    -0.035 C  
ENDBRANCH  20  21
BRANCH  20  23
HETATM   23  C   UNL     1      -7.950   8.660  68.176  1.00  0.00    -0.107 C  
HETATM   24  C   UNL     1      -7.466  10.103  68.099  1.00  0.00    -0.083 C  
ENDBRANCH  20  23
ENDBRANCH  19  20
ENDBRANCH  18  19
ENDBRANCH  17  18
ENDBRANCH  15  17
ENDBRANCH  13  15
ENDBRANCH   5   6
ENDBRANCH   4   5
ENDBRANCH   3   4
ENDBRANCH   2   3
TORSDOF 11
ENDMDL
MODEL      161
REMARK 921   NORMALIZED FREE ENERGY PREDICTED BY IDOCK:   -3.82 KCAL/MOL
REMARK 922        TOTAL FREE ENERGY PREDICTED BY IDOCK:   -7.28 KCAL/MOL
REMARK 923 INTER-LIGAND FREE ENERGY PREDICTED BY IDOCK:   -6.71 KCAL/MOL
REMARK 924 INTRA-LIGAND FREE ENERGY PREDICTED BY IDOCK:   -0.57 KCAL/MOL
REMARK 927      BINDING AFFINITY PREDICTED BY RF-SCORE:    0.00 PKD
ROOT
HETATM    1  C   UNL     1      -5.718  17.162  66.866  1.00  0.00    -0.221 C  
HETATM    2  C   UNL     1      -7.173  17.600  66.854  1.00  0.00    -0.233 C  
ENDROOT
BRANCH   2   3
HETATM    3  C   UNL     1      -8.112  16.399  66.953  1.00  0.00    -0.262 C  
BRANCH   3   4
HETATM    4  C   UNL     1      -9.442  16.783  67.590  1.00  0.00    -0.234 C  
BRANCH   4   5
HETATM    5  O   UNL     1     -10.466  16.670  66.595  1.00  0.00    -0.298 OA 
BRANCH   5   6
HETATM    6  C   UNL     1     -10.749  15.384  66.199  1.00  0.00    -0.314 A  
HETATM    7  C   UNL     1     -11.282  15.222  64.906  1.00  0.00    -0.415 A  
HETATM    8  C   UNL     1     -11.508  13.929  64.422  1.00  0.00    -0.376 A  
HETATM    9  N   UNL     1     -11.384  16.317  64.030  1.00  0.00    -1.475 NA 
HETATM   10  H1  UNL     1     -11.769  16.200  63.093  1.00  0.00     0.000 HD 
HETATM   11  C   UNL     1     -11.352  12.818  65.255  1.00  0.00    -0.338 A  
HETATM   12  H2  UNL     1     -10.461  16.743  63.943  1.00  0.00     0.000 HD 
HETATM   13  C   UNL     1     -10.929  12.993  66.575  1.00  0.00    -0.307 A  
HETATM   14  C   UNL     1     -10.607  14.276  67.035  1.00  0.00    -0.280 A  
BRANCH  13  15
HETATM   15  C   UNL     1     -10.971  11.826  67.496  1.00  0.00    -0.256 C  
HETATM   16  O   UNL     1     -11.983  11.207  67.771  1.00  0.00    -0.630 OA 
BRANCH  15  17
HETATM   17  O   UNL     1      -9.764  11.691  68.096  1.00  0.00    -0.177 OA 
BRANCH  17  18
HETATM   18  C   UNL     1      -8.702  11.282  67.217  1.00  0.00    -0.145 C  
BRANCH  18  19
HETATM   19  C   UNL     1      -9.060   9.871  66.705  1.00  0.00    -0.143 C  
BRANCH  19  20
HETATM   20  N   UNL     1      -7.985   9.097  66.058  1.00  0.00    -0.102 NA 
BRANCH  20  21
HETATM   21  C   UNL     1      -8.423   7.781  65.573  1.00  0.00    -0.133 C  
HETATM   22  C   UNL     1      -7.675   6.573  66.129  1.00  0.00    -0.092 C  
ENDBRANCH  20  21
BRANCH  20  23
HETATM   23  C   UNL     1      -7.338   9.935  65.031  1.00  0.00    -0.135 C  
HETATM   24  C   UNL     1      -8.027   9.909  63.671  1.00  0.00    -0.147 C  
ENDBRANCH  20  23
ENDBRANCH  19  20
ENDBRANCH  18  19
ENDBRANCH  17  18
ENDBRANCH  15  17
ENDBRANCH  13  15
ENDBRANCH   5   6
ENDBRANCH   4   5
ENDBRANCH   3   4
ENDBRANCH   2   3
TORSDOF 11
ENDMDL
MODEL      162
REMARK 921   NORMALIZED FREE ENERGY PREDICTED BY IDOCK:   -3.81 KCAL/MOL
REMARK 922        TOTAL FREE ENERGY PREDICTED BY IDOCK:   -7.27 KCAL/MOL
REMARK 923 INTER-LIGAND FREE ENERGY PREDICTED BY IDOCK:   -6.74 KCAL/MOL
REMARK 924 INTRA-LIGAND FREE ENERGY PREDICTED BY IDOCK:   -0.53 KCAL/MOL
REMARK 927      BINDING AFFINITY PREDICTED BY RF-SCORE:    0.00 PKD
ROOT
HETATM    1  C   UNL     1      -7.327   8.934  71.261  1.00  0.00    -0.115 C  
HETATM    2  C   UNL     1      -8.169   7.731  71.651  1.00  0.00    -0.121 C  
ENDROOT
BRANCH   2   3
HETATM    3  C   UNL     1      -9.571   7.821  71.051  1.00  0.00    -0.170 C  
BRANCH   3   4
HETATM    4  C   UNL     1     -10.579   8.347  72.065  1.00  0.00    -0.317 C  
BRANCH   4   5
HETATM    5  O   UNL     1     -11.821   8.573  71.389  1.00  0.00    -0.277 OA 
BRANCH   5   6
HETATM    6  C   UNL     1     -12.246   9.881  71.381  1.00  0.00    -0.408 A  
HETATM    7  C   UNL     1     -13.321  10.203  72.231  1.00  0.00    -0.238 A  
HETATM    8  C   UNL     1     -13.737  11.535  72.325  1.00  0.00     0.163 A  
HETATM    9  N   UNL     1     -13.830   9.253  73.135  1.00  0.00    -0.992 NA 
HETATM   10  H1  UNL     1     -14.609   9.486  73.751  1.00  0.00     0.000 HD 
HETATM   11  C   UNL     1     -13.200  12.511  71.482  1.00  0.00    -0.298 A  
HETATM   12  H2  UNL     1     -13.059   8.914  73.710  1.00  0.00     0.000 HD 
HETATM   13  C   UNL     1     -12.210  12.164  70.560  1.00  0.00    -0.392 A  
HETATM   14  C   UNL     1     -11.720  10.852  70.529  1.00  0.00    -0.441 A  
BRANCH  13  15
HETATM   15  C   UNL     1     -11.805  13.167  69.539  1.00  0.00    -0.322 C  
HETATM   16  O   UNL     1     -11.771  14.369  69.735  1.00  0.00    -0.270 OA 
BRANCH  15  17
HETATM   17  O   UNL     1     -11.664  12.550  68.341  1.00  0.00    -0.295 OA 
BRANCH  17  18
HETATM   18  C   UNL     1     -10.669  13.132  67.482  1.00  0.00    -0.238 C  
BRANCH  18  19
HETATM   19  C   UNL     1     -11.405  14.110  66.541  1.00  0.00    -0.341 C  
BRANCH  19  20
HETATM   20  N   UNL     1     -10.859  14.274  65.182  1.00  0.00    -0.353 NA 
BRANCH  20  21
HETATM   21  C   UNL     1      -9.687  15.160  65.126  1.00  0.00    -0.008 C  
HETATM   22  C   UNL     1      -9.673  16.324  66.112  1.00  0.00    -0.357 C  
ENDBRANCH  20  21
BRANCH  20  23
HETATM   23  C   UNL     1     -10.639  12.943  64.585  1.00  0.00    -0.363 C  
HETATM   24  C   UNL     1     -11.801  12.431  63.743  1.00  0.00    -0.587 C  
ENDBRANCH  20  23
ENDBRANCH  19  20
ENDBRANCH  18  19
ENDBRANCH  17  18
ENDBRANCH  15  17
ENDBRANCH  13  15
ENDBRANCH   5   6
ENDBRANCH   4   5
ENDBRANCH   3   4
ENDBRANCH   2   3
TORSDOF 11
ENDMDL
MODEL      163
REMARK 921   NORMALIZED FREE ENERGY PREDICTED BY IDOCK:   -3.80 KCAL/MOL
REMARK 922        TOTAL FREE ENERGY PREDICTED BY IDOCK:   -7.25 KCAL/MOL
REMARK 923 INTER-LIGAND FREE ENERGY PREDICTED BY IDOCK:   -6.75 KCAL/MOL
REMARK 924 INTRA-LIGAND FREE ENERGY PREDICTED BY IDOCK:   -0.50 KCAL/MOL
REMARK 927      BINDING AFFINITY PREDICTED BY RF-SCORE:    0.00 PKD
ROOT
HETATM    1  C   UNL     1      -7.772  19.898  68.298  1.00  0.00    -0.295 C  
HETATM    2  C   UNL     1      -8.628  18.671  68.564  1.00  0.00    -0.370 C  
ENDROOT
BRANCH   2   3
HETATM    3  C   UNL     1     -10.003  18.804  67.913  1.00  0.00    -0.400 C  
BRANCH   3   4
HETATM    4  C   UNL     1     -10.783  17.497  67.983  1.00  0.00    -0.341 C  
BRANCH   4   5
HETATM    5  O   UNL     1     -10.854  17.088  69.354  1.00  0.00    -0.275 OA 
BRANCH   5   6
HETATM    6  C   UNL     1     -11.298  15.802  69.552  1.00  0.00    -0.328 A  
HETATM    7  C   UNL     1     -11.757  15.482  70.844  1.00  0.00    -0.375 A  
HETATM    8  C   UNL     1     -12.298  14.213  71.077  1.00  0.00    -0.438 A  
HETATM    9  N   UNL     1     -11.875  16.478  71.830  1.00  0.00    -0.652 NA 
HETATM   10  H1  UNL     1     -12.208  16.246  72.766  1.00  0.00     0.000 HD 
HETATM   11  C   UNL     1     -12.250  13.225  70.091  1.00  0.00    -0.376 A  
HETATM   12  H2  UNL     1     -12.462  17.226  71.459  1.00  0.00     0.000 HD 
HETATM   13  C   UNL     1     -11.691  13.515  68.844  1.00  0.00    -0.379 A  
HETATM   14  C   UNL     1     -11.237  14.812  68.572  1.00  0.00    -0.291 A  
BRANCH  13  15
HETATM   15  C   UNL     1     -11.464  12.397  67.889  1.00  0.00    -0.328 C  
HETATM   16  O   UNL     1     -11.947  12.341  66.772  1.00  0.00    -0.586 OA 
BRANCH  15  17
HETATM   17  O   UNL     1     -10.800  11.400  68.523  1.00  0.00    -0.187 OA 
BRANCH  17  18
HETATM   18  C   UNL     1     -11.009  10.092  67.963  1.00  0.00    -0.270 C  
BRANCH  18  19
HETATM   19  C   UNL     1      -9.711   9.291  68.194  1.00  0.00    -0.150 C  
BRANCH  19  20
HETATM   20  N   UNL     1      -8.905   8.961  67.004  1.00  0.00    -0.125 NA 
BRANCH  20  21
HETATM   21  C   UNL     1      -9.209   7.637  66.443  1.00  0.00    -0.175 C  
HETATM   22  C   UNL     1      -8.085   6.959  65.665  1.00  0.00    -0.129 C  
ENDBRANCH  20  21
BRANCH  20  23
HETATM   23  C   UNL     1      -9.002  10.066  66.032  1.00  0.00    -0.148 C  
HETATM   24  C   UNL     1      -7.745  10.283  65.198  1.00  0.00    -0.136 C  
ENDBRANCH  20  23
ENDBRANCH  19  20
ENDBRANCH  18  19
ENDBRANCH  17  18
ENDBRANCH  15  17
ENDBRANCH  13  15
ENDBRANCH   5   6
ENDBRANCH   4   5
ENDBRANCH   3   4
ENDBRANCH   2   3
TORSDOF 11
ENDMDL
MODEL      164
REMARK 921   NORMALIZED FREE ENERGY PREDICTED BY IDOCK:   -3.80 KCAL/MOL
REMARK 922        TOTAL FREE ENERGY PREDICTED BY IDOCK:   -7.25 KCAL/MOL
REMARK 923 INTER-LIGAND FREE ENERGY PREDICTED BY IDOCK:   -6.16 KCAL/MOL
REMARK 924 INTRA-LIGAND FREE ENERGY PREDICTED BY IDOCK:   -1.09 KCAL/MOL
REMARK 927      BINDING AFFINITY PREDICTED BY RF-SCORE:    0.00 PKD
ROOT
HETATM    1  C   UNL     1      -8.416   6.060  66.145  1.00  0.00    -0.134 C  
HETATM    2  C   UNL     1      -8.988   7.446  66.391  1.00  0.00    -0.190 C  
ENDROOT
BRANCH   2   3
HETATM    3  C   UNL     1      -8.046   8.532  65.876  1.00  0.00    -0.116 C  
BRANCH   3   4
HETATM    4  C   UNL     1      -8.818   9.725  65.328  1.00  0.00    -0.175 C  
BRANCH   4   5
HETATM    5  O   UNL     1     -10.180   9.617  65.757  1.00  0.00    -0.261 OA 
BRANCH   5   6
HETATM    6  C   UNL     1     -10.764  10.804  66.134  1.00  0.00    -0.118 A  
HETATM    7  C   UNL     1     -11.346  10.844  67.415  1.00  0.00    -0.195 A  
HETATM    8  C   UNL     1     -11.879  12.051  67.880  1.00  0.00    -0.320 A  
HETATM    9  N   UNL     1     -11.207   9.761  68.301  1.00  0.00    -0.517 NA 
HETATM   10  H1  UNL     1     -11.628   9.790  69.229  1.00  0.00     0.000 HD 
HETATM   11  C   UNL     1     -11.971  13.162  67.038  1.00  0.00    -0.412 A  
HETATM   12  H2  UNL     1     -10.212   9.563  68.409  1.00  0.00     0.000 HD 
HETATM   13  C   UNL     1     -11.491  13.083  65.729  1.00  0.00    -0.367 A  
HETATM   14  C   UNL     1     -10.868  11.908  65.288  1.00  0.00    -0.347 A  
BRANCH  13  15
HETATM   15  C   UNL     1     -11.786  14.202  64.794  1.00  0.00    -0.417 C  
HETATM   16  O   UNL     1     -12.814  14.301  64.148  1.00  0.00    -0.574 OA 
BRANCH  15  17
HETATM   17  O   UNL     1     -10.677  14.966  64.653  1.00  0.00    -0.371 OA 
BRANCH  17  18
HETATM   18  C   UNL     1     -10.788  16.289  65.205  1.00  0.00    -0.297 C  
BRANCH  18  19
HETATM   19  C   UNL     1      -9.432  16.616  65.866  1.00  0.00    -0.183 C  
BRANCH  19  20
HETATM   20  N   UNL     1      -9.217  16.123  67.238  1.00  0.00    -0.206 NA 
BRANCH  20  21
HETATM   21  C   UNL     1     -10.452  16.048  68.032  1.00  0.00    -0.275 C  
HETATM   22  C   UNL     1     -10.473  16.855  69.326  1.00  0.00    -0.319 C  
ENDBRANCH  20  21
BRANCH  20  23
HETATM   23  C   UNL     1      -8.455  14.862  67.185  1.00  0.00    -0.220 C  
HETATM   24  C   UNL     1      -8.211  14.215  68.543  1.00  0.00    -0.146 C  
ENDBRANCH  20  23
ENDBRANCH  19  20
ENDBRANCH  18  19
ENDBRANCH  17  18
ENDBRANCH  15  17
ENDBRANCH  13  15
ENDBRANCH   5   6
ENDBRANCH   4   5
ENDBRANCH   3   4
ENDBRANCH   2   3
TORSDOF 11
ENDMDL
MODEL      165
REMARK 921   NORMALIZED FREE ENERGY PREDICTED BY IDOCK:   -3.79 KCAL/MOL
REMARK 922        TOTAL FREE ENERGY PREDICTED BY IDOCK:   -7.24 KCAL/MOL
REMARK 923 INTER-LIGAND FREE ENERGY PREDICTED BY IDOCK:   -6.23 KCAL/MOL
REMARK 924 INTRA-LIGAND FREE ENERGY PREDICTED BY IDOCK:   -1.01 KCAL/MOL
REMARK 927      BINDING AFFINITY PREDICTED BY RF-SCORE:    0.00 PKD
ROOT
HETATM    1  C   UNL     1      -7.100  10.403  65.495  1.00  0.00    -0.133 C  
HETATM    2  C   UNL     1      -7.453   9.228  64.598  1.00  0.00    -0.102 C  
ENDROOT
BRANCH   2   3
HETATM    3  C   UNL     1      -8.631   8.437  65.162  1.00  0.00    -0.159 C  
BRANCH   3   4
HETATM    4  C   UNL     1      -9.592   9.338  65.930  1.00  0.00    -0.275 C  
BRANCH   4   5
HETATM    5  O   UNL     1     -10.396   8.515  66.783  1.00  0.00    -0.295 OA 
BRANCH   5   6
HETATM    6  C   UNL     1     -10.551   8.989  68.064  1.00  0.00    -0.186 A  
HETATM    7  C   UNL     1     -10.174   8.124  69.110  1.00  0.00    -0.214 A  
HETATM    8  C   UNL     1     -10.233   8.588  70.428  1.00  0.00    -0.215 A  
HETATM    9  N   UNL     1      -9.545   6.897  68.833  1.00  0.00    -0.139 NA 
HETATM   10  H1  UNL     1      -9.272   6.270  69.590  1.00  0.00     0.000 HD 
HETATM   11  C   UNL     1     -10.795   9.832  70.723  1.00  0.00    -0.403 A  
HETATM   12  H2  UNL     1      -8.722   7.082  68.260  1.00  0.00     0.000 HD 
HETATM   13  C   UNL     1     -11.271  10.641  69.689  1.00  0.00    -0.351 A  
HETATM   14  C   UNL     1     -11.126  10.225  68.359  1.00  0.00    -0.302 A  
BRANCH  13  15
HETATM   15  C   UNL     1     -12.048  11.860  70.040  1.00  0.00    -0.291 C  
HETATM   16  O   UNL     1     -12.547  12.063  71.133  1.00  0.00    -0.367 OA 
BRANCH  15  17
HETATM   17  O   UNL     1     -12.253  12.594  68.920  1.00  0.00    -0.181 OA 
BRANCH  17  18
HETATM   18  C   UNL     1     -11.936  13.990  69.053  1.00  0.00    -0.357 C  
BRANCH  18  19
HETATM   19  C   UNL     1     -11.690  14.533  67.630  1.00  0.00    -0.382 C  
BRANCH  19  20
HETATM   20  N   UNL     1     -11.602  13.546  66.540  1.00  0.00    -0.343 NA 
BRANCH  20  21
HETATM   21  C   UNL     1     -12.645  13.710  65.517  1.00  0.00    -0.496 C  
HETATM   22  C   UNL     1     -12.342  14.698  64.395  1.00  0.00    -0.420 C  
ENDBRANCH  20  21
BRANCH  20  23
HETATM   23  C   UNL     1     -10.228  13.537  66.005  1.00  0.00    -0.305 C  
HETATM   24  C   UNL     1      -9.336  14.650  66.542  1.00  0.00    -0.313 C  
ENDBRANCH  20  23
ENDBRANCH  19  20
ENDBRANCH  18  19
ENDBRANCH  17  18
ENDBRANCH  15  17
ENDBRANCH  13  15
ENDBRANCH   5   6
ENDBRANCH   4   5
ENDBRANCH   3   4
ENDBRANCH   2   3
TORSDOF 11
ENDMDL
MODEL      166
REMARK 921   NORMALIZED FREE ENERGY PREDICTED BY IDOCK:   -3.78 KCAL/MOL
REMARK 922        TOTAL FREE ENERGY PREDICTED BY IDOCK:   -7.22 KCAL/MOL
REMARK 923 INTER-LIGAND FREE ENERGY PREDICTED BY IDOCK:   -5.62 KCAL/MOL
REMARK 924 INTRA-LIGAND FREE ENERGY PREDICTED BY IDOCK:   -1.60 KCAL/MOL
REMARK 927      BINDING AFFINITY PREDICTED BY RF-SCORE:    0.00 PKD
ROOT
HETATM    1  C   UNL     1     -12.386  12.921  63.755  1.00  0.00    -0.500 C  
HETATM    2  C   UNL     1     -12.225  14.245  64.484  1.00  0.00    -0.476 C  
ENDROOT
BRANCH   2   3
HETATM    3  C   UNL     1     -11.757  14.031  65.922  1.00  0.00    -0.373 C  
BRANCH   3   4
HETATM    4  C   UNL     1     -11.905  12.575  66.345  1.00  0.00    -0.381 C  
BRANCH   4   5
HETATM    5  O   UNL     1     -12.048  12.533  67.770  1.00  0.00    -0.409 OA 
BRANCH   5   6
HETATM    6  C   UNL     1     -11.170  11.695  68.415  1.00  0.00    -0.249 A  
HETATM    7  C   UNL     1     -11.723  10.786  69.338  1.00  0.00    -0.306 A  
HETATM    8  C   UNL     1     -10.884   9.855  69.959  1.00  0.00    -0.339 A  
HETATM    9  N   UNL     1     -13.117  10.665  69.477  1.00  0.00    -0.380 NA 
HETATM   10  H1  UNL     1     -13.518  10.007  70.145  1.00  0.00     0.000 HD 
HETATM   11  C   UNL     1      -9.500   9.915  69.786  1.00  0.00    -0.254 A  
HETATM   12  H2  UNL     1     -13.513  10.467  68.558  1.00  0.00     0.000 HD 
HETATM   13  C   UNL     1      -8.945  10.891  68.955  1.00  0.00    -0.146 A  
HETATM   14  C   UNL     1      -9.786  11.764  68.254  1.00  0.00    -0.198 A  
BRANCH  13  15
HETATM   15  C   UNL     1      -7.468  11.065  68.950  1.00  0.00    -0.123 C  
HETATM   16  O   UNL     1      -6.901  12.109  69.220  1.00  0.00    -0.103 OA 
BRANCH  15  17
HETATM   17  O   UNL     1      -6.891   9.954  68.433  1.00  0.00    -0.062 OA 
BRANCH  17  18
HETATM   18  C   UNL     1      -6.668  10.001  67.014  1.00  0.00    -0.078 C  
BRANCH  18  19
HETATM   19  C   UNL     1      -7.275   8.712  66.420  1.00  0.00    -0.080 C  
BRANCH  19  20
HETATM   20  N   UNL     1      -8.498   8.855  65.610  1.00  0.00    -0.147 NA 
BRANCH  20  21
HETATM   21  C   UNL     1      -9.726   8.515  66.341  1.00  0.00    -0.258 C  
HETATM   22  C   UNL     1      -9.673   7.256  67.201  1.00  0.00    -0.218 C  
ENDBRANCH  20  21
BRANCH  20  23
HETATM   23  C   UNL     1      -8.514  10.195  64.993  1.00  0.00    -0.163 C  
HETATM   24  C   UNL     1      -9.655  10.421  64.008  1.00  0.00    -0.376 C  
ENDBRANCH  20  23
ENDBRANCH  19  20
ENDBRANCH  18  19
ENDBRANCH  17  18
ENDBRANCH  15  17
ENDBRANCH  13  15
ENDBRANCH   5   6
ENDBRANCH   4   5
ENDBRANCH   3   4
ENDBRANCH   2   3
TORSDOF 11
ENDMDL
MODEL      167
REMARK 921   NORMALIZED FREE ENERGY PREDICTED BY IDOCK:   -3.78 KCAL/MOL
REMARK 922        TOTAL FREE ENERGY PREDICTED BY IDOCK:   -7.22 KCAL/MOL
REMARK 923 INTER-LIGAND FREE ENERGY PREDICTED BY IDOCK:   -6.29 KCAL/MOL
REMARK 924 INTRA-LIGAND FREE ENERGY PREDICTED BY IDOCK:   -0.93 KCAL/MOL
REMARK 927      BINDING AFFINITY PREDICTED BY RF-SCORE:    0.00 PKD
ROOT
HETATM    1  C   UNL     1     -11.078   6.465  67.079  1.00  0.00    -0.405 C  
HETATM    2  C   UNL     1     -10.215   7.167  68.114  1.00  0.00    -0.220 C  
ENDROOT
BRANCH   2   3
HETATM    3  C   UNL     1      -8.877   7.600  67.517  1.00  0.00    -0.124 C  
BRANCH   3   4
HETATM    4  C   UNL     1      -9.015   7.964  66.044  1.00  0.00    -0.154 C  
BRANCH   4   5
HETATM    5  O   UNL     1      -8.340   9.207  65.823  1.00  0.00    -0.116 OA 
BRANCH   5   6
HETATM    6  C   UNL     1      -8.891   9.998  64.842  1.00  0.00    -0.192 A  
HETATM    7  C   UNL     1      -8.116  10.205  63.685  1.00  0.00    -0.163 A  
HETATM    8  C   UNL     1      -8.663  10.931  62.622  1.00  0.00    -0.308 A  
HETATM    9  N   UNL     1      -6.902   9.518  63.503  1.00  0.00    -0.100 NA 
HETATM   10  H1  UNL     1      -6.340   9.667  62.665  1.00  0.00     0.000 HD 
HETATM   11  C   UNL     1      -9.898  11.570  62.755  1.00  0.00    -0.142 A  
HETATM   12  H2  UNL     1      -7.085   8.518  63.590  1.00  0.00     0.000 HD 
HETATM   13  C   UNL     1     -10.615  11.453  63.949  1.00  0.00    -0.452 A  
HETATM   14  C   UNL     1     -10.118  10.648  64.981  1.00  0.00    -0.388 A  
BRANCH  13  15
HETATM   15  C   UNL     1     -11.819  12.306  64.141  1.00  0.00    -0.419 C  
HETATM   16  O   UNL     1     -12.862  12.167  63.527  1.00  0.00    -0.768 OA 
BRANCH  15  17
HETATM   17  O   UNL     1     -11.503  13.341  64.956  1.00  0.00    -0.296 OA 
BRANCH  17  18
HETATM   18  C   UNL     1     -12.370  13.493  66.093  1.00  0.00    -0.407 C  
BRANCH  18  19
HETATM   19  C   UNL     1     -11.816  14.666  66.928  1.00  0.00    -0.326 C  
BRANCH  19  20
HETATM   20  N   UNL     1     -10.968  14.326  68.084  1.00  0.00    -0.240 NA 
BRANCH  20  21
HETATM   21  C   UNL     1     -11.250  12.997  68.645  1.00  0.00    -0.277 C  
HETATM   22  C   UNL     1     -11.993  12.970  69.977  1.00  0.00    -0.383 C  
ENDBRANCH  20  21
BRANCH  20  23
HETATM   23  C   UNL     1      -9.554  14.544  67.727  1.00  0.00    -0.215 C  
HETATM   24  C   UNL     1      -8.744  15.287  68.783  1.00  0.00    -0.195 C  
ENDBRANCH  20  23
ENDBRANCH  19  20
ENDBRANCH  18  19
ENDBRANCH  17  18
ENDBRANCH  15  17
ENDBRANCH  13  15
ENDBRANCH   5   6
ENDBRANCH   4   5
ENDBRANCH   3   4
ENDBRANCH   2   3
TORSDOF 11
ENDMDL
MODEL      168
REMARK 921   NORMALIZED FREE ENERGY PREDICTED BY IDOCK:   -3.75 KCAL/MOL
REMARK 922        TOTAL FREE ENERGY PREDICTED BY IDOCK:   -7.17 KCAL/MOL
REMARK 923 INTER-LIGAND FREE ENERGY PREDICTED BY IDOCK:   -5.94 KCAL/MOL
REMARK 924 INTRA-LIGAND FREE ENERGY PREDICTED BY IDOCK:   -1.23 KCAL/MOL
REMARK 927      BINDING AFFINITY PREDICTED BY RF-SCORE:    0.00 PKD
ROOT
HETATM    1  C   UNL     1      -6.587  16.482  66.884  1.00  0.00    -0.212 C  
HETATM    2  C   UNL     1      -5.681  15.510  67.621  1.00  0.00    -0.116 C  
ENDROOT
BRANCH   2   3
HETATM    3  C   UNL     1      -6.321  15.041  68.927  1.00  0.00    -0.090 C  
BRANCH   3   4
HETATM    4  C   UNL     1      -7.809  14.767  68.752  1.00  0.00    -0.146 C  
BRANCH   4   5
HETATM    5  O   UNL     1      -7.976  13.386  68.410  1.00  0.00    -0.138 OA 
BRANCH   5   6
HETATM    6  C   UNL     1      -9.177  13.079  67.814  1.00  0.00    -0.200 A  
HETATM    7  C   UNL     1      -9.706  11.801  68.079  1.00  0.00    -0.185 A  
HETATM    8  C   UNL     1     -10.965  11.469  67.566  1.00  0.00    -0.308 A  
HETATM    9  N   UNL     1      -9.091  10.950  69.015  1.00  0.00    -0.314 NA 
HETATM   10  H1  UNL     1      -9.474  10.025  69.206  1.00  0.00     0.000 HD 
HETATM   11  C   UNL     1     -11.625  12.327  66.684  1.00  0.00    -0.438 A  
HETATM   12  H2  UNL     1      -9.013  11.452  69.899  1.00  0.00     0.000 HD 
HETATM   13  C   UNL     1     -11.043  13.548  66.337  1.00  0.00    -0.311 A  
HETATM   14  C   UNL     1      -9.830  13.930  66.922  1.00  0.00    -0.268 A  
BRANCH  13  15
HETATM   15  C   UNL     1     -11.662  14.345  65.244  1.00  0.00    -0.364 C  
HETATM   16  O   UNL     1     -12.748  14.101  64.748  1.00  0.00    -0.650 OA 
BRANCH  15  17
HETATM   17  O   UNL     1     -10.759  15.246  64.786  1.00  0.00    -0.410 OA 
BRANCH  17  18
HETATM   18  C   UNL     1     -11.210  16.611  64.813  1.00  0.00    -0.066 C  
BRANCH  18  19
HETATM   19  C   UNL     1     -10.235  17.388  65.722  1.00  0.00    -0.191 C  
BRANCH  19  20
HETATM   20  N   UNL     1     -10.717  18.659  66.293  1.00  0.00    -0.313 NA 
BRANCH  20  21
HETATM   21  C   UNL     1     -10.831  18.635  67.758  1.00  0.00    -0.260 C  
HETATM   22  C   UNL     1     -10.529  17.304  68.437  1.00  0.00    -0.381 C  
ENDBRANCH  20  21
BRANCH  20  23
HETATM   23  C   UNL     1      -9.896  19.766  65.768  1.00  0.00    -0.208 C  
HETATM   24  C   UNL     1      -8.857  20.298  66.748  1.00  0.00    -0.372 C  
ENDBRANCH  20  23
ENDBRANCH  19  20
ENDBRANCH  18  19
ENDBRANCH  17  18
ENDBRANCH  15  17
ENDBRANCH  13  15
ENDBRANCH   5   6
ENDBRANCH   4   5
ENDBRANCH   3   4
ENDBRANCH   2   3
TORSDOF 11
ENDMDL
MODEL      169
REMARK 921   NORMALIZED FREE ENERGY PREDICTED BY IDOCK:   -3.73 KCAL/MOL
REMARK 922        TOTAL FREE ENERGY PREDICTED BY IDOCK:   -7.13 KCAL/MOL
REMARK 923 INTER-LIGAND FREE ENERGY PREDICTED BY IDOCK:   -6.32 KCAL/MOL
REMARK 924 INTRA-LIGAND FREE ENERGY PREDICTED BY IDOCK:   -0.81 KCAL/MOL
REMARK 927      BINDING AFFINITY PREDICTED BY RF-SCORE:    0.00 PKD
ROOT
HETATM    1  C   UNL     1     -10.827   6.466  71.319  1.00  0.00    -0.306 C  
HETATM    2  C   UNL     1     -10.844   7.451  72.476  1.00  0.00    -0.327 C  
ENDROOT
BRANCH   2   3
HETATM    3  C   UNL     1     -11.906   8.529  72.269  1.00  0.00    -0.453 C  
BRANCH   3   4
HETATM    4  C   UNL     1     -11.375   9.679  71.422  1.00  0.00    -0.374 C  
BRANCH   4   5
HETATM    5  O   UNL     1     -12.283   9.893  70.335  1.00  0.00    -0.217 OA 
BRANCH   5   6
HETATM    6  C   UNL     1     -11.948  10.931  69.498  1.00  0.00    -0.330 A  
HETATM    7  C   UNL     1     -11.309  10.590  68.290  1.00  0.00    -0.264 A  
HETATM    8  C   UNL     1     -11.023  11.600  67.365  1.00  0.00    -0.313 A  
HETATM    9  N   UNL     1     -11.156   9.243  67.916  1.00  0.00    -0.493 NA 
HETATM   10  H1  UNL     1     -10.694   8.996  67.041  1.00  0.00     0.000 HD 
HETATM   11  C   UNL     1     -11.227  12.943  67.689  1.00  0.00    -0.317 A  
HETATM   12  H2  UNL     1     -12.076   8.802  67.926  1.00  0.00     0.000 HD 
HETATM   13  C   UNL     1     -11.758  13.284  68.936  1.00  0.00    -0.369 A  
HETATM   14  C   UNL     1     -12.138  12.273  69.828  1.00  0.00    -0.298 A  
BRANCH  13  15
HETATM   15  C   UNL     1     -11.771  14.717  69.335  1.00  0.00    -0.316 C  
HETATM   16  O   UNL     1     -12.581  15.207  70.102  1.00  0.00    -0.329 OA 
BRANCH  15  17
HETATM   17  O   UNL     1     -10.872  15.395  68.583  1.00  0.00    -0.241 OA 
BRANCH  17  18
HETATM   18  C   UNL     1     -10.306  16.551  69.225  1.00  0.00    -0.318 C  
BRANCH  18  19
HETATM   19  C   UNL     1      -8.782  16.323  69.303  1.00  0.00    -0.151 C  
BRANCH  19  20
HETATM   20  N   UNL     1      -8.149  15.625  68.169  1.00  0.00    -0.134 NA 
BRANCH  20  21
HETATM   21  C   UNL     1      -7.330  16.507  67.325  1.00  0.00    -0.166 C  
HETATM   22  C   UNL     1      -8.074  17.305  66.260  1.00  0.00    -0.315 C  
ENDBRANCH  20  21
BRANCH  20  23
HETATM   23  C   UNL     1      -7.437  14.436  68.671  1.00  0.00    -0.126 C  
HETATM   24  C   UNL     1      -6.541  14.699  69.876  1.00  0.00    -0.167 C  
ENDBRANCH  20  23
ENDBRANCH  19  20
ENDBRANCH  18  19
ENDBRANCH  17  18
ENDBRANCH  15  17
ENDBRANCH  13  15
ENDBRANCH   5   6
ENDBRANCH   4   5
ENDBRANCH   3   4
ENDBRANCH   2   3
TORSDOF 11
ENDMDL
MODEL      170
REMARK 921   NORMALIZED FREE ENERGY PREDICTED BY IDOCK:   -3.73 KCAL/MOL
REMARK 922        TOTAL FREE ENERGY PREDICTED BY IDOCK:   -7.13 KCAL/MOL
REMARK 923 INTER-LIGAND FREE ENERGY PREDICTED BY IDOCK:   -6.37 KCAL/MOL
REMARK 924 INTRA-LIGAND FREE ENERGY PREDICTED BY IDOCK:   -0.76 KCAL/MOL
REMARK 927      BINDING AFFINITY PREDICTED BY RF-SCORE:    0.00 PKD
ROOT
HETATM    1  C   UNL     1      -8.026   3.857  67.518  1.00  0.00    -0.090 C  
HETATM    2  C   UNL     1      -9.539   3.986  67.459  1.00  0.00    -0.216 C  
ENDROOT
BRANCH   2   3
HETATM    3  C   UNL     1      -9.960   5.159  66.576  1.00  0.00    -0.237 C  
BRANCH   3   4
HETATM    4  C   UNL     1     -10.011   6.461  67.365  1.00  0.00    -0.138 C  
BRANCH   4   5
HETATM    5  O   UNL     1      -9.184   7.424  66.701  1.00  0.00    -0.145 OA 
BRANCH   5   6
HETATM    6  C   UNL     1      -9.746   8.672  66.563  1.00  0.00    -0.255 A  
HETATM    7  C   UNL     1      -9.467   9.363  65.369  1.00  0.00    -0.253 A  
HETATM    8  C   UNL     1     -10.080  10.600  65.142  1.00  0.00    -0.374 A  
HETATM    9  N   UNL     1      -8.761   8.737  64.326  1.00  0.00    -0.402 NA 
HETATM   10  H1  UNL     1      -8.560   9.237  63.461  1.00  0.00     0.000 HD 
HETATM   11  C   UNL     1     -10.839  11.214  66.141  1.00  0.00    -0.247 A  
HETATM   12  H2  UNL     1      -9.246   7.872  64.087  1.00  0.00     0.000 HD 
HETATM   13  C   UNL     1     -11.022  10.572  67.368  1.00  0.00    -0.352 A  
HETATM   14  C   UNL     1     -10.492   9.291  67.566  1.00  0.00    -0.338 A  
BRANCH  13  15
HETATM   15  C   UNL     1     -11.654  11.331  68.480  1.00  0.00    -0.315 C  
HETATM   16  O   UNL     1     -12.647  10.963  69.083  1.00  0.00    -0.361 OA 
BRANCH  15  17
HETATM   17  O   UNL     1     -11.063  12.546  68.581  1.00  0.00    -0.237 OA 
BRANCH  17  18
HETATM   18  C   UNL     1     -11.967  13.660  68.480  1.00  0.00    -0.361 C  
BRANCH  18  19
HETATM   19  C   UNL     1     -11.151  14.853  67.939  1.00  0.00    -0.298 C  
BRANCH  19  20
HETATM   20  N   UNL     1     -11.023  14.970  66.476  1.00  0.00    -0.325 NA 
BRANCH  20  21
HETATM   21  C   UNL     1      -9.688  14.611  65.976  1.00  0.00    -0.312 C  
HETATM   22  C   UNL     1      -8.508  14.994  66.863  1.00  0.00    -0.269 C  
ENDBRANCH  20  21
BRANCH  20  23
HETATM   23  C   UNL     1     -12.127  14.235  65.833  1.00  0.00    -0.404 C  
HETATM   24  C   UNL     1     -12.317  14.549  64.354  1.00  0.00    -0.437 C  
ENDBRANCH  20  23
ENDBRANCH  19  20
ENDBRANCH  18  19
ENDBRANCH  17  18
ENDBRANCH  15  17
ENDBRANCH  13  15
ENDBRANCH   5   6
ENDBRANCH   4   5
ENDBRANCH   3   4
ENDBRANCH   2   3
TORSDOF 11
ENDMDL
MODEL      171
REMARK 921   NORMALIZED FREE ENERGY PREDICTED BY IDOCK:   -3.70 KCAL/MOL
REMARK 922        TOTAL FREE ENERGY PREDICTED BY IDOCK:   -7.09 KCAL/MOL
REMARK 923 INTER-LIGAND FREE ENERGY PREDICTED BY IDOCK:   -6.12 KCAL/MOL
REMARK 924 INTRA-LIGAND FREE ENERGY PREDICTED BY IDOCK:   -0.97 KCAL/MOL
REMARK 927      BINDING AFFINITY PREDICTED BY RF-SCORE:    0.00 PKD
ROOT
HETATM    1  C   UNL     1     -10.861  19.576  67.015  1.00  0.00    -0.542 C  
HETATM    2  C   UNL     1      -9.521  20.277  67.163  1.00  0.00    -0.557 C  
ENDROOT
BRANCH   2   3
HETATM    3  C   UNL     1      -8.422  19.534  66.405  1.00  0.00    -0.373 C  
BRANCH   3   4
HETATM    4  C   UNL     1      -7.379  18.961  67.356  1.00  0.00    -0.225 C  
BRANCH   4   5
HETATM    5  O   UNL     1      -8.043  18.098  68.286  1.00  0.00    -0.278 OA 
BRANCH   5   6
HETATM    6  C   UNL     1      -8.159  16.789  67.880  1.00  0.00    -0.185 A  
HETATM    7  C   UNL     1      -7.043  15.958  68.095  1.00  0.00    -0.118 A  
HETATM    8  C   UNL     1      -7.138  14.599  67.778  1.00  0.00    -0.193 A  
HETATM    9  N   UNL     1      -5.928  16.427  68.813  1.00  0.00    -0.121 NA 
HETATM   10  H1  UNL     1      -5.119  15.826  68.968  1.00  0.00     0.000 HD 
HETATM   11  C   UNL     1      -8.263  14.097  67.122  1.00  0.00    -0.166 A  
HETATM   12  H2  UNL     1      -6.251  16.767  69.718  1.00  0.00     0.000 HD 
HETATM   13  C   UNL     1      -9.325  14.950  66.810  1.00  0.00    -0.270 A  
HETATM   14  C   UNL     1      -9.277  16.291  67.212  1.00  0.00    -0.217 A  
BRANCH  13  15
HETATM   15  C   UNL     1     -10.413  14.441  65.933  1.00  0.00    -0.308 C  
HETATM   16  O   UNL     1     -11.479  15.006  65.766  1.00  0.00    -0.327 OA 
BRANCH  15  17
HETATM   17  O   UNL     1     -10.097  13.192  65.514  1.00  0.00    -0.289 OA 
BRANCH  17  18
HETATM   18  C   UNL     1     -11.155  12.228  65.654  1.00  0.00    -0.317 C  
BRANCH  18  19
HETATM   19  C   UNL     1     -10.711  11.227  66.741  1.00  0.00    -0.275 C  
BRANCH  19  20
HETATM   20  N   UNL     1     -10.678  11.716  68.131  1.00  0.00    -0.203 NA 
BRANCH  20  21
HETATM   21  C   UNL     1     -11.907  12.414  68.535  1.00  0.00    -0.304 C  
HETATM   22  C   UNL     1     -11.817  13.264  69.798  1.00  0.00    -0.394 C  
ENDBRANCH  20  21
BRANCH  20  23
HETATM   23  C   UNL     1     -10.292  10.607  69.023  1.00  0.00    -0.218 C  
HETATM   24  C   UNL     1     -10.347   9.228  68.376  1.00  0.00    -0.244 C  
ENDBRANCH  20  23
ENDBRANCH  19  20
ENDBRANCH  18  19
ENDBRANCH  17  18
ENDBRANCH  15  17
ENDBRANCH  13  15
ENDBRANCH   5   6
ENDBRANCH   4   5
ENDBRANCH   3   4
ENDBRANCH   2   3
TORSDOF 11
ENDMDL
MODEL      172
REMARK 921   NORMALIZED FREE ENERGY PREDICTED BY IDOCK:   -3.69 KCAL/MOL
REMARK 922        TOTAL FREE ENERGY PREDICTED BY IDOCK:   -7.07 KCAL/MOL
REMARK 923 INTER-LIGAND FREE ENERGY PREDICTED BY IDOCK:   -5.95 KCAL/MOL
REMARK 924 INTRA-LIGAND FREE ENERGY PREDICTED BY IDOCK:   -1.12 KCAL/MOL
REMARK 927      BINDING AFFINITY PREDICTED BY RF-SCORE:    0.00 PKD
ROOT
HETATM    1  C   UNL     1      -8.733  17.285  68.500  1.00  0.00    -0.273 C  
HETATM    2  C   UNL     1      -9.130  16.190  67.524  1.00  0.00    -0.207 C  
ENDROOT
BRANCH   2   3
HETATM    3  C   UNL     1     -10.601  16.307  67.130  1.00  0.00    -0.291 C  
BRANCH   3   4
HETATM    4  C   UNL     1     -11.193  14.948  66.777  1.00  0.00    -0.338 C  
BRANCH   4   5
HETATM    5  O   UNL     1     -11.967  14.490  67.892  1.00  0.00    -0.343 OA 
BRANCH   5   6
HETATM    6  C   UNL     1     -11.755  13.177  68.242  1.00  0.00    -0.349 A  
HETATM    7  C   UNL     1     -11.971  12.839  69.592  1.00  0.00    -0.288 A  
HETATM    8  C   UNL     1     -11.853  11.501  69.983  1.00  0.00    -0.435 A  
HETATM    9  N   UNL     1     -12.507  13.779  70.490  1.00  0.00    -0.347 NA 
HETATM   10  H1  UNL     1     -12.663  13.535  71.467  1.00  0.00     0.000 HD 
HETATM   11  C   UNL     1     -11.384  10.535  69.090  1.00  0.00    -0.319 A  
HETATM   12  H2  UNL     1     -13.385  14.125  70.104  1.00  0.00     0.000 HD 
HETATM   13  C   UNL     1     -11.064  10.898  67.779  1.00  0.00    -0.371 A  
HETATM   14  C   UNL     1     -11.273  12.216  67.354  1.00  0.00    -0.362 A  
BRANCH  13  15
HETATM   15  C   UNL     1     -10.375   9.904  66.914  1.00  0.00    -0.235 C  
HETATM   16  O   UNL     1     -10.045  10.111  65.760  1.00  0.00    -0.264 OA 
BRANCH  15  17
HETATM   17  O   UNL     1     -10.343   8.708  67.551  1.00  0.00    -0.235 OA 
BRANCH  17  18
HETATM   18  C   UNL     1      -9.204   7.890  67.230  1.00  0.00    -0.142 C  
BRANCH  18  19
HETATM   19  C   UNL     1      -8.521   7.527  68.565  1.00  0.00    -0.129 C  
BRANCH  19  20
HETATM   20  N   UNL     1      -9.260   7.834  69.803  1.00  0.00    -0.150 NA 
BRANCH  20  21
HETATM   21  C   UNL     1      -9.903   6.659  70.407  1.00  0.00    -0.175 C  
HETATM   22  C   UNL     1     -11.411   6.538  70.208  1.00  0.00    -0.456 C  
ENDBRANCH  20  21
BRANCH  20  23
HETATM   23  C   UNL     1      -8.376   8.577  70.721  1.00  0.00    -0.139 C  
HETATM   24  C   UNL     1      -7.288   9.389  70.029  1.00  0.00    -0.101 C  
ENDBRANCH  20  23
ENDBRANCH  19  20
ENDBRANCH  18  19
ENDBRANCH  17  18
ENDBRANCH  15  17
ENDBRANCH  13  15
ENDBRANCH   5   6
ENDBRANCH   4   5
ENDBRANCH   3   4
ENDBRANCH   2   3
TORSDOF 11
ENDMDL
MODEL      173
REMARK 921   NORMALIZED FREE ENERGY PREDICTED BY IDOCK:   -3.68 KCAL/MOL
REMARK 922        TOTAL FREE ENERGY PREDICTED BY IDOCK:   -7.05 KCAL/MOL
REMARK 923 INTER-LIGAND FREE ENERGY PREDICTED BY IDOCK:   -5.83 KCAL/MOL
REMARK 924 INTRA-LIGAND FREE ENERGY PREDICTED BY IDOCK:   -1.22 KCAL/MOL
REMARK 927      BINDING AFFINITY PREDICTED BY RF-SCORE:    0.00 PKD
ROOT
HETATM    1  C   UNL     1      -9.670  13.888  68.298  1.00  0.00    -0.223 C  
HETATM    2  C   UNL     1     -11.128  13.610  68.623  1.00  0.00    -0.299 C  
ENDROOT
BRANCH   2   3
HETATM    3  C   UNL     1     -11.774  12.731  67.554  1.00  0.00    -0.422 C  
BRANCH   3   4
HETATM    4  C   UNL     1     -10.949  12.712  66.273  1.00  0.00    -0.283 C  
BRANCH   4   5
HETATM    5  O   UNL     1     -11.380  11.603  65.476  1.00  0.00    -0.265 OA 
BRANCH   5   6
HETATM    6  C   UNL     1     -10.392  10.701  65.157  1.00  0.00    -0.261 A  
HETATM    7  C   UNL     1     -10.001  10.643  63.805  1.00  0.00    -0.317 A  
HETATM    8  C   UNL     1      -8.943   9.803  63.441  1.00  0.00    -0.271 A  
HETATM    9  N   UNL     1     -10.509  11.563  62.871  1.00  0.00    -0.658 NA 
HETATM   10  H1  UNL     1     -10.226  11.521  61.892  1.00  0.00     0.000 HD 
HETATM   11  C   UNL     1      -8.378   8.925  64.368  1.00  0.00    -0.176 A  
HETATM   12  H2  UNL     1     -10.322  12.504  63.216  1.00  0.00     0.000 HD 
HETATM   13  C   UNL     1      -8.846   8.908  65.684  1.00  0.00    -0.230 A  
HETATM   14  C   UNL     1      -9.838   9.814  66.079  1.00  0.00    -0.342 A  
BRANCH  13  15
HETATM   15  C   UNL     1      -8.376   7.827  66.592  1.00  0.00    -0.126 C  
HETATM   16  O   UNL     1      -7.261   7.780  67.081  1.00  0.00    -0.085 OA 
BRANCH  15  17
HETATM   17  O   UNL     1      -9.308   6.845  66.633  1.00  0.00    -0.154 OA 
BRANCH  17  18
HETATM   18  C   UNL     1      -9.528   6.283  67.938  1.00  0.00    -0.115 C  
BRANCH  18  19
HETATM   19  C   UNL     1     -10.947   6.702  68.375  1.00  0.00    -0.239 C  
BRANCH  19  20
HETATM   20  N   UNL     1     -11.077   7.370  69.683  1.00  0.00    -0.168 NA 
BRANCH  20  21
HETATM   21  C   UNL     1     -11.604   6.493  70.737  1.00  0.00    -0.377 C  
HETATM   22  C   UNL     1     -12.905   6.937  71.397  1.00  0.00    -0.365 C  
ENDBRANCH  20  21
BRANCH  20  23
HETATM   23  C   UNL     1      -9.798   8.022  70.022  1.00  0.00    -0.185 C  
HETATM   24  C   UNL     1      -9.845   9.545  70.007  1.00  0.00    -0.269 C  
ENDBRANCH  20  23
ENDBRANCH  19  20
ENDBRANCH  18  19
ENDBRANCH  17  18
ENDBRANCH  15  17
ENDBRANCH  13  15
ENDBRANCH   5   6
ENDBRANCH   4   5
ENDBRANCH   3   4
ENDBRANCH   2   3
TORSDOF 11
ENDMDL
MODEL      174
REMARK 921   NORMALIZED FREE ENERGY PREDICTED BY IDOCK:   -3.68 KCAL/MOL
REMARK 922        TOTAL FREE ENERGY PREDICTED BY IDOCK:   -7.05 KCAL/MOL
REMARK 923 INTER-LIGAND FREE ENERGY PREDICTED BY IDOCK:   -6.24 KCAL/MOL
REMARK 924 INTRA-LIGAND FREE ENERGY PREDICTED BY IDOCK:   -0.81 KCAL/MOL
REMARK 927      BINDING AFFINITY PREDICTED BY RF-SCORE:    0.00 PKD
ROOT
HETATM    1  C   UNL     1      -7.866   8.723  69.873  1.00  0.00    -0.093 C  
HETATM    2  C   UNL     1      -7.100   8.219  68.661  1.00  0.00    -0.072 C  
ENDROOT
BRANCH   2   3
HETATM    3  C   UNL     1      -6.796   9.356  67.688  1.00  0.00    -0.076 C  
BRANCH   3   4
HETATM    4  C   UNL     1      -8.073   9.936  67.092  1.00  0.00    -0.117 C  
BRANCH   4   5
HETATM    5  O   UNL     1      -8.180   9.488  65.735  1.00  0.00    -0.112 OA 
BRANCH   5   6
HETATM    6  C   UNL     1      -8.984  10.263  64.932  1.00  0.00    -0.201 A  
HETATM    7  C   UNL     1      -8.585  10.410  63.590  1.00  0.00    -0.186 A  
HETATM    8  C   UNL     1      -9.411  11.118  62.710  1.00  0.00    -0.377 A  
HETATM    9  N   UNL     1      -7.492   9.684  63.083  1.00  0.00    -0.110 NA 
HETATM   10  H1  UNL     1      -7.203   9.790  62.111  1.00  0.00     0.000 HD 
HETATM   11  C   UNL     1     -10.538  11.795  63.179  1.00  0.00    -0.341 A  
HETATM   12  H2  UNL     1      -7.659   8.693  63.259  1.00  0.00     0.000 HD 
HETATM   13  C   UNL     1     -10.869  11.737  64.535  1.00  0.00    -0.377 A  
HETATM   14  C   UNL     1     -10.102  10.951  65.404  1.00  0.00    -0.336 A  
BRANCH  13  15
HETATM   15  C   UNL     1     -11.946  12.629  65.043  1.00  0.00    -0.419 C  
HETATM   16  O   UNL     1     -13.131  12.473  64.811  1.00  0.00    -0.853 OA 
BRANCH  15  17
HETATM   17  O   UNL     1     -11.384  13.711  65.634  1.00  0.00    -0.298 OA 
BRANCH  17  18
HETATM   18  C   UNL     1     -11.966  14.072  66.899  1.00  0.00    -0.447 C  
BRANCH  18  19
HETATM   19  C   UNL     1     -11.897  12.820  67.799  1.00  0.00    -0.332 C  
BRANCH  19  20
HETATM   20  N   UNL     1     -12.181  13.007  69.233  1.00  0.00    -0.175 NA 
BRANCH  20  21
HETATM   21  C   UNL     1     -11.892  11.817  70.045  1.00  0.00    -0.342 C  
HETATM   22  C   UNL     1     -10.964  10.780  69.420  1.00  0.00    -0.305 C  
ENDBRANCH  20  21
BRANCH  20  23
HETATM   23  C   UNL     1     -11.512  14.235  69.702  1.00  0.00    -0.282 C  
HETATM   24  C   UNL     1     -12.196  14.912  70.883  1.00  0.00    -0.389 C  
ENDBRANCH  20  23
ENDBRANCH  19  20
ENDBRANCH  18  19
ENDBRANCH  17  18
ENDBRANCH  15  17
ENDBRANCH  13  15
ENDBRANCH   5   6
ENDBRANCH   4   5
ENDBRANCH   3   4
ENDBRANCH   2   3
TORSDOF 11
ENDMDL
MODEL      175
REMARK 921   NORMALIZED FREE ENERGY PREDICTED BY IDOCK:   -3.68 KCAL/MOL
REMARK 922        TOTAL FREE ENERGY PREDICTED BY IDOCK:   -7.05 KCAL/MOL
REMARK 923 INTER-LIGAND FREE ENERGY PREDICTED BY IDOCK:   -5.71 KCAL/MOL
REMARK 924 INTRA-LIGAND FREE ENERGY PREDICTED BY IDOCK:   -1.34 KCAL/MOL
REMARK 927      BINDING AFFINITY PREDICTED BY RF-SCORE:    0.00 PKD
ROOT
HETATM    1  C   UNL     1     -13.185  10.750  71.954  1.00  0.00    -0.524 C  
HETATM    2  C   UNL     1     -12.329  10.978  70.719  1.00  0.00    -0.496 C  
ENDROOT
BRANCH   2   3
HETATM    3  C   UNL     1     -12.255  12.462  70.365  1.00  0.00    -0.370 C  
BRANCH   3   4
HETATM    4  C   UNL     1     -11.292  12.712  69.211  1.00  0.00    -0.245 C  
BRANCH   4   5
HETATM    5  O   UNL     1     -11.996  12.498  67.982  1.00  0.00    -0.342 OA 
BRANCH   5   6
HETATM    6  C   UNL     1     -11.378  11.640  67.103  1.00  0.00    -0.306 A  
HETATM    7  C   UNL     1     -11.340  12.036  65.752  1.00  0.00    -0.331 A  
HETATM    8  C   UNL     1     -10.650  11.241  64.831  1.00  0.00    -0.364 A  
HETATM    9  N   UNL     1     -11.795  13.310  65.366  1.00  0.00    -0.341 NA 
HETATM   10  H1  UNL     1     -11.768  13.597  64.388  1.00  0.00     0.000 HD 
HETATM   11  C   UNL     1     -10.132  10.000  65.207  1.00  0.00    -0.299 A  
HETATM   12  H2  UNL     1     -11.296  14.008  65.917  1.00  0.00     0.000 HD 
HETATM   13  C   UNL     1     -10.270   9.560  66.526  1.00  0.00    -0.307 A  
HETATM   14  C   UNL     1     -10.874  10.394  67.475  1.00  0.00    -0.358 A  
BRANCH  13  15
HETATM   15  C   UNL     1      -9.898   8.157  66.850  1.00  0.00    -0.247 C  
HETATM   16  O   UNL     1     -10.687   7.309  67.226  1.00  0.00    -0.297 OA 
BRANCH  15  17
HETATM   17  O   UNL     1      -8.548   8.040  66.831  1.00  0.00    -0.123 OA 
BRANCH  17  18
HETATM   18  C   UNL     1      -8.014   7.124  67.802  1.00  0.00    -0.114 C  
BRANCH  18  19
HETATM   19  C   UNL     1      -7.172   7.956  68.791  1.00  0.00    -0.081 C  
BRANCH  19  20
HETATM   20  N   UNL     1      -7.405   9.412  68.812  1.00  0.00    -0.074 NA 
BRANCH  20  21
HETATM   21  C   UNL     1      -8.167   9.865  69.984  1.00  0.00    -0.168 C  
HETATM   22  C   UNL     1      -9.215   8.897  70.524  1.00  0.00    -0.239 C  
ENDBRANCH  20  21
BRANCH  20  23
HETATM   23  C   UNL     1      -6.119  10.109  68.621  1.00  0.00    -0.044 C  
HETATM   24  C   UNL     1      -5.548  10.002  67.212  1.00  0.00    -0.042 C  
ENDBRANCH  20  23
ENDBRANCH  19  20
ENDBRANCH  18  19
ENDBRANCH  17  18
ENDBRANCH  15  17
ENDBRANCH  13  15
ENDBRANCH   5   6
ENDBRANCH   4   5
ENDBRANCH   3   4
ENDBRANCH   2   3
TORSDOF 11
ENDMDL
MODEL      176
REMARK 921   NORMALIZED FREE ENERGY PREDICTED BY IDOCK:   -3.66 KCAL/MOL
REMARK 922        TOTAL FREE ENERGY PREDICTED BY IDOCK:   -7.03 KCAL/MOL
REMARK 923 INTER-LIGAND FREE ENERGY PREDICTED BY IDOCK:   -6.50 KCAL/MOL
REMARK 924 INTRA-LIGAND FREE ENERGY PREDICTED BY IDOCK:   -0.53 KCAL/MOL
REMARK 927      BINDING AFFINITY PREDICTED BY RF-SCORE:    0.00 PKD
ROOT
HETATM    1  C   UNL     1      -8.464  19.699  66.305  1.00  0.00    -0.383 C  
HETATM    2  C   UNL     1      -8.777  18.443  67.101  1.00  0.00    -0.260 C  
ENDROOT
BRANCH   2   3
HETATM    3  C   UNL     1      -8.056  17.228  66.523  1.00  0.00    -0.313 C  
BRANCH   3   4
HETATM    4  C   UNL     1      -8.950  15.994  66.530  1.00  0.00    -0.292 C  
BRANCH   4   5
HETATM    5  O   UNL     1      -9.717  15.986  65.320  1.00  0.00    -0.403 OA 
BRANCH   5   6
HETATM    6  C   UNL     1     -10.335  14.791  65.034  1.00  0.00    -0.389 A  
HETATM    7  C   UNL     1     -11.564  14.862  64.351  1.00  0.00    -0.288 A  
HETATM    8  C   UNL     1     -12.193  13.674  63.962  1.00  0.00    -0.443 A  
HETATM    9  N   UNL     1     -12.050  16.092  63.874  1.00  0.00    -1.261 NA 
HETATM   10  H1  UNL     1     -12.940  16.143  63.379  1.00  0.00     0.000 HD 
HETATM   11  C   UNL     1     -11.694  12.435  64.371  1.00  0.00    -0.435 A  
HETATM   12  H2  UNL     1     -11.332  16.511  63.282  1.00  0.00     0.000 HD 
HETATM   13  C   UNL     1     -10.532  12.376  65.144  1.00  0.00    -0.321 A  
HETATM   14  C   UNL     1      -9.844  13.555  65.454  1.00  0.00    -0.141 A  
BRANCH  13  15
HETATM   15  C   UNL     1     -10.139  11.069  65.737  1.00  0.00    -0.252 C  
HETATM   16  O   UNL     1      -9.888  10.901  66.917  1.00  0.00    -0.181 OA 
BRANCH  15  17
HETATM   17  O   UNL     1      -9.938  10.172  64.742  1.00  0.00    -0.331 OA 
BRANCH  17  18
HETATM   18  C   UNL     1      -8.790  10.441  63.918  1.00  0.00    -0.210 C  
BRANCH  18  19
HETATM   19  C   UNL     1      -8.015   9.114  63.781  1.00  0.00    -0.146 C  
BRANCH  19  20
HETATM   20  N   UNL     1      -6.901   8.886  64.719  1.00  0.00    -0.073 NA 
BRANCH  20  21
HETATM   21  C   UNL     1      -7.329   8.332  66.011  1.00  0.00    -0.080 C  
HETATM   22  C   UNL     1      -8.680   7.624  66.029  1.00  0.00    -0.178 C  
ENDBRANCH  20  21
BRANCH  20  23
HETATM   23  C   UNL     1      -5.853   8.100  64.042  1.00  0.00    -0.061 C  
HETATM   24  C   UNL     1      -6.313   7.399  62.770  1.00  0.00    -0.054 C  
ENDBRANCH  20  23
ENDBRANCH  19  20
ENDBRANCH  18  19
ENDBRANCH  17  18
ENDBRANCH  15  17
ENDBRANCH  13  15
ENDBRANCH   5   6
ENDBRANCH   4   5
ENDBRANCH   3   4
ENDBRANCH   2   3
TORSDOF 11
ENDMDL
MODEL      177
REMARK 921   NORMALIZED FREE ENERGY PREDICTED BY IDOCK:   -3.61 KCAL/MOL
REMARK 922        TOTAL FREE ENERGY PREDICTED BY IDOCK:   -6.93 KCAL/MOL
REMARK 923 INTER-LIGAND FREE ENERGY PREDICTED BY IDOCK:   -5.82 KCAL/MOL
REMARK 924 INTRA-LIGAND FREE ENERGY PREDICTED BY IDOCK:   -1.11 KCAL/MOL
REMARK 927      BINDING AFFINITY PREDICTED BY RF-SCORE:    0.00 PKD
ROOT
HETATM    1  C   UNL     1      -7.826  17.804  68.299  1.00  0.00    -0.279 C  
HETATM    2  C   UNL     1      -8.123  17.377  66.871  1.00  0.00    -0.255 C  
ENDROOT
BRANCH   2   3
HETATM    3  C   UNL     1      -9.558  17.725  66.478  1.00  0.00    -0.315 C  
BRANCH   3   4
HETATM    4  C   UNL     1     -10.530  16.624  66.884  1.00  0.00    -0.271 C  
BRANCH   4   5
HETATM    5  O   UNL     1     -10.649  15.704  65.792  1.00  0.00    -0.324 OA 
BRANCH   5   6
HETATM    6  C   UNL     1     -10.566  14.377  66.143  1.00  0.00    -0.298 A  
HETATM    7  C   UNL     1     -11.724  13.598  65.953  1.00  0.00    -0.354 A  
HETATM    8  C   UNL     1     -11.668  12.225  66.214  1.00  0.00    -0.431 A  
HETATM    9  N   UNL     1     -12.852  14.136  65.309  1.00  0.00    -0.710 NA 
HETATM   10  H1  UNL     1     -13.690  13.573  65.171  1.00  0.00     0.000 HD 
HETATM   11  C   UNL     1     -10.533  11.655  66.794  1.00  0.00    -0.265 A  
HETATM   12  H2  UNL     1     -12.559  14.499  64.402  1.00  0.00     0.000 HD 
HETATM   13  C   UNL     1      -9.425  12.454  67.085  1.00  0.00    -0.198 A  
HETATM   14  C   UNL     1      -9.438  13.811  66.736  1.00  0.00    -0.281 A  
BRANCH  13  15
HETATM   15  C   UNL     1      -8.317  11.870  67.887  1.00  0.00    -0.152 C  
HETATM   16  O   UNL     1      -7.509  12.527  68.520  1.00  0.00    -0.116 OA 
BRANCH  15  17
HETATM   17  O   UNL     1      -8.253  10.537  67.651  1.00  0.00    -0.110 OA 
BRANCH  17  18
HETATM   18  C   UNL     1      -7.642   9.772  68.704  1.00  0.00    -0.079 C  
BRANCH  18  19
HETATM   19  C   UNL     1      -8.657   9.714  69.865  1.00  0.00    -0.203 C  
BRANCH  19  20
HETATM   20  N   UNL     1      -9.636   8.611  69.847  1.00  0.00    -0.170 NA 
BRANCH  20  21
HETATM   21  C   UNL     1     -11.030   9.066  69.937  1.00  0.00    -0.193 C  
HETATM   22  C   UNL     1     -11.240  10.551  70.216  1.00  0.00    -0.391 C  
ENDBRANCH  20  21
BRANCH  20  23
HETATM   23  C   UNL     1      -9.358   7.738  68.691  1.00  0.00    -0.148 C  
HETATM   24  C   UNL     1     -10.574   7.439  67.821  1.00  0.00    -0.278 C  
ENDBRANCH  20  23
ENDBRANCH  19  20
ENDBRANCH  18  19
ENDBRANCH  17  18
ENDBRANCH  15  17
ENDBRANCH  13  15
ENDBRANCH   5   6
ENDBRANCH   4   5
ENDBRANCH   3   4
ENDBRANCH   2   3
TORSDOF 11
ENDMDL
MODEL      178
REMARK 921   NORMALIZED FREE ENERGY PREDICTED BY IDOCK:   -3.60 KCAL/MOL
REMARK 922        TOTAL FREE ENERGY PREDICTED BY IDOCK:   -6.93 KCAL/MOL
REMARK 923 INTER-LIGAND FREE ENERGY PREDICTED BY IDOCK:   -5.53 KCAL/MOL
REMARK 924 INTRA-LIGAND FREE ENERGY PREDICTED BY IDOCK:   -1.40 KCAL/MOL
REMARK 927      BINDING AFFINITY PREDICTED BY RF-SCORE:    0.00 PKD
ROOT
HETATM    1  C   UNL     1      -5.475  10.027  66.394  1.00  0.00    -0.045 C  
HETATM    2  C   UNL     1      -6.766  10.213  67.173  1.00  0.00    -0.074 C  
ENDROOT
BRANCH   2   3
HETATM    3  C   UNL     1      -7.360   8.868  67.587  1.00  0.00    -0.085 C  
BRANCH   3   4
HETATM    4  C   UNL     1      -8.621   9.049  68.423  1.00  0.00    -0.130 C  
BRANCH   4   5
HETATM    5  O   UNL     1      -9.751   9.024  67.543  1.00  0.00    -0.149 OA 
BRANCH   5   6
HETATM    6  C   UNL     1     -10.400  10.228  67.401  1.00  0.00    -0.233 A  
HETATM    7  C   UNL     1     -10.446  10.773  66.103  1.00  0.00    -0.214 A  
HETATM    8  C   UNL     1     -11.165  11.954  65.888  1.00  0.00    -0.373 A  
HETATM    9  N   UNL     1      -9.967  10.042  65.001  1.00  0.00    -0.344 NA 
HETATM   10  H1  UNL     1     -10.001  10.437  64.062  1.00  0.00     0.000 HD 
HETATM   11  C   UNL     1     -11.705  12.665  66.962  1.00  0.00    -0.438 A  
HETATM   12  H2  UNL     1     -10.444   9.141  64.985  1.00  0.00     0.000 HD 
HETATM   13  C   UNL     1     -11.561  12.177  68.262  1.00  0.00    -0.382 A  
HETATM   14  C   UNL     1     -10.926  10.946  68.475  1.00  0.00    -0.278 A  
BRANCH  13  15
HETATM   15  C   UNL     1     -11.960  13.050  69.398  1.00  0.00    -0.281 C  
HETATM   16  O   UNL     1     -12.275  12.638  70.501  1.00  0.00    -0.365 OA 
BRANCH  15  17
HETATM   17  O   UNL     1     -12.085  14.324  68.956  1.00  0.00    -0.326 OA 
BRANCH  17  18
HETATM   18  C   UNL     1     -11.645  15.327  69.888  1.00  0.00    -0.311 C  
BRANCH  18  19
HETATM   19  C   UNL     1     -10.171  15.636  69.554  1.00  0.00    -0.277 C  
BRANCH  19  20
HETATM   20  N   UNL     1      -9.851  15.943  68.149  1.00  0.00    -0.213 NA 
BRANCH  20  21
HETATM   21  C   UNL     1     -10.073  17.351  67.793  1.00  0.00    -0.323 C  
HETATM   22  C   UNL     1      -9.529  18.389  68.769  1.00  0.00    -0.317 C  
ENDBRANCH  20  21
BRANCH  20  23
HETATM   23  C   UNL     1      -8.495  15.449  67.843  1.00  0.00    -0.147 C  
HETATM   24  C   UNL     1      -8.453  14.045  67.252  1.00  0.00    -0.220 C  
ENDBRANCH  20  23
ENDBRANCH  19  20
ENDBRANCH  18  19
ENDBRANCH  17  18
ENDBRANCH  15  17
ENDBRANCH  13  15
ENDBRANCH   5   6
ENDBRANCH   4   5
ENDBRANCH   3   4
ENDBRANCH   2   3
TORSDOF 11
ENDMDL
MODEL      179
REMARK 921   NORMALIZED FREE ENERGY PREDICTED BY IDOCK:   -3.60 KCAL/MOL
REMARK 922        TOTAL FREE ENERGY PREDICTED BY IDOCK:   -6.93 KCAL/MOL
REMARK 923 INTER-LIGAND FREE ENERGY PREDICTED BY IDOCK:   -5.94 KCAL/MOL
REMARK 924 INTRA-LIGAND FREE ENERGY PREDICTED BY IDOCK:   -0.99 KCAL/MOL
REMARK 927      BINDING AFFINITY PREDICTED BY RF-SCORE:    0.00 PKD
ROOT
HETATM    1  C   UNL     1     -12.127  11.671  69.328  1.00  0.00    -0.323 C  
HETATM    2  C   UNL     1     -12.190  11.087  70.730  1.00  0.00    -0.480 C  
ENDROOT
BRANCH   2   3
HETATM    3  C   UNL     1     -11.963   9.577  70.709  1.00  0.00    -0.326 C  
BRANCH   3   4
HETATM    4  C   UNL     1     -10.627   9.205  71.339  1.00  0.00    -0.341 C  
BRANCH   4   5
HETATM    5  O   UNL     1     -10.053   8.135  70.580  1.00  0.00    -0.190 OA 
BRANCH   5   6
HETATM    6  C   UNL     1      -9.949   8.375  69.230  1.00  0.00    -0.195 A  
HETATM    7  C   UNL     1     -10.501   7.406  68.370  1.00  0.00    -0.185 A  
HETATM    8  C   UNL     1     -10.498   7.641  66.991  1.00  0.00    -0.419 A  
HETATM    9  N   UNL     1     -11.237   6.324  68.887  1.00  0.00    -0.499 NA 
HETATM   10  H1  UNL     1     -11.637   5.623  68.264  1.00  0.00     0.000 HD 
HETATM   11  C   UNL     1      -9.827   8.744  66.457  1.00  0.00    -0.349 A  
HETATM   12  H2  UNL     1     -11.986   6.698  69.469  1.00  0.00     0.000 HD 
HETATM   13  C   UNL     1      -9.184   9.645  67.309  1.00  0.00    -0.154 A  
HETATM   14  C   UNL     1      -9.267   9.468  68.696  1.00  0.00    -0.135 A  
BRANCH  13  15
HETATM   15  C   UNL     1      -8.308  10.688  66.711  1.00  0.00    -0.132 C  
HETATM   16  O   UNL     1      -7.232  10.461  66.187  1.00  0.00    -0.117 OA 
BRANCH  15  17
HETATM   17  O   UNL     1      -8.811  11.912  67.004  1.00  0.00    -0.176 OA 
BRANCH  17  18
HETATM   18  C   UNL     1      -9.847  12.361  66.114  1.00  0.00    -0.252 C  
BRANCH  18  19
HETATM   19  C   UNL     1     -10.342  13.721  66.650  1.00  0.00    -0.279 C  
BRANCH  19  20
HETATM   20  N   UNL     1      -9.483  14.893  66.404  1.00  0.00    -0.283 NA 
BRANCH  20  21
HETATM   21  C   UNL     1     -10.150  15.955  65.636  1.00  0.00    -0.358 C  
HETATM   22  C   UNL     1     -11.166  15.499  64.594  1.00  0.00    -0.381 C  
ENDBRANCH  20  21
BRANCH  20  23
HETATM   23  C   UNL     1      -8.904  15.345  67.682  1.00  0.00    -0.174 C  
HETATM   24  C   UNL     1      -8.383  16.777  67.667  1.00  0.00    -0.191 C  
ENDBRANCH  20  23
ENDBRANCH  19  20
ENDBRANCH  18  19
ENDBRANCH  17  18
ENDBRANCH  15  17
ENDBRANCH  13  15
ENDBRANCH   5   6
ENDBRANCH   4   5
ENDBRANCH   3   4
ENDBRANCH   2   3
TORSDOF 11
ENDMDL
MODEL      180
REMARK 921   NORMALIZED FREE ENERGY PREDICTED BY IDOCK:   -3.60 KCAL/MOL
REMARK 922        TOTAL FREE ENERGY PREDICTED BY IDOCK:   -6.92 KCAL/MOL
REMARK 923 INTER-LIGAND FREE ENERGY PREDICTED BY IDOCK:   -6.26 KCAL/MOL
REMARK 924 INTRA-LIGAND FREE ENERGY PREDICTED BY IDOCK:   -0.66 KCAL/MOL
REMARK 927      BINDING AFFINITY PREDICTED BY RF-SCORE:    0.00 PKD
ROOT
HETATM    1  C   UNL     1     -10.723   5.929  70.986  1.00  0.00    -0.331 C  
HETATM    2  C   UNL     1     -11.389   6.349  69.685  1.00  0.00    -0.479 C  
ENDROOT
BRANCH   2   3
HETATM    3  C   UNL     1     -10.454   6.144  68.495  1.00  0.00    -0.284 C  
BRANCH   3   4
HETATM    4  C   UNL     1     -10.736   7.148  67.384  1.00  0.00    -0.298 C  
BRANCH   4   5
HETATM    5  O   UNL     1      -9.684   8.120  67.378  1.00  0.00    -0.151 OA 
BRANCH   5   6
HETATM    6  C   UNL     1      -9.797   9.087  66.407  1.00  0.00    -0.286 A  
HETATM    7  C   UNL     1      -8.937   8.975  65.298  1.00  0.00    -0.183 A  
HETATM    8  C   UNL     1      -9.068   9.884  64.242  1.00  0.00    -0.297 A  
HETATM    9  N   UNL     1      -8.108   7.849  65.145  1.00  0.00    -0.138 NA 
HETATM   10  H1  UNL     1      -7.484   7.767  64.342  1.00  0.00     0.000 HD 
HETATM   11  C   UNL     1      -9.932  10.976  64.344  1.00  0.00    -0.368 A  
HETATM   12  H2  UNL     1      -8.693   7.015  65.180  1.00  0.00     0.000 HD 
HETATM   13  C   UNL     1     -10.705  11.145  65.496  1.00  0.00    -0.251 A  
HETATM   14  C   UNL     1     -10.650  10.185  66.515  1.00  0.00    -0.179 A  
BRANCH  13  15
HETATM   15  C   UNL     1     -11.456  12.417  65.668  1.00  0.00    -0.367 C  
HETATM   16  O   UNL     1     -12.638  12.555  65.407  1.00  0.00    -0.656 OA 
BRANCH  15  17
HETATM   17  O   UNL     1     -10.587  13.408  65.978  1.00  0.00    -0.280 OA 
BRANCH  17  18
HETATM   18  C   UNL     1     -11.205  14.661  66.320  1.00  0.00    -0.340 C  
BRANCH  18  19
HETATM   19  C   UNL     1     -10.071  15.698  66.459  1.00  0.00    -0.282 C  
BRANCH  19  20
HETATM   20  N   UNL     1      -9.626  16.029  67.824  1.00  0.00    -0.218 NA 
BRANCH  20  21
HETATM   21  C   UNL     1     -10.319  15.259  68.867  1.00  0.00    -0.243 C  
HETATM   22  C   UNL     1     -11.136  16.065  69.871  1.00  0.00    -0.352 C  
ENDBRANCH  20  21
BRANCH  20  23
HETATM   23  C   UNL     1      -8.155  15.943  67.887  1.00  0.00    -0.141 C  
HETATM   24  C   UNL     1      -7.626  14.794  68.738  1.00  0.00    -0.137 C  
ENDBRANCH  20  23
ENDBRANCH  19  20
ENDBRANCH  18  19
ENDBRANCH  17  18
ENDBRANCH  15  17
ENDBRANCH  13  15
ENDBRANCH   5   6
ENDBRANCH   4   5
ENDBRANCH   3   4
ENDBRANCH   2   3
TORSDOF 11
ENDMDL
MODEL      181
REMARK 921   NORMALIZED FREE ENERGY PREDICTED BY IDOCK:   -3.60 KCAL/MOL
REMARK 922        TOTAL FREE ENERGY PREDICTED BY IDOCK:   -6.92 KCAL/MOL
REMARK 923 INTER-LIGAND FREE ENERGY PREDICTED BY IDOCK:   -6.22 KCAL/MOL
REMARK 924 INTRA-LIGAND FREE ENERGY PREDICTED BY IDOCK:   -0.70 KCAL/MOL
REMARK 927      BINDING AFFINITY PREDICTED BY RF-SCORE:    0.00 PKD
ROOT
HETATM    1  C   UNL     1      -7.465  10.194  62.887  1.00  0.00    -0.143 C  
HETATM    2  C   UNL     1      -7.852   9.335  64.079  1.00  0.00    -0.126 C  
ENDROOT
BRANCH   2   3
HETATM    3  C   UNL     1      -8.438  10.184  65.205  1.00  0.00    -0.165 C  
BRANCH   3   4
HETATM    4  C   UNL     1      -9.929   9.929  65.379  1.00  0.00    -0.279 C  
BRANCH   4   5
HETATM    5  O   UNL     1     -10.637  11.111  64.990  1.00  0.00    -0.299 OA 
BRANCH   5   6
HETATM    6  C   UNL     1     -10.888  11.997  66.012  1.00  0.00    -0.289 A  
HETATM    7  C   UNL     1     -10.435  13.318  65.830  1.00  0.00    -0.284 A  
HETATM    8  C   UNL     1     -10.739  14.279  66.800  1.00  0.00    -0.287 A  
HETATM    9  N   UNL     1      -9.879  13.723  64.603  1.00  0.00    -0.592 NA 
HETATM   10  H1  UNL     1      -9.551  14.679  64.471  1.00  0.00     0.000 HD 
HETATM   11  C   UNL     1     -11.349  13.912  68.001  1.00  0.00    -0.317 A  
HETATM   12  H2  UNL     1     -10.549  13.511  63.864  1.00  0.00     0.000 HD 
HETATM   13  C   UNL     1     -11.697  12.577  68.224  1.00  0.00    -0.390 A  
HETATM   14  C   UNL     1     -11.485  11.628  67.217  1.00  0.00    -0.350 A  
BRANCH  13  15
HETATM   15  C   UNL     1     -12.152  12.179  69.583  1.00  0.00    -0.218 C  
HETATM   16  O   UNL     1     -12.397  12.964  70.482  1.00  0.00    -0.342 OA 
BRANCH  15  17
HETATM   17  O   UNL     1     -12.072  10.831  69.700  1.00  0.00    -0.308 OA 
BRANCH  17  18
HETATM   18  C   UNL     1     -10.831  10.351  70.244  1.00  0.00    -0.242 C  
BRANCH  18  19
HETATM   19  C   UNL     1     -10.737   8.851  69.894  1.00  0.00    -0.227 C  
BRANCH  19  20
HETATM   20  N   UNL     1     -10.746   7.897  71.017  1.00  0.00    -0.218 NA 
BRANCH  20  21
HETATM   21  C   UNL     1      -9.523   7.941  71.831  1.00  0.00    -0.168 C  
HETATM   22  C   UNL     1      -9.716   7.888  73.343  1.00  0.00    -0.318 C  
ENDBRANCH  20  21
BRANCH  20  23
HETATM   23  C   UNL     1     -11.992   8.069  71.787  1.00  0.00    -0.301 C  
HETATM   24  C   UNL     1     -12.992   6.930  71.630  1.00  0.00    -0.359 C  
ENDBRANCH  20  23
ENDBRANCH  19  20
ENDBRANCH  18  19
ENDBRANCH  17  18
ENDBRANCH  15  17
ENDBRANCH  13  15
ENDBRANCH   5   6
ENDBRANCH   4   5
ENDBRANCH   3   4
ENDBRANCH   2   3
TORSDOF 11
ENDMDL
MODEL      182
REMARK 921   NORMALIZED FREE ENERGY PREDICTED BY IDOCK:   -3.59 KCAL/MOL
REMARK 922        TOTAL FREE ENERGY PREDICTED BY IDOCK:   -6.92 KCAL/MOL
REMARK 923 INTER-LIGAND FREE ENERGY PREDICTED BY IDOCK:   -7.07 KCAL/MOL
REMARK 924 INTRA-LIGAND FREE ENERGY PREDICTED BY IDOCK:    0.16 KCAL/MOL
REMARK 927      BINDING AFFINITY PREDICTED BY RF-SCORE:    0.00 PKD
ROOT
HETATM    1  C   UNL     1      -9.823   4.294  71.129  1.00  0.00    -0.250 C  
HETATM    2  C   UNL     1      -8.889   5.062  72.050  1.00  0.00    -0.139 C  
ENDROOT
BRANCH   2   3
HETATM    3  C   UNL     1      -9.629   6.183  72.776  1.00  0.00    -0.158 C  
BRANCH   3   4
HETATM    4  C   UNL     1     -10.931   6.541  72.071  1.00  0.00    -0.247 C  
BRANCH   4   5
HETATM    5  O   UNL     1     -11.549   7.618  72.785  1.00  0.00    -0.337 OA 
BRANCH   5   6
HETATM    6  C   UNL     1     -11.866   8.715  72.017  1.00  0.00    -0.372 A  
HETATM    7  C   UNL     1     -13.124   9.306  72.246  1.00  0.00    -0.441 A  
HETATM    8  C   UNL     1     -13.461  10.473  71.553  1.00  0.00    -0.265 A  
HETATM    9  N   UNL     1     -13.940   8.866  73.304  1.00  0.00    -1.217 NA 
HETATM   10  H1  UNL     1     -14.851   9.294  73.470  1.00  0.00     0.000 HD 
HETATM   11  C   UNL     1     -12.635  10.965  70.541  1.00  0.00    -0.409 A  
HETATM   12  H2  UNL     1     -13.401   8.920  74.168  1.00  0.00     0.000 HD 
HETATM   13  C   UNL     1     -11.438  10.310  70.240  1.00  0.00    -0.395 A  
HETATM   14  C   UNL     1     -11.047   9.198  70.997  1.00  0.00    -0.374 A  
BRANCH  13  15
HETATM   15  C   UNL     1     -10.682  10.729  69.030  1.00  0.00    -0.228 C  
HETATM   16  O   UNL     1      -9.478  10.908  69.002  1.00  0.00    -0.197 OA 
BRANCH  15  17
HETATM   17  O   UNL     1     -11.559  11.043  68.046  1.00  0.00    -0.452 OA 
BRANCH  17  18
HETATM   18  C   UNL     1     -10.968  11.193  66.744  1.00  0.00    -0.249 C  
BRANCH  18  19
HETATM   19  C   UNL     1      -9.843  10.142  66.637  1.00  0.00    -0.200 C  
BRANCH  19  20
HETATM   20  N   UNL     1      -9.669   9.475  65.334  1.00  0.00    -0.288 NA 
BRANCH  20  21
HETATM   21  C   UNL     1      -9.616  10.409  64.201  1.00  0.00    -0.322 C  
HETATM   22  C   UNL     1      -8.975   9.883  62.921  1.00  0.00    -0.271 C  
ENDBRANCH  20  21
BRANCH  20  23
HETATM   23  C   UNL     1      -8.519   8.554  65.413  1.00  0.00    -0.173 C  
HETATM   24  C   UNL     1      -7.516   8.892  66.510  1.00  0.00    -0.088 C  
ENDBRANCH  20  23
ENDBRANCH  19  20
ENDBRANCH  18  19
ENDBRANCH  17  18
ENDBRANCH  15  17
ENDBRANCH  13  15
ENDBRANCH   5   6
ENDBRANCH   4   5
ENDBRANCH   3   4
ENDBRANCH   2   3
TORSDOF 11
ENDMDL
MODEL      183
REMARK 921   NORMALIZED FREE ENERGY PREDICTED BY IDOCK:   -3.59 KCAL/MOL
REMARK 922        TOTAL FREE ENERGY PREDICTED BY IDOCK:   -6.91 KCAL/MOL
REMARK 923 INTER-LIGAND FREE ENERGY PREDICTED BY IDOCK:   -5.93 KCAL/MOL
REMARK 924 INTRA-LIGAND FREE ENERGY PREDICTED BY IDOCK:   -0.98 KCAL/MOL
REMARK 927      BINDING AFFINITY PREDICTED BY RF-SCORE:    0.00 PKD
ROOT
HETATM    1  C   UNL     1      -9.334  14.518  67.758  1.00  0.00    -0.198 C  
HETATM    2  C   UNL     1     -10.538  14.733  68.659  1.00  0.00    -0.255 C  
ENDROOT
BRANCH   2   3
HETATM    3  C   UNL     1     -11.827  14.278  67.977  1.00  0.00    -0.379 C  
BRANCH   3   4
HETATM    4  C   UNL     1     -11.657  14.193  66.465  1.00  0.00    -0.375 C  
BRANCH   4   5
HETATM    5  O   UNL     1     -12.126  12.911  66.031  1.00  0.00    -0.424 OA 
BRANCH   5   6
HETATM    6  C   UNL     1     -11.222  12.183  65.294  1.00  0.00    -0.332 A  
HETATM    7  C   UNL     1     -11.472  12.076  63.912  1.00  0.00    -0.435 A  
HETATM    8  C   UNL     1     -10.539  11.419  63.103  1.00  0.00    -0.278 A  
HETATM    9  N   UNL     1     -12.522  12.796  63.315  1.00  0.00    -0.755 NA 
HETATM   10  H1  UNL     1     -12.703  12.719  62.315  1.00  0.00     0.000 HD 
HETATM   11  C   UNL     1      -9.451  10.749  63.667  1.00  0.00    -0.325 A  
HETATM   12  H2  UNL     1     -12.400  13.783  63.541  1.00  0.00     0.000 HD 
HETATM   13  C   UNL     1      -9.268  10.765  65.052  1.00  0.00    -0.241 A  
HETATM   14  C   UNL     1     -10.144  11.503  65.859  1.00  0.00    -0.271 A  
BRANCH  13  15
HETATM   15  C   UNL     1      -8.230   9.879  65.643  1.00  0.00    -0.138 C  
HETATM   16  O   UNL     1      -7.438  10.228  66.500  1.00  0.00    -0.104 OA 
BRANCH  15  17
HETATM   17  O   UNL     1      -8.198   8.712  64.954  1.00  0.00    -0.141 OA 
BRANCH  17  18
HETATM   18  C   UNL     1      -7.736   7.582  65.714  1.00  0.00    -0.098 C  
BRANCH  18  19
HETATM   19  C   UNL     1      -8.977   6.728  66.048  1.00  0.00    -0.106 C  
BRANCH  19  20
HETATM   20  N   UNL     1      -9.288   6.524  67.475  1.00  0.00    -0.122 NA 
BRANCH  20  21
HETATM   21  C   UNL     1      -8.710   7.552  68.351  1.00  0.00    -0.123 C  
HETATM   22  C   UNL     1      -7.563   7.104  69.252  1.00  0.00    -0.102 C  
ENDBRANCH  20  21
BRANCH  20  23
HETATM   23  C   UNL     1     -10.744   6.346  67.631  1.00  0.00    -0.311 C  
HETATM   24  C   UNL     1     -11.217   6.266  69.077  1.00  0.00    -0.415 C  
ENDBRANCH  20  23
ENDBRANCH  19  20
ENDBRANCH  18  19
ENDBRANCH  17  18
ENDBRANCH  15  17
ENDBRANCH  13  15
ENDBRANCH   5   6
ENDBRANCH   4   5
ENDBRANCH   3   4
ENDBRANCH   2   3
TORSDOF 11
ENDMDL
MODEL      184
REMARK 921   NORMALIZED FREE ENERGY PREDICTED BY IDOCK:   -3.59 KCAL/MOL
REMARK 922        TOTAL FREE ENERGY PREDICTED BY IDOCK:   -6.90 KCAL/MOL
REMARK 923 INTER-LIGAND FREE ENERGY PREDICTED BY IDOCK:   -5.95 KCAL/MOL
REMARK 924 INTRA-LIGAND FREE ENERGY PREDICTED BY IDOCK:   -0.95 KCAL/MOL
REMARK 927      BINDING AFFINITY PREDICTED BY RF-SCORE:    0.00 PKD
ROOT
HETATM    1  C   UNL     1      -9.829  10.850  64.533  1.00  0.00    -0.356 C  
HETATM    2  C   UNL     1      -9.082  11.146  65.823  1.00  0.00    -0.222 C  
ENDROOT
BRANCH   2   3
HETATM    3  C   UNL     1      -9.589  10.271  66.968  1.00  0.00    -0.205 C  
BRANCH   3   4
HETATM    4  C   UNL     1     -10.104   8.930  66.460  1.00  0.00    -0.286 C  
BRANCH   4   5
HETATM    5  O   UNL     1      -9.027   7.987  66.509  1.00  0.00    -0.140 OA 
BRANCH   5   6
HETATM    6  C   UNL     1      -9.316   6.813  67.164  1.00  0.00    -0.136 A  
HETATM    7  C   UNL     1      -9.340   5.641  66.383  1.00  0.00    -0.154 A  
HETATM    8  C   UNL     1      -9.545   4.409  67.013  1.00  0.00    -0.221 A  
HETATM    9  N   UNL     1      -8.949   5.673  65.032  1.00  0.00    -0.355 NA 
HETATM   10  H1  UNL     1      -8.966   4.825  64.466  1.00  0.00     0.000 HD 
HETATM   11  C   UNL     1      -9.872   4.348  68.370  1.00  0.00    -0.132 A  
HETATM   12  H2  UNL     1      -8.013   6.072  64.979  1.00  0.00     0.000 HD 
HETATM   13  C   UNL     1      -9.957   5.525  69.118  1.00  0.00    -0.256 A  
HETATM   14  C   UNL     1      -9.656   6.753  68.516  1.00  0.00    -0.130 A  
BRANCH  13  15
HETATM   15  C   UNL     1     -10.505   5.451  70.499  1.00  0.00    -0.265 C  
HETATM   16  O   UNL     1     -10.126   4.661  71.345  1.00  0.00    -0.191 OA 
BRANCH  15  17
HETATM   17  O   UNL     1     -11.586   6.262  70.591  1.00  0.00    -0.353 OA 
BRANCH  17  18
HETATM   18  C   UNL     1     -12.064   6.472  71.930  1.00  0.00    -0.339 C  
BRANCH  18  19
HETATM   19  C   UNL     1     -11.751   7.938  72.295  1.00  0.00    -0.355 C  
BRANCH  19  20
HETATM   20  N   UNL     1     -11.076   8.756  71.271  1.00  0.00    -0.257 NA 
BRANCH  20  21
HETATM   21  C   UNL     1     -11.736  10.046  71.027  1.00  0.00    -0.392 C  
HETATM   22  C   UNL     1     -13.005  10.318  71.827  1.00  0.00    -0.574 C  
ENDBRANCH  20  21
BRANCH  20  23
HETATM   23  C   UNL     1      -9.644   8.863  71.605  1.00  0.00    -0.293 C  
HETATM   24  C   UNL     1      -9.230   8.101  72.858  1.00  0.00    -0.343 C  
ENDBRANCH  20  23
ENDBRANCH  19  20
ENDBRANCH  18  19
ENDBRANCH  17  18
ENDBRANCH  15  17
ENDBRANCH  13  15
ENDBRANCH   5   6
ENDBRANCH   4   5
ENDBRANCH   3   4
ENDBRANCH   2   3
TORSDOF 11
ENDMDL
MODEL      185
REMARK 921   NORMALIZED FREE ENERGY PREDICTED BY IDOCK:   -3.59 KCAL/MOL
REMARK 922        TOTAL FREE ENERGY PREDICTED BY IDOCK:   -6.90 KCAL/MOL
REMARK 923 INTER-LIGAND FREE ENERGY PREDICTED BY IDOCK:   -6.05 KCAL/MOL
REMARK 924 INTRA-LIGAND FREE ENERGY PREDICTED BY IDOCK:   -0.85 KCAL/MOL
REMARK 927      BINDING AFFINITY PREDICTED BY RF-SCORE:    0.00 PKD
ROOT
HETATM    1  C   UNL     1     -12.508  11.178  70.854  1.00  0.00    -0.509 C  
HETATM    2  C   UNL     1     -13.208  10.141  71.716  1.00  0.00    -0.542 C  
ENDROOT
BRANCH   2   3
HETATM    3  C   UNL     1     -12.383   8.859  71.817  1.00  0.00    -0.424 C  
BRANCH   3   4
HETATM    4  C   UNL     1     -10.891   9.146  71.713  1.00  0.00    -0.345 C  
BRANCH   4   5
HETATM    5  O   UNL     1     -10.334   8.281  70.716  1.00  0.00    -0.191 OA 
BRANCH   5   6
HETATM    6  C   UNL     1     -10.194   8.849  69.471  1.00  0.00    -0.204 A  
HETATM    7  C   UNL     1     -10.505   8.035  68.365  1.00  0.00    -0.163 A  
HETATM    8  C   UNL     1     -10.461   8.589  67.081  1.00  0.00    -0.370 A  
HETATM    9  N   UNL     1     -11.060   6.756  68.550  1.00  0.00    -0.502 NA 
HETATM   10  H1  UNL     1     -11.285   6.166  67.749  1.00  0.00     0.000 HD 
HETATM   11  C   UNL     1      -9.974   9.882  66.879  1.00  0.00    -0.268 A  
HETATM   12  H2  UNL     1     -11.899   6.851  69.121  1.00  0.00     0.000 HD 
HETATM   13  C   UNL     1      -9.561  10.648  67.971  1.00  0.00    -0.167 A  
HETATM   14  C   UNL     1      -9.694  10.135  69.268  1.00  0.00    -0.238 A  
BRANCH  13  15
HETATM   15  C   UNL     1      -8.857  11.933  67.714  1.00  0.00    -0.166 C  
HETATM   16  O   UNL     1      -7.791  12.243  68.216  1.00  0.00    -0.138 OA 
BRANCH  15  17
HETATM   17  O   UNL     1      -9.667  12.746  66.994  1.00  0.00    -0.214 OA 
BRANCH  17  18
HETATM   18  C   UNL     1     -10.095  13.931  67.689  1.00  0.00    -0.241 C  
BRANCH  18  19
HETATM   19  C   UNL     1      -9.698  15.135  66.809  1.00  0.00    -0.242 C  
BRANCH  19  20
HETATM   20  N   UNL     1      -8.849  16.169  67.429  1.00  0.00    -0.184 NA 
BRANCH  20  21
HETATM   21  C   UNL     1      -7.809  15.619  68.310  1.00  0.00    -0.128 C  
HETATM   22  C   UNL     1      -7.030  16.629  69.147  1.00  0.00    -0.227 C  
ENDBRANCH  20  21
BRANCH  20  23
HETATM   23  C   UNL     1      -8.337  17.067  66.377  1.00  0.00    -0.284 C  
HETATM   24  C   UNL     1      -8.810  18.511  66.498  1.00  0.00    -0.301 C  
ENDBRANCH  20  23
ENDBRANCH  19  20
ENDBRANCH  18  19
ENDBRANCH  17  18
ENDBRANCH  15  17
ENDBRANCH  13  15
ENDBRANCH   5   6
ENDBRANCH   4   5
ENDBRANCH   3   4
ENDBRANCH   2   3
TORSDOF 11
ENDMDL
MODEL      186
REMARK 921   NORMALIZED FREE ENERGY PREDICTED BY IDOCK:   -3.55 KCAL/MOL
REMARK 922        TOTAL FREE ENERGY PREDICTED BY IDOCK:   -6.85 KCAL/MOL
REMARK 923 INTER-LIGAND FREE ENERGY PREDICTED BY IDOCK:   -6.07 KCAL/MOL
REMARK 924 INTRA-LIGAND FREE ENERGY PREDICTED BY IDOCK:   -0.78 KCAL/MOL
REMARK 927      BINDING AFFINITY PREDICTED BY RF-SCORE:    0.00 PKD
ROOT
HETATM    1  C   UNL     1     -10.348   4.192  64.836  1.00  0.00    -0.210 C  
HETATM    2  C   UNL     1      -9.390   4.931  65.756  1.00  0.00    -0.165 C  
ENDROOT
BRANCH   2   3
HETATM    3  C   UNL     1      -9.915   4.961  67.190  1.00  0.00    -0.229 C  
BRANCH   3   4
HETATM    4  C   UNL     1     -10.819   6.164  67.428  1.00  0.00    -0.343 C  
BRANCH   4   5
HETATM    5  O   UNL     1     -11.189   6.183  68.812  1.00  0.00    -0.367 OA 
BRANCH   5   6
HETATM    6  C   UNL     1     -10.800   7.308  69.499  1.00  0.00    -0.209 A  
HETATM    7  C   UNL     1     -11.276   7.442  70.818  1.00  0.00    -0.271 A  
HETATM    8  C   UNL     1     -10.843   8.525  71.589  1.00  0.00    -0.356 A  
HETATM    9  N   UNL     1     -11.999   6.400  71.428  1.00  0.00    -0.303 NA 
HETATM   10  H1  UNL     1     -12.344   6.497  72.382  1.00  0.00     0.000 HD 
HETATM   11  C   UNL     1     -10.070   9.541  71.023  1.00  0.00    -0.299 A  
HETATM   12  H2  UNL     1     -11.438   5.550  71.376  1.00  0.00     0.000 HD 
HETATM   13  C   UNL     1      -9.692   9.459  69.680  1.00  0.00    -0.202 A  
HETATM   14  C   UNL     1     -10.040   8.330  68.929  1.00  0.00    -0.208 A  
BRANCH  13  15
HETATM   15  C   UNL     1      -9.051  10.644  69.049  1.00  0.00    -0.166 C  
HETATM   16  O   UNL     1      -7.851  10.854  69.047  1.00  0.00    -0.132 OA 
BRANCH  15  17
HETATM   17  O   UNL     1     -10.014  11.510  68.651  1.00  0.00    -0.210 OA 
BRANCH  17  18
HETATM   18  C   UNL     1      -9.573  12.502  67.708  1.00  0.00    -0.203 C  
BRANCH  18  19
HETATM   19  C   UNL     1      -9.934  11.979  66.303  1.00  0.00    -0.227 C  
BRANCH  19  20
HETATM   20  N   UNL     1     -10.660  12.898  65.409  1.00  0.00    -0.284 NA 
BRANCH  20  21
HETATM   21  C   UNL     1     -11.899  12.326  64.863  1.00  0.00    -0.358 C  
HETATM   22  C   UNL     1     -12.247  12.713  63.429  1.00  0.00    -0.610 C  
ENDBRANCH  20  21
BRANCH  20  23
HETATM   23  C   UNL     1     -10.843  14.193  66.092  1.00  0.00    -0.296 C  
HETATM   24  C   UNL     1     -10.300  15.392  65.325  1.00  0.00    -0.420 C  
ENDBRANCH  20  23
ENDBRANCH  19  20
ENDBRANCH  18  19
ENDBRANCH  17  18
ENDBRANCH  15  17
ENDBRANCH  13  15
ENDBRANCH   5   6
ENDBRANCH   4   5
ENDBRANCH   3   4
ENDBRANCH   2   3
TORSDOF 11
ENDMDL
MODEL      187
REMARK 921   NORMALIZED FREE ENERGY PREDICTED BY IDOCK:   -3.55 KCAL/MOL
REMARK 922        TOTAL FREE ENERGY PREDICTED BY IDOCK:   -6.84 KCAL/MOL
REMARK 923 INTER-LIGAND FREE ENERGY PREDICTED BY IDOCK:   -6.11 KCAL/MOL
REMARK 924 INTRA-LIGAND FREE ENERGY PREDICTED BY IDOCK:   -0.73 KCAL/MOL
REMARK 927      BINDING AFFINITY PREDICTED BY RF-SCORE:    0.00 PKD
ROOT
HETATM    1  C   UNL     1     -10.453   4.401  65.467  1.00  0.00    -0.228 C  
HETATM    2  C   UNL     1      -9.355   5.353  65.911  1.00  0.00    -0.155 C  
ENDROOT
BRANCH   2   3
HETATM    3  C   UNL     1      -9.443   5.637  67.409  1.00  0.00    -0.116 C  
BRANCH   3   4
HETATM    4  C   UNL     1     -10.798   6.222  67.787  1.00  0.00    -0.338 C  
BRANCH   4   5
HETATM    5  O   UNL     1     -10.843   6.369  69.211  1.00  0.00    -0.258 OA 
BRANCH   5   6
HETATM    6  C   UNL     1     -10.965   7.665  69.656  1.00  0.00    -0.137 A  
HETATM    7  C   UNL     1     -11.380   7.841  70.990  1.00  0.00    -0.271 A  
HETATM    8  C   UNL     1     -11.439   9.135  71.517  1.00  0.00    -0.437 A  
HETATM    9  N   UNL     1     -11.526   6.735  71.847  1.00  0.00    -0.268 NA 
HETATM   10  H1  UNL     1     -11.826   6.862  72.813  1.00  0.00     0.000 HD 
HETATM   11  C   UNL     1     -11.235  10.248  70.699  1.00  0.00    -0.406 A  
HETATM   12  H2  UNL     1     -10.647   6.218  71.852  1.00  0.00     0.000 HD 
HETATM   13  C   UNL     1     -10.932  10.071  69.347  1.00  0.00    -0.280 A  
HETATM   14  C   UNL     1     -10.775   8.777  68.835  1.00  0.00    -0.114 A  
BRANCH  13  15
HETATM   15  C   UNL     1     -10.925  11.263  68.457  1.00  0.00    -0.220 C  
HETATM   16  O   UNL     1     -10.584  11.243  67.288  1.00  0.00    -0.210 OA 
BRANCH  15  17
HETATM   17  O   UNL     1     -11.178  12.370  69.196  1.00  0.00    -0.245 OA 
BRANCH  17  18
HETATM   18  C   UNL     1     -10.856  13.611  68.544  1.00  0.00    -0.257 C  
BRANCH  18  19
HETATM   19  C   UNL     1     -12.129  14.482  68.581  1.00  0.00    -0.218 C  
BRANCH  19  20
HETATM   20  N   UNL     1     -12.115  15.656  69.471  1.00  0.00    -0.340 NA 
BRANCH  20  21
HETATM   21  C   UNL     1     -12.500  15.345  70.855  1.00  0.00    -0.418 C  
HETATM   22  C   UNL     1     -11.899  16.234  71.939  1.00  0.00    -0.538 C  
ENDBRANCH  20  21
BRANCH  20  23
HETATM   23  C   UNL     1     -10.815  16.342  69.345  1.00  0.00    -0.327 C  
HETATM   24  C   UNL     1     -10.756  17.379  68.230  1.00  0.00    -0.327 C  
ENDBRANCH  20  23
ENDBRANCH  19  20
ENDBRANCH  18  19
ENDBRANCH  17  18
ENDBRANCH  15  17
ENDBRANCH  13  15
ENDBRANCH   5   6
ENDBRANCH   4   5
ENDBRANCH   3   4
ENDBRANCH   2   3
TORSDOF 11
ENDMDL
MODEL      188
REMARK 921   NORMALIZED FREE ENERGY PREDICTED BY IDOCK:   -3.55 KCAL/MOL
REMARK 922        TOTAL FREE ENERGY PREDICTED BY IDOCK:   -6.84 KCAL/MOL
REMARK 923 INTER-LIGAND FREE ENERGY PREDICTED BY IDOCK:   -6.15 KCAL/MOL
REMARK 924 INTRA-LIGAND FREE ENERGY PREDICTED BY IDOCK:   -0.69 KCAL/MOL
REMARK 927      BINDING AFFINITY PREDICTED BY RF-SCORE:    0.00 PKD
ROOT
HETATM    1  C   UNL     1     -10.276   3.876  72.291  1.00  0.00    -0.216 C  
HETATM    2  C   UNL     1      -9.158   4.812  71.862  1.00  0.00    -0.163 C  
ENDROOT
BRANCH   2   3
HETATM    3  C   UNL     1      -9.592   6.273  71.961  1.00  0.00    -0.161 C  
BRANCH   3   4
HETATM    4  C   UNL     1     -11.109   6.403  72.003  1.00  0.00    -0.265 C  
BRANCH   4   5
HETATM    5  O   UNL     1     -11.439   7.612  72.697  1.00  0.00    -0.340 OA 
BRANCH   5   6
HETATM    6  C   UNL     1     -11.794   8.665  71.887  1.00  0.00    -0.351 A  
HETATM    7  C   UNL     1     -13.022   9.295  72.168  1.00  0.00    -0.424 A  
HETATM    8  C   UNL     1     -13.390  10.423  71.428  1.00  0.00    -0.373 A  
HETATM    9  N   UNL     1     -13.766   8.938  73.307  1.00  0.00    -1.079 NA 
HETATM   10  H1  UNL     1     -14.655   9.394  73.510  1.00  0.00     0.000 HD 
HETATM   11  C   UNL     1     -12.631  10.836  70.331  1.00  0.00    -0.395 A  
HETATM   12  H2  UNL     1     -13.164   9.034  74.124  1.00  0.00     0.000 HD 
HETATM   13  C   UNL     1     -11.471  10.139  69.987  1.00  0.00    -0.344 A  
HETATM   14  C   UNL     1     -11.044   9.068  70.782  1.00  0.00    -0.328 A  
BRANCH  13  15
HETATM   15  C   UNL     1     -10.799  10.467  68.701  1.00  0.00    -0.237 C  
HETATM   16  O   UNL     1     -11.365  10.944  67.734  1.00  0.00    -0.340 OA 
BRANCH  15  17
HETATM   17  O   UNL     1      -9.531   9.990  68.728  1.00  0.00    -0.150 OA 
BRANCH  17  18
HETATM   18  C   UNL     1      -8.626  10.645  67.823  1.00  0.00    -0.123 C  
BRANCH  18  19
HETATM   19  C   UNL     1      -8.018  11.842  68.584  1.00  0.00    -0.116 C  
BRANCH  19  20
HETATM   20  N   UNL     1      -7.615  13.012  67.783  1.00  0.00    -0.136 NA 
BRANCH  20  21
HETATM   21  C   UNL     1      -8.396  14.221  68.082  1.00  0.00    -0.162 C  
HETATM   22  C   UNL     1      -9.889  14.152  67.781  1.00  0.00    -0.231 C  
ENDBRANCH  20  21
BRANCH  20  23
HETATM   23  C   UNL     1      -6.156  13.193  67.892  1.00  0.00    -0.139 C  
HETATM   24  C   UNL     1      -5.605  13.039  69.305  1.00  0.00    -0.080 C  
ENDBRANCH  20  23
ENDBRANCH  19  20
ENDBRANCH  18  19
ENDBRANCH  17  18
ENDBRANCH  15  17
ENDBRANCH  13  15
ENDBRANCH   5   6
ENDBRANCH   4   5
ENDBRANCH   3   4
ENDBRANCH   2   3
TORSDOF 11
ENDMDL
MODEL      189
REMARK 921   NORMALIZED FREE ENERGY PREDICTED BY IDOCK:   -3.54 KCAL/MOL
REMARK 922        TOTAL FREE ENERGY PREDICTED BY IDOCK:   -6.83 KCAL/MOL
REMARK 923 INTER-LIGAND FREE ENERGY PREDICTED BY IDOCK:   -6.61 KCAL/MOL
REMARK 924 INTRA-LIGAND FREE ENERGY PREDICTED BY IDOCK:   -0.22 KCAL/MOL
REMARK 927      BINDING AFFINITY PREDICTED BY RF-SCORE:    0.00 PKD
ROOT
HETATM    1  C   UNL     1     -10.449   8.258  66.859  1.00  0.00    -0.365 C  
HETATM    2  C   UNL     1     -10.928   6.881  67.288  1.00  0.00    -0.406 C  
ENDROOT
BRANCH   2   3
HETATM    3  C   UNL     1     -10.674   6.647  68.776  1.00  0.00    -0.302 C  
BRANCH   3   4
HETATM    4  C   UNL     1      -9.187   6.498  69.071  1.00  0.00    -0.130 C  
BRANCH   4   5
HETATM    5  O   UNL     1      -8.885   7.249  70.253  1.00  0.00    -0.146 OA 
BRANCH   5   6
HETATM    6  C   UNL     1      -9.959   7.899  70.815  1.00  0.00    -0.184 A  
HETATM    7  C   UNL     1     -10.675   7.201  71.806  1.00  0.00    -0.215 A  
HETATM    8  C   UNL     1     -11.723   7.848  72.469  1.00  0.00    -0.423 A  
HETATM    9  N   UNL     1     -10.216   5.958  72.280  1.00  0.00    -0.186 NA 
HETATM   10  H1  UNL     1     -10.735   5.452  72.998  1.00  0.00     0.000 HD 
HETATM   11  C   UNL     1     -12.155   9.111  72.059  1.00  0.00    -0.431 A  
HETATM   12  H2  UNL     1      -9.256   6.074  72.602  1.00  0.00     0.000 HD 
HETATM   13  C   UNL     1     -11.512   9.755  70.999  1.00  0.00    -0.458 A  
HETATM   14  C   UNL     1     -10.400   9.154  70.395  1.00  0.00    -0.269 A  
BRANCH  13  15
HETATM   15  C   UNL     1     -12.117  10.997  70.449  1.00  0.00    -0.373 C  
HETATM   16  O   UNL     1     -12.805  11.768  71.094  1.00  0.00    -0.350 OA 
BRANCH  15  17
HETATM   17  O   UNL     1     -11.932  11.024  69.107  1.00  0.00    -0.329 OA 
BRANCH  17  18
HETATM   18  C   UNL     1     -11.542  12.306  68.584  1.00  0.00    -0.323 C  
BRANCH  18  19
HETATM   19  C   UNL     1     -11.323  12.124  67.067  1.00  0.00    -0.337 C  
BRANCH  19  20
HETATM   20  N   UNL     1     -10.060  12.636  66.505  1.00  0.00    -0.243 NA 
BRANCH  20  21
HETATM   21  C   UNL     1      -9.098  11.576  66.170  1.00  0.00    -0.209 C  
HETATM   22  C   UNL     1      -7.831  11.522  67.016  1.00  0.00    -0.161 C  
ENDBRANCH  20  21
BRANCH  20  23
HETATM   23  C   UNL     1     -10.364  13.551  65.389  1.00  0.00    -0.319 C  
HETATM   24  C   UNL     1     -10.810  12.856  64.108  1.00  0.00    -0.445 C  
ENDBRANCH  20  23
ENDBRANCH  19  20
ENDBRANCH  18  19
ENDBRANCH  17  18
ENDBRANCH  15  17
ENDBRANCH  13  15
ENDBRANCH   5   6
ENDBRANCH   4   5
ENDBRANCH   3   4
ENDBRANCH   2   3
TORSDOF 11
ENDMDL
MODEL      190
REMARK 921   NORMALIZED FREE ENERGY PREDICTED BY IDOCK:   -3.53 KCAL/MOL
REMARK 922        TOTAL FREE ENERGY PREDICTED BY IDOCK:   -6.81 KCAL/MOL
REMARK 923 INTER-LIGAND FREE ENERGY PREDICTED BY IDOCK:   -6.06 KCAL/MOL
REMARK 924 INTRA-LIGAND FREE ENERGY PREDICTED BY IDOCK:   -0.76 KCAL/MOL
REMARK 927      BINDING AFFINITY PREDICTED BY RF-SCORE:    0.00 PKD
ROOT
HETATM    1  C   UNL     1     -13.608  15.744  72.980  1.00  0.00    -0.638 C  
HETATM    2  C   UNL     1     -13.631  15.171  71.573  1.00  0.00    -0.564 C  
ENDROOT
BRANCH   2   3
HETATM    3  C   UNL     1     -12.472  15.710  70.737  1.00  0.00    -0.484 C  
BRANCH   3   4
HETATM    4  C   UNL     1     -12.642  15.370  69.262  1.00  0.00     0.174 C  
BRANCH   4   5
HETATM    5  O   UNL     1     -11.516  15.893  68.547  1.00  0.00    -0.367 OA 
BRANCH   5   6
HETATM    6  C   UNL     1     -10.666  14.942  68.032  1.00  0.00    -0.253 A  
HETATM    7  C   UNL     1      -9.481  15.410  67.433  1.00  0.00    -0.205 A  
HETATM    8  C   UNL     1      -8.543  14.481  66.969  1.00  0.00    -0.241 A  
HETATM    9  N   UNL     1      -9.137  16.773  67.492  1.00  0.00    -0.209 NA 
HETATM   10  H1  UNL     1      -8.279  17.111  67.058  1.00  0.00     0.000 HD 
HETATM   11  C   UNL     1      -8.835  13.116  66.960  1.00  0.00    -0.212 A  
HETATM   12  H2  UNL     1      -9.135  17.059  68.471  1.00  0.00     0.000 HD 
HETATM   13  C   UNL     1     -10.061  12.664  67.454  1.00  0.00    -0.218 A  
HETATM   14  C   UNL     1     -10.964  13.579  68.010  1.00  0.00    -0.271 A  
BRANCH  13  15
HETATM   15  C   UNL     1     -10.431  11.239  67.244  1.00  0.00    -0.214 C  
HETATM   16  O   UNL     1     -10.573  10.722  66.150  1.00  0.00    -0.239 OA 
BRANCH  15  17
HETATM   17  O   UNL     1     -10.752  10.683  68.437  1.00  0.00    -0.193 OA 
BRANCH  17  18
HETATM   18  C   UNL     1      -9.770   9.769  68.954  1.00  0.00    -0.171 C  
BRANCH  18  19
HETATM   19  C   UNL     1     -10.506   8.450  69.269  1.00  0.00    -0.215 C  
BRANCH  19  20
HETATM   20  N   UNL     1     -11.145   8.336  70.592  1.00  0.00    -0.252 NA 
BRANCH  20  21
HETATM   21  C   UNL     1     -11.746   7.017  70.839  1.00  0.00    -0.343 C  
HETATM   22  C   UNL     1     -13.001   6.999  71.705  1.00  0.00    -0.400 C  
ENDBRANCH  20  21
BRANCH  20  23
HETATM   23  C   UNL     1     -10.189   8.768  71.629  1.00  0.00    -0.324 C  
HETATM   24  C   UNL     1      -9.487   7.627  72.354  1.00  0.00    -0.217 C  
ENDBRANCH  20  23
ENDBRANCH  19  20
ENDBRANCH  18  19
ENDBRANCH  17  18
ENDBRANCH  15  17
ENDBRANCH  13  15
ENDBRANCH   5   6
ENDBRANCH   4   5
ENDBRANCH   3   4
ENDBRANCH   2   3
TORSDOF 11
ENDMDL
MODEL      191
REMARK 921   NORMALIZED FREE ENERGY PREDICTED BY IDOCK:   -3.53 KCAL/MOL
REMARK 922        TOTAL FREE ENERGY PREDICTED BY IDOCK:   -6.81 KCAL/MOL
REMARK 923 INTER-LIGAND FREE ENERGY PREDICTED BY IDOCK:   -5.90 KCAL/MOL
REMARK 924 INTRA-LIGAND FREE ENERGY PREDICTED BY IDOCK:   -0.92 KCAL/MOL
REMARK 927      BINDING AFFINITY PREDICTED BY RF-SCORE:    0.00 PKD
ROOT
HETATM    1  C   UNL     1     -12.892  10.439  70.918  1.00  0.00    -0.482 C  
HETATM    2  C   UNL     1     -11.474  10.151  71.382  1.00  0.00    -0.234 C  
ENDROOT
BRANCH   2   3
HETATM    3  C   UNL     1     -10.892   8.938  70.659  1.00  0.00    -0.286 C  
BRANCH   3   4
HETATM    4  C   UNL     1     -10.397   9.304  69.265  1.00  0.00    -0.215 C  
BRANCH   4   5
HETATM    5  O   UNL     1     -10.092   8.093  68.564  1.00  0.00    -0.189 OA 
BRANCH   5   6
HETATM    6  C   UNL     1      -9.444   8.267  67.364  1.00  0.00    -0.151 A  
HETATM    7  C   UNL     1      -8.275   7.508  67.159  1.00  0.00    -0.114 A  
HETATM    8  C   UNL     1      -7.625   7.585  65.922  1.00  0.00    -0.088 A  
HETATM    9  N   UNL     1      -7.885   6.528  68.089  1.00  0.00    -0.105 NA 
HETATM   10  H1  UNL     1      -7.039   5.979  67.940  1.00  0.00     0.000 HD 
HETATM   11  C   UNL     1      -8.035   8.507  64.957  1.00  0.00    -0.131 A  
HETATM   12  H2  UNL     1      -8.664   5.884  68.219  1.00  0.00     0.000 HD 
HETATM   13  C   UNL     1      -9.129   9.337  65.209  1.00  0.00    -0.271 A  
HETATM   14  C   UNL     1      -9.844   9.198  66.405  1.00  0.00    -0.350 A  
BRANCH  13  15
HETATM   15  C   UNL     1      -9.415  10.445  64.259  1.00  0.00    -0.294 C  
HETATM   16  O   UNL     1      -9.425  10.322  63.046  1.00  0.00    -0.293 OA 
BRANCH  15  17
HETATM   17  O   UNL     1      -9.479  11.612  64.943  1.00  0.00    -0.192 OA 
BRANCH  17  18
HETATM   18  C   UNL     1     -10.435  12.555  64.430  1.00  0.00    -0.359 C  
BRANCH  18  19
HETATM   19  C   UNL     1     -11.671  12.490  65.352  1.00  0.00    -0.398 C  
BRANCH  19  20
HETATM   20  N   UNL     1     -12.426  13.740  65.554  1.00  0.00    -0.486 NA 
BRANCH  20  21
HETATM   21  C   UNL     1     -12.128  14.403  66.831  1.00  0.00    -0.356 C  
HETATM   22  C   UNL     1     -11.591  13.511  67.946  1.00  0.00    -0.377 C  
ENDBRANCH  20  21
BRANCH  20  23
HETATM   23  C   UNL     1     -12.255  14.604  64.371  1.00  0.00    -0.452 C  
HETATM   24  C   UNL     1     -11.780  16.017  64.686  1.00  0.00    -0.073 C  
ENDBRANCH  20  23
ENDBRANCH  19  20
ENDBRANCH  18  19
ENDBRANCH  17  18
ENDBRANCH  15  17
ENDBRANCH  13  15
ENDBRANCH   5   6
ENDBRANCH   4   5
ENDBRANCH   3   4
ENDBRANCH   2   3
TORSDOF 11
ENDMDL
MODEL      192
REMARK 921   NORMALIZED FREE ENERGY PREDICTED BY IDOCK:   -3.53 KCAL/MOL
REMARK 922        TOTAL FREE ENERGY PREDICTED BY IDOCK:   -6.80 KCAL/MOL
REMARK 923 INTER-LIGAND FREE ENERGY PREDICTED BY IDOCK:   -6.05 KCAL/MOL
REMARK 924 INTRA-LIGAND FREE ENERGY PREDICTED BY IDOCK:   -0.76 KCAL/MOL
REMARK 927      BINDING AFFINITY PREDICTED BY RF-SCORE:    0.00 PKD
ROOT
HETATM    1  C   UNL     1      -7.462  18.556  66.351  1.00  0.00    -0.279 C  
HETATM    2  C   UNL     1      -8.148  17.273  65.911  1.00  0.00    -0.036 C  
ENDROOT
BRANCH   2   3
HETATM    3  C   UNL     1      -8.821  16.575  67.090  1.00  0.00    -0.213 C  
BRANCH   3   4
HETATM    4  C   UNL     1     -10.176  16.000  66.698  1.00  0.00    -0.291 C  
BRANCH   4   5
HETATM    5  O   UNL     1     -10.169  15.752  65.287  1.00  0.00    -0.375 OA 
BRANCH   5   6
HETATM    6  C   UNL     1     -10.561  14.486  64.920  1.00  0.00    -0.427 A  
HETATM    7  C   UNL     1     -11.813  14.370  64.286  1.00  0.00    -0.364 A  
HETATM    8  C   UNL     1     -12.223  13.117  63.817  1.00  0.00    -0.528 A  
HETATM    9  N   UNL     1     -12.547  15.516  63.933  1.00  0.00    -0.828 NA 
HETATM   10  H1  UNL     1     -13.453  15.432  63.474  1.00  0.00     0.000 HD 
HETATM   11  C   UNL     1     -11.477  11.970  64.101  1.00  0.00    -0.460 A  
HETATM   12  H2  UNL     1     -11.952  16.111  63.356  1.00  0.00     0.000 HD 
HETATM   13  C   UNL     1     -10.289  12.076  64.828  1.00  0.00    -0.318 A  
HETATM   14  C   UNL     1      -9.824  13.339  65.216  1.00  0.00    -0.097 A  
BRANCH  13  15
HETATM   15  C   UNL     1      -9.627  10.829  65.293  1.00  0.00    -0.229 C  
HETATM   16  O   UNL     1      -9.044  10.049  64.561  1.00  0.00    -0.203 OA 
BRANCH  15  17
HETATM   17  O   UNL     1      -9.931  10.624  66.598  1.00  0.00    -0.197 OA 
BRANCH  17  18
HETATM   18  C   UNL     1     -10.265   9.265  66.927  1.00  0.00    -0.256 C  
BRANCH  18  19
HETATM   19  C   UNL     1      -9.394   8.869  68.138  1.00  0.00    -0.142 C  
BRANCH  19  20
HETATM   20  N   UNL     1      -9.071   7.439  68.294  1.00  0.00    -0.129 NA 
BRANCH  20  21
HETATM   21  C   UNL     1      -9.561   6.863  69.554  1.00  0.00    -0.148 C  
HETATM   22  C   UNL     1     -10.960   7.285  69.990  1.00  0.00    -0.273 C  
ENDBRANCH  20  21
BRANCH  20  23
HETATM   23  C   UNL     1      -9.505   6.711  67.087  1.00  0.00    -0.136 C  
HETATM   24  C   UNL     1      -8.478   5.725  66.543  1.00  0.00    -0.116 C  
ENDBRANCH  20  23
ENDBRANCH  19  20
ENDBRANCH  18  19
ENDBRANCH  17  18
ENDBRANCH  15  17
ENDBRANCH  13  15
ENDBRANCH   5   6
ENDBRANCH   4   5
ENDBRANCH   3   4
ENDBRANCH   2   3
TORSDOF 11
ENDMDL
MODEL      193
REMARK 921   NORMALIZED FREE ENERGY PREDICTED BY IDOCK:   -3.53 KCAL/MOL
REMARK 922        TOTAL FREE ENERGY PREDICTED BY IDOCK:   -6.80 KCAL/MOL
REMARK 923 INTER-LIGAND FREE ENERGY PREDICTED BY IDOCK:   -6.03 KCAL/MOL
REMARK 924 INTRA-LIGAND FREE ENERGY PREDICTED BY IDOCK:   -0.78 KCAL/MOL
REMARK 927      BINDING AFFINITY PREDICTED BY RF-SCORE:    0.00 PKD
ROOT
HETATM    1  C   UNL     1     -11.189   6.209  71.043  1.00  0.00    -0.361 C  
HETATM    2  C   UNL     1     -11.115   7.056  69.784  1.00  0.00    -0.278 C  
ENDROOT
BRANCH   2   3
HETATM    3  C   UNL     1     -11.028   6.183  68.534  1.00  0.00    -0.404 C  
BRANCH   3   4
HETATM    4  C   UNL     1     -10.777   7.018  67.286  1.00  0.00    -0.342 C  
BRANCH   4   5
HETATM    5  O   UNL     1      -9.713   7.936  67.565  1.00  0.00    -0.146 OA 
BRANCH   5   6
HETATM    6  C   UNL     1      -9.262   8.647  66.477  1.00  0.00    -0.187 A  
HETATM    7  C   UNL     1      -7.941   8.394  66.059  1.00  0.00    -0.101 A  
HETATM    8  C   UNL     1      -7.461   9.027  64.907  1.00  0.00    -0.105 A  
HETATM    9  N   UNL     1      -7.186   7.365  66.651  1.00  0.00    -0.078 NA 
HETATM   10  H1  UNL     1      -6.230   7.182  66.348  1.00  0.00     0.000 HD 
HETATM   11  C   UNL     1      -8.220  10.007  64.263  1.00  0.00    -0.166 A  
HETATM   12  H2  UNL     1      -7.716   6.497  66.576  1.00  0.00     0.000 HD 
HETATM   13  C   UNL     1      -9.488  10.335  64.749  1.00  0.00    -0.341 A  
HETATM   14  C   UNL     1     -10.014   9.636  65.843  1.00  0.00    -0.351 A  
BRANCH  13  15
HETATM   15  C   UNL     1     -10.185  11.517  64.176  1.00  0.00    -0.325 C  
HETATM   16  O   UNL     1     -10.082  11.878  63.017  1.00  0.00    -0.379 OA 
BRANCH  15  17
HETATM   17  O   UNL     1     -10.785  12.206  65.176  1.00  0.00    -0.273 OA 
BRANCH  17  18
HETATM   18  C   UNL     1     -10.592  13.630  65.123  1.00  0.00    -0.361 C  
BRANCH  18  19
HETATM   19  C   UNL     1      -9.837  14.030  66.408  1.00  0.00    -0.296 C  
BRANCH  19  20
HETATM   20  N   UNL     1     -10.418  15.115  67.218  1.00  0.00    -0.267 NA 
BRANCH  20  21
HETATM   21  C   UNL     1     -10.528  16.390  66.495  1.00  0.00    -0.282 C  
HETATM   22  C   UNL     1      -9.556  17.489  66.913  1.00  0.00    -0.279 C  
ENDBRANCH  20  21
BRANCH  20  23
HETATM   23  C   UNL     1     -11.684  14.648  67.814  1.00  0.00    -0.359 C  
HETATM   24  C   UNL     1     -11.528  13.503  68.807  1.00  0.00    -0.349 C  
ENDBRANCH  20  23
ENDBRANCH  19  20
ENDBRANCH  18  19
ENDBRANCH  17  18
ENDBRANCH  15  17
ENDBRANCH  13  15
ENDBRANCH   5   6
ENDBRANCH   4   5
ENDBRANCH   3   4
ENDBRANCH   2   3
TORSDOF 11
ENDMDL
MODEL      194
REMARK 921   NORMALIZED FREE ENERGY PREDICTED BY IDOCK:   -3.52 KCAL/MOL
REMARK 922        TOTAL FREE ENERGY PREDICTED BY IDOCK:   -6.80 KCAL/MOL
REMARK 923 INTER-LIGAND FREE ENERGY PREDICTED BY IDOCK:   -5.93 KCAL/MOL
REMARK 924 INTRA-LIGAND FREE ENERGY PREDICTED BY IDOCK:   -0.86 KCAL/MOL
REMARK 927      BINDING AFFINITY PREDICTED BY RF-SCORE:    0.00 PKD
ROOT
HETATM    1  C   UNL     1      -8.046  17.694  68.009  1.00  0.00    -0.243 C  
HETATM    2  C   UNL     1      -8.645  17.521  66.623  1.00  0.00    -0.284 C  
ENDROOT
BRANCH   2   3
HETATM    3  C   UNL     1      -8.626  16.057  66.192  1.00  0.00    -0.315 C  
BRANCH   3   4
HETATM    4  C   UNL     1      -9.795  15.284  66.789  1.00  0.00    -0.236 C  
BRANCH   4   5
HETATM    5  O   UNL     1     -10.850  15.243  65.820  1.00  0.00    -0.335 OA 
BRANCH   5   6
HETATM    6  C   UNL     1     -10.910  14.086  65.079  1.00  0.00    -0.392 A  
HETATM    7  C   UNL     1     -11.938  14.000  64.121  1.00  0.00    -0.408 A  
HETATM    8  C   UNL     1     -11.993  12.881  63.283  1.00  0.00    -0.516 A  
HETATM    9  N   UNL     1     -12.764  15.107  63.855  1.00  0.00    -0.791 NA 
HETATM   10  H1  UNL     1     -13.508  15.045  63.160  1.00  0.00     0.000 HD 
HETATM   11  C   UNL     1     -11.139  11.795  63.487  1.00  0.00    -0.503 A  
HETATM   12  H2  UNL     1     -12.168  15.899  63.614  1.00  0.00     0.000 HD 
HETATM   13  C   UNL     1     -10.192  11.838  64.513  1.00  0.00    -0.327 A  
HETATM   14  C   UNL     1     -10.067  12.995  65.293  1.00  0.00    -0.247 A  
BRANCH  13  15
HETATM   15  C   UNL     1      -9.441  10.597  64.841  1.00  0.00    -0.243 C  
HETATM   16  O   UNL     1      -9.539   9.553  64.221  1.00  0.00    -0.061 OA 
BRANCH  15  17
HETATM   17  O   UNL     1      -8.792  10.768  66.018  1.00  0.00    -0.168 OA 
BRANCH  17  18
HETATM   18  C   UNL     1      -7.405  10.389  65.996  1.00  0.00    -0.134 C  
BRANCH  18  19
HETATM   19  C   UNL     1      -7.268   9.135  66.884  1.00  0.00    -0.086 C  
BRANCH  19  20
HETATM   20  N   UNL     1      -8.342   8.883  67.862  1.00  0.00    -0.117 NA 
BRANCH  20  21
HETATM   21  C   UNL     1      -9.082   7.639  67.609  1.00  0.00    -0.129 C  
HETATM   22  C   UNL     1      -8.876   6.997  66.241  1.00  0.00    -0.164 C  
ENDBRANCH  20  21
BRANCH  20  23
HETATM   23  C   UNL     1      -7.789   8.990  69.225  1.00  0.00    -0.095 C  
HETATM   24  C   UNL     1      -7.623  10.419  69.727  1.00  0.00    -0.141 C  
ENDBRANCH  20  23
ENDBRANCH  19  20
ENDBRANCH  18  19
ENDBRANCH  17  18
ENDBRANCH  15  17
ENDBRANCH  13  15
ENDBRANCH   5   6
ENDBRANCH   4   5
ENDBRANCH   3   4
ENDBRANCH   2   3
TORSDOF 11
ENDMDL
MODEL      195
REMARK 921   NORMALIZED FREE ENERGY PREDICTED BY IDOCK:   -3.49 KCAL/MOL
REMARK 922        TOTAL FREE ENERGY PREDICTED BY IDOCK:   -6.74 KCAL/MOL
REMARK 923 INTER-LIGAND FREE ENERGY PREDICTED BY IDOCK:   -6.72 KCAL/MOL
REMARK 924 INTRA-LIGAND FREE ENERGY PREDICTED BY IDOCK:   -0.02 KCAL/MOL
REMARK 927      BINDING AFFINITY PREDICTED BY RF-SCORE:    0.00 PKD
ROOT
HETATM    1  C   UNL     1     -10.001   8.401  66.746  1.00  0.00    -0.354 C  
HETATM    2  C   UNL     1     -10.856   7.183  67.052  1.00  0.00    -0.382 C  
ENDROOT
BRANCH   2   3
HETATM    3  C   UNL     1     -10.771   6.804  68.529  1.00  0.00    -0.280 C  
BRANCH   3   4
HETATM    4  C   UNL     1      -9.342   6.468  68.937  1.00  0.00    -0.131 C  
BRANCH   4   5
HETATM    5  O   UNL     1      -9.061   7.129  70.177  1.00  0.00    -0.151 OA 
BRANCH   5   6
HETATM    6  C   UNL     1     -10.149   7.715  70.780  1.00  0.00    -0.189 A  
HETATM    7  C   UNL     1     -10.946   6.886  71.592  1.00  0.00    -0.234 A  
HETATM    8  C   UNL     1     -12.016   7.450  72.295  1.00  0.00    -0.277 A  
HETATM    9  N   UNL     1     -10.555   5.563  71.869  1.00  0.00    -0.228 NA 
HETATM   10  H1  UNL     1     -11.132   4.963  72.457  1.00  0.00     0.000 HD 
HETATM   11  C   UNL     1     -12.384   8.781  72.085  1.00  0.00    -0.458 A  
HETATM   12  H2  UNL     1      -9.614   5.584  72.262  1.00  0.00     0.000 HD 
HETATM   13  C   UNL     1     -11.656   9.571  71.192  1.00  0.00    -0.439 A  
HETATM   14  C   UNL     1     -10.525   9.040  70.559  1.00  0.00    -0.271 A  
BRANCH  13  15
HETATM   15  C   UNL     1     -12.189  10.912  70.831  1.00  0.00    -0.381 C  
HETATM   16  O   UNL     1     -13.037  11.507  71.472  1.00  0.00    -0.422 OA 
BRANCH  15  17
HETATM   17  O   UNL     1     -11.720  11.262  69.609  1.00  0.00    -0.286 OA 
BRANCH  17  18
HETATM   18  C   UNL     1     -11.879  12.653  69.284  1.00  0.00    -0.302 C  
BRANCH  18  19
HETATM   19  C   UNL     1     -10.650  13.062  68.445  1.00  0.00    -0.251 C  
BRANCH  19  20
HETATM   20  N   UNL     1     -10.867  13.295  67.006  1.00  0.00    -0.267 NA 
BRANCH  20  21
HETATM   21  C   UNL     1     -12.222  13.765  66.687  1.00  0.00    -0.409 C  
HETATM   22  C   UNL     1     -12.508  14.059  65.218  1.00  0.00    -0.495 C  
ENDBRANCH  20  21
BRANCH  20  23
HETATM   23  C   UNL     1      -9.790  14.161  66.489  1.00  0.00    -0.290 C  
HETATM   24  C   UNL     1      -8.456  14.005  67.210  1.00  0.00    -0.220 C  
ENDBRANCH  20  23
ENDBRANCH  19  20
ENDBRANCH  18  19
ENDBRANCH  17  18
ENDBRANCH  15  17
ENDBRANCH  13  15
ENDBRANCH   5   6
ENDBRANCH   4   5
ENDBRANCH   3   4
ENDBRANCH   2   3
TORSDOF 11
ENDMDL
MODEL      196
REMARK 921   NORMALIZED FREE ENERGY PREDICTED BY IDOCK:   -3.47 KCAL/MOL
REMARK 922        TOTAL FREE ENERGY PREDICTED BY IDOCK:   -6.72 KCAL/MOL
REMARK 923 INTER-LIGAND FREE ENERGY PREDICTED BY IDOCK:   -6.13 KCAL/MOL
REMARK 924 INTRA-LIGAND FREE ENERGY PREDICTED BY IDOCK:   -0.58 KCAL/MOL
REMARK 927      BINDING AFFINITY PREDICTED BY RF-SCORE:    0.00 PKD
ROOT
HETATM    1  C   UNL     1     -13.804  13.899  72.215  1.00  0.00    -0.669 C  
HETATM    2  C   UNL     1     -12.417  14.155  71.649  1.00  0.00    -0.395 C  
ENDROOT
BRANCH   2   3
HETATM    3  C   UNL     1     -12.490  14.933  70.337  1.00  0.00    -0.403 C  
BRANCH   3   4
HETATM    4  C   UNL     1     -11.525  14.372  69.301  1.00  0.00    -0.285 C  
BRANCH   4   5
HETATM    5  O   UNL     1     -12.189  14.350  68.032  1.00  0.00    -0.281 OA 
BRANCH   5   6
HETATM    6  C   UNL     1     -11.700  13.425  67.139  1.00  0.00    -0.379 A  
HETATM    7  C   UNL     1     -12.333  13.361  65.883  1.00  0.00    -0.437 A  
HETATM    8  C   UNL     1     -11.822  12.497  64.909  1.00  0.00    -0.438 A  
HETATM    9  N   UNL     1     -13.323  14.296  65.531  1.00  0.00    -0.615 NA 
HETATM   10  H1  UNL     1     -13.782  14.250  64.621  1.00  0.00     0.000 HD 
HETATM   11  C   UNL     1     -10.795  11.603  65.217  1.00  0.00    -0.340 A  
HETATM   12  H2  UNL     1     -12.933  15.232  65.644  1.00  0.00     0.000 HD 
HETATM   13  C   UNL     1     -10.244  11.593  66.501  1.00  0.00    -0.249 A  
HETATM   14  C   UNL     1     -10.684  12.522  67.452  1.00  0.00    -0.254 A  
BRANCH  13  15
HETATM   15  C   UNL     1      -9.303  10.499  66.862  1.00  0.00    -0.159 C  
HETATM   16  O   UNL     1      -8.418  10.088  66.134  1.00  0.00    -0.123 OA 
BRANCH  15  17
HETATM   17  O   UNL     1      -9.704   9.936  68.027  1.00  0.00    -0.138 OA 
BRANCH  17  18
HETATM   18  C   UNL     1      -8.788   8.971  68.572  1.00  0.00    -0.134 C  
BRANCH  18  19
HETATM   19  C   UNL     1      -9.445   7.585  68.411  1.00  0.00    -0.148 C  
BRANCH  19  20
HETATM   20  N   UNL     1      -8.956   6.503  69.285  1.00  0.00    -0.131 NA 
BRANCH  20  21
HETATM   21  C   UNL     1      -9.914   6.119  70.331  1.00  0.00    -0.181 C  
HETATM   22  C   UNL     1      -9.327   5.466  71.578  1.00  0.00    -0.177 C  
ENDBRANCH  20  21
BRANCH  20  23
HETATM   23  C   UNL     1      -8.491   5.380  68.450  1.00  0.00    -0.096 C  
HETATM   24  C   UNL     1      -8.225   5.745  66.994  1.00  0.00    -0.101 C  
ENDBRANCH  20  23
ENDBRANCH  19  20
ENDBRANCH  18  19
ENDBRANCH  17  18
ENDBRANCH  15  17
ENDBRANCH  13  15
ENDBRANCH   5   6
ENDBRANCH   4   5
ENDBRANCH   3   4
ENDBRANCH   2   3
TORSDOF 11
ENDMDL
MODEL      197
REMARK 921   NORMALIZED FREE ENERGY PREDICTED BY IDOCK:   -3.47 KCAL/MOL
REMARK 922        TOTAL FREE ENERGY PREDICTED BY IDOCK:   -6.71 KCAL/MOL
REMARK 923 INTER-LIGAND FREE ENERGY PREDICTED BY IDOCK:   -6.02 KCAL/MOL
REMARK 924 INTRA-LIGAND FREE ENERGY PREDICTED BY IDOCK:   -0.69 KCAL/MOL
REMARK 927      BINDING AFFINITY PREDICTED BY RF-SCORE:    0.00 PKD
ROOT
HETATM    1  C   UNL     1      -9.686  20.486  67.349  1.00  0.00    -0.587 C  
HETATM    2  C   UNL     1      -9.998  19.147  66.701  1.00  0.00    -0.444 C  
ENDROOT
BRANCH   2   3
HETATM    3  C   UNL     1     -10.775  18.240  67.653  1.00  0.00    -0.373 C  
BRANCH   3   4
HETATM    4  C   UNL     1     -10.613  16.772  67.281  1.00  0.00    -0.275 C  
BRANCH   4   5
HETATM    5  O   UNL     1      -9.929  16.109  68.351  1.00  0.00    -0.222 OA 
BRANCH   5   6
HETATM    6  C   UNL     1      -9.356  14.905  68.014  1.00  0.00    -0.193 A  
HETATM    7  C   UNL     1      -7.950  14.846  68.034  1.00  0.00    -0.129 A  
HETATM    8  C   UNL     1      -7.319  13.623  67.781  1.00  0.00    -0.170 A  
HETATM    9  N   UNL     1      -7.193  15.932  68.510  1.00  0.00    -0.124 NA 
HETATM   10  H1  UNL     1      -6.174  15.889  68.524  1.00  0.00     0.000 HD 
HETATM   11  C   UNL     1      -8.056  12.511  67.369  1.00  0.00    -0.180 A  
HETATM   12  H2  UNL     1      -7.516  16.158  69.450  1.00  0.00     0.000 HD 
HETATM   13  C   UNL     1      -9.444  12.607  67.243  1.00  0.00    -0.199 A  
HETATM   14  C   UNL     1     -10.092  13.800  67.588  1.00  0.00    -0.242 A  
BRANCH  13  15
HETATM   15  C   UNL     1     -10.180  11.481  66.607  1.00  0.00    -0.219 C  
HETATM   16  O   UNL     1     -11.167  11.616  65.906  1.00  0.00    -0.305 OA 
BRANCH  15  17
HETATM   17  O   UNL     1      -9.688  10.309  67.076  1.00  0.00    -0.166 OA 
BRANCH  17  18
HETATM   18  C   UNL     1     -10.668   9.450  67.684  1.00  0.00    -0.230 C  
BRANCH  18  19
HETATM   19  C   UNL     1     -10.931  10.001  69.101  1.00  0.00    -0.220 C  
BRANCH  19  20
HETATM   20  N   UNL     1     -10.653   9.100  70.235  1.00  0.00    -0.210 NA 
BRANCH  20  21
HETATM   21  C   UNL     1     -11.419   9.431  71.445  1.00  0.00    -0.379 C  
HETATM   22  C   UNL     1     -12.633  10.334  71.250  1.00  0.00    -0.522 C  
ENDBRANCH  20  21
BRANCH  20  23
HETATM   23  C   UNL     1     -10.801   7.702  69.789  1.00  0.00    -0.217 C  
HETATM   24  C   UNL     1     -11.767   6.873  70.626  1.00  0.00    -0.417 C  
ENDBRANCH  20  23
ENDBRANCH  19  20
ENDBRANCH  18  19
ENDBRANCH  17  18
ENDBRANCH  15  17
ENDBRANCH  13  15
ENDBRANCH   5   6
ENDBRANCH   4   5
ENDBRANCH   3   4
ENDBRANCH   2   3
TORSDOF 11
ENDMDL
MODEL      198
REMARK 921   NORMALIZED FREE ENERGY PREDICTED BY IDOCK:   -3.47 KCAL/MOL
REMARK 922        TOTAL FREE ENERGY PREDICTED BY IDOCK:   -6.71 KCAL/MOL
REMARK 923 INTER-LIGAND FREE ENERGY PREDICTED BY IDOCK:   -5.46 KCAL/MOL
REMARK 924 INTRA-LIGAND FREE ENERGY PREDICTED BY IDOCK:   -1.25 KCAL/MOL
REMARK 927      BINDING AFFINITY PREDICTED BY RF-SCORE:    0.00 PKD
ROOT
HETATM    1  C   UNL     1      -8.180   6.557  67.251  1.00  0.00    -0.113 C  
HETATM    2  C   UNL     1      -7.444   6.375  68.568  1.00  0.00    -0.088 C  
ENDROOT
BRANCH   2   3
HETATM    3  C   UNL     1      -6.704   7.650  68.968  1.00  0.00    -0.049 C  
BRANCH   3   4
HETATM    4  C   UNL     1      -7.599   8.586  69.770  1.00  0.00    -0.083 C  
BRANCH   4   5
HETATM    5  O   UNL     1      -8.181   7.841  70.846  1.00  0.00    -0.103 OA 
BRANCH   5   6
HETATM    6  C   UNL     1      -9.443   8.244  71.212  1.00  0.00    -0.172 A  
HETATM    7  C   UNL     1     -10.118   7.439  72.150  1.00  0.00    -0.190 A  
HETATM    8  C   UNL     1     -11.370   7.849  72.620  1.00  0.00    -0.468 A  
HETATM    9  N   UNL     1      -9.464   6.359  72.770  1.00  0.00    -0.144 NA 
HETATM   10  H1  UNL     1      -9.953   5.776  73.448  1.00  0.00     0.000 HD 
HETATM   11  C   UNL     1     -12.013   8.957  72.064  1.00  0.00    -0.439 A  
HETATM   12  H2  UNL     1      -8.612   6.710  73.206  1.00  0.00     0.000 HD 
HETATM   13  C   UNL     1     -11.386   9.690  71.053  1.00  0.00    -0.444 A  
HETATM   14  C   UNL     1     -10.091   9.343  70.647  1.00  0.00    -0.356 A  
BRANCH  13  15
HETATM   15  C   UNL     1     -12.171  10.731  70.338  1.00  0.00    -0.349 C  
HETATM   16  O   UNL     1     -13.207  10.515  69.736  1.00  0.00     0.007 OA 
BRANCH  15  17
HETATM   17  O   UNL     1     -11.461  11.885  70.317  1.00  0.00    -0.172 OA 
BRANCH  17  18
HETATM   18  C   UNL     1     -11.994  12.899  69.448  1.00  0.00    -0.269 C  
BRANCH  18  19
HETATM   19  C   UNL     1     -11.184  12.838  68.136  1.00  0.00    -0.272 C  
BRANCH  19  20
HETATM   20  N   UNL     1     -11.814  12.163  66.987  1.00  0.00    -0.594 NA 
BRANCH  20  21
HETATM   21  C   UNL     1     -12.104  13.068  65.866  1.00  0.00    -0.444 C  
HETATM   22  C   UNL     1     -11.897  14.556  66.127  1.00  0.00    -0.344 C  
ENDBRANCH  20  21
BRANCH  20  23
HETATM   23  C   UNL     1     -11.010  10.983  66.619  1.00  0.00    -0.190 C  
HETATM   24  C   UNL     1      -9.643  10.918  67.289  1.00  0.00    -0.184 C  
ENDBRANCH  20  23
ENDBRANCH  19  20
ENDBRANCH  18  19
ENDBRANCH  17  18
ENDBRANCH  15  17
ENDBRANCH  13  15
ENDBRANCH   5   6
ENDBRANCH   4   5
ENDBRANCH   3   4
ENDBRANCH   2   3
TORSDOF 11
ENDMDL
MODEL      199
REMARK 921   NORMALIZED FREE ENERGY PREDICTED BY IDOCK:   -3.47 KCAL/MOL
REMARK 922        TOTAL FREE ENERGY PREDICTED BY IDOCK:   -6.71 KCAL/MOL
REMARK 923 INTER-LIGAND FREE ENERGY PREDICTED BY IDOCK:   -5.94 KCAL/MOL
REMARK 924 INTRA-LIGAND FREE ENERGY PREDICTED BY IDOCK:   -0.76 KCAL/MOL
REMARK 927      BINDING AFFINITY PREDICTED BY RF-SCORE:    0.00 PKD
ROOT
HETATM    1  C   UNL     1      -8.141   4.225  71.334  1.00  0.00    -0.082 C  
HETATM    2  C   UNL     1      -7.080   5.313  71.354  1.00  0.00    -0.066 C  
ENDROOT
BRANCH   2   3
HETATM    3  C   UNL     1      -7.631   6.611  71.941  1.00  0.00    -0.096 C  
BRANCH   3   4
HETATM    4  C   UNL     1      -9.146   6.691  71.794  1.00  0.00    -0.144 C  
BRANCH   4   5
HETATM    5  O   UNL     1      -9.595   7.902  72.413  1.00  0.00    -0.173 OA 
BRANCH   5   6
HETATM    6  C   UNL     1     -10.414   8.682  71.630  1.00  0.00    -0.296 A  
HETATM    7  C   UNL     1     -11.796   8.604  71.886  1.00  0.00    -0.351 A  
HETATM    8  C   UNL     1     -12.666   9.439  71.176  1.00  0.00    -0.342 A  
HETATM    9  N   UNL     1     -12.282   7.866  72.981  1.00  0.00    -0.587 NA 
HETATM   10  H1  UNL     1     -13.283   7.810  73.167  1.00  0.00     0.000 HD 
HETATM   11  C   UNL     1     -12.197  10.230  70.126  1.00  0.00    -0.251 A  
HETATM   12  H2  UNL     1     -11.820   8.205  73.825  1.00  0.00     0.000 HD 
HETATM   13  C   UNL     1     -10.838  10.219  69.801  1.00  0.00    -0.332 A  
HETATM   14  C   UNL     1      -9.947   9.461  70.571  1.00  0.00    -0.328 A  
BRANCH  13  15
HETATM   15  C   UNL     1     -10.399  10.904  68.556  1.00  0.00    -0.187 C  
HETATM   16  O   UNL     1      -9.300  11.408  68.402  1.00  0.00    -0.183 OA 
BRANCH  15  17
HETATM   17  O   UNL     1     -11.458  11.027  67.720  1.00  0.00    -0.425 OA 
BRANCH  17  18
HETATM   18  C   UNL     1     -11.522  12.280  67.017  1.00  0.00    -0.354 C  
BRANCH  18  19
HETATM   19  C   UNL     1     -11.885  13.361  68.056  1.00  0.00    -0.357 C  
BRANCH  19  20
HETATM   20  N   UNL     1     -10.976  14.516  68.171  1.00  0.00    -0.245 NA 
BRANCH  20  21
HETATM   21  C   UNL     1     -10.125  14.708  66.988  1.00  0.00    -0.249 C  
HETATM   22  C   UNL     1     -10.483  15.881  66.082  1.00  0.00    -0.336 C  
ENDBRANCH  20  21
BRANCH  20  23
HETATM   23  C   UNL     1     -11.755  15.707  68.555  1.00  0.00    -0.327 C  
HETATM   24  C   UNL     1     -11.110  16.557  69.644  1.00  0.00    -0.235 C  
ENDBRANCH  20  23
ENDBRANCH  19  20
ENDBRANCH  18  19
ENDBRANCH  17  18
ENDBRANCH  15  17
ENDBRANCH  13  15
ENDBRANCH   5   6
ENDBRANCH   4   5
ENDBRANCH   3   4
ENDBRANCH   2   3
TORSDOF 11
ENDMDL
MODEL      200
REMARK 921   NORMALIZED FREE ENERGY PREDICTED BY IDOCK:   -3.47 KCAL/MOL
REMARK 922        TOTAL FREE ENERGY PREDICTED BY IDOCK:   -6.71 KCAL/MOL
REMARK 923 INTER-LIGAND FREE ENERGY PREDICTED BY IDOCK:   -5.55 KCAL/MOL
REMARK 924 INTRA-LIGAND FREE ENERGY PREDICTED BY IDOCK:   -1.15 KCAL/MOL
REMARK 927      BINDING AFFINITY PREDICTED BY RF-SCORE:    0.00 PKD
ROOT
HETATM    1  C   UNL     1      -5.523  10.238  66.093  1.00  0.00    -0.059 C  
HETATM    2  C   UNL     1      -6.870  10.665  66.652  1.00  0.00    -0.114 C  
ENDROOT
BRANCH   2   3
HETATM    3  C   UNL     1      -7.743   9.455  66.978  1.00  0.00    -0.091 C  
BRANCH   3   4
HETATM    4  C   UNL     1      -9.035   9.869  67.671  1.00  0.00    -0.128 C  
BRANCH   4   5
HETATM    5  O   UNL     1     -10.085   9.880  66.696  1.00  0.00    -0.212 OA 
BRANCH   5   6
HETATM    6  C   UNL     1     -10.310  11.100  66.102  1.00  0.00    -0.250 A  
HETATM    7  C   UNL     1     -10.116  11.172  64.710  1.00  0.00    -0.295 A  
HETATM    8  C   UNL     1     -10.412  12.366  64.044  1.00  0.00    -0.443 A  
HETATM    9  N   UNL     1      -9.840  10.012  63.963  1.00  0.00    -0.473 NA 
HETATM   10  H1  UNL     1      -9.699  10.063  62.955  1.00  0.00     0.000 HD 
HETATM   11  C   UNL     1     -10.751  13.516  64.759  1.00  0.00    -0.412 A  
HETATM   12  H2  UNL     1     -10.576   9.331  64.148  1.00  0.00     0.000 HD 
HETATM   13  C   UNL     1     -10.834  13.469  66.153  1.00  0.00    -0.284 A  
HETATM   14  C   UNL     1     -10.635  12.252  66.818  1.00  0.00    -0.251 A  
BRANCH  13  15
HETATM   15  C   UNL     1     -10.992  14.745  66.900  1.00  0.00    -0.328 C  
HETATM   16  O   UNL     1     -11.231  14.816  68.093  1.00  0.00    -0.270 OA 
BRANCH  15  17
HETATM   17  O   UNL     1     -11.005  15.775  66.021  1.00  0.00    -0.282 OA 
BRANCH  17  18
HETATM   18  C   UNL     1     -10.303  16.949  66.464  1.00  0.00    -0.299 C  
BRANCH  18  19
HETATM   19  C   UNL     1      -8.808  16.721  66.158  1.00  0.00    -0.263 C  
BRANCH  19  20
HETATM   20  N   UNL     1      -7.835  17.492  66.953  1.00  0.00    -0.215 NA 
BRANCH  20  21
HETATM   21  C   UNL     1      -7.571  16.910  68.277  1.00  0.00    -0.202 C  
HETATM   22  C   UNL     1      -7.600  15.387  68.364  1.00  0.00    -0.116 C  
ENDBRANCH  20  21
BRANCH  20  23
HETATM   23  C   UNL     1      -6.624  17.723  66.143  1.00  0.00    -0.274 C  
HETATM   24  C   UNL     1      -6.599  19.062  65.416  1.00  0.00    -0.292 C  
ENDBRANCH  20  23
ENDBRANCH  19  20
ENDBRANCH  18  19
ENDBRANCH  17  18
ENDBRANCH  15  17
ENDBRANCH  13  15
ENDBRANCH   5   6
ENDBRANCH   4   5
ENDBRANCH   3   4
ENDBRANCH   2   3
TORSDOF 11
ENDMDL
MODEL      201
REMARK 921   NORMALIZED FREE ENERGY PREDICTED BY IDOCK:   -3.46 KCAL/MOL
REMARK 922        TOTAL FREE ENERGY PREDICTED BY IDOCK:   -6.69 KCAL/MOL
REMARK 923 INTER-LIGAND FREE ENERGY PREDICTED BY IDOCK:   -6.05 KCAL/MOL
REMARK 924 INTRA-LIGAND FREE ENERGY PREDICTED BY IDOCK:   -0.64 KCAL/MOL
REMARK 927      BINDING AFFINITY PREDICTED BY RF-SCORE:    0.00 PKD
ROOT
HETATM    1  C   UNL     1     -10.518   3.605  64.007  1.00  0.00    -0.271 C  
HETATM    2  C   UNL     1      -9.172   4.004  64.589  1.00  0.00    -0.151 C  
ENDROOT
BRANCH   2   3
HETATM    3  C   UNL     1      -9.307   4.439  66.046  1.00  0.00    -0.160 C  
BRANCH   3   4
HETATM    4  C   UNL     1     -10.560   5.276  66.265  1.00  0.00    -0.248 C  
BRANCH   4   5
HETATM    5  O   UNL     1     -10.774   5.406  67.675  1.00  0.00    -0.170 OA 
BRANCH   5   6
HETATM    6  C   UNL     1     -10.736   6.697  68.149  1.00  0.00    -0.258 A  
HETATM    7  C   UNL     1     -10.813   6.861  69.546  1.00  0.00    -0.252 A  
HETATM    8  C   UNL     1     -10.694   8.146  70.085  1.00  0.00    -0.243 A  
HETATM    9  N   UNL     1     -10.790   5.745  70.401  1.00  0.00    -0.300 NA 
HETATM   10  H1  UNL     1     -10.845   5.864  71.412  1.00  0.00     0.000 HD 
HETATM   11  C   UNL     1     -10.650   9.268  69.254  1.00  0.00    -0.234 A  
HETATM   12  H2  UNL     1      -9.956   5.198  70.190  1.00  0.00     0.000 HD 
HETATM   13  C   UNL     1     -10.687   9.106  67.867  1.00  0.00    -0.224 A  
HETATM   14  C   UNL     1     -10.707   7.817  67.319  1.00  0.00    -0.326 A  
BRANCH  13  15
HETATM   15  C   UNL     1     -10.848  10.314  67.014  1.00  0.00    -0.181 C  
HETATM   16  O   UNL     1     -10.303  10.470  65.936  1.00  0.00    -0.249 OA 
BRANCH  15  17
HETATM   17  O   UNL     1     -11.536  11.256  67.704  1.00  0.00    -0.490 OA 
BRANCH  17  18
HETATM   18  C   UNL     1     -10.841  12.504  67.867  1.00  0.00    -0.222 C  
BRANCH  18  19
HETATM   19  C   UNL     1     -11.917  13.600  68.025  1.00  0.00    -0.350 C  
BRANCH  19  20
HETATM   20  N   UNL     1     -11.712  14.855  67.280  1.00  0.00    -0.338 NA 
BRANCH  20  21
HETATM   21  C   UNL     1     -10.936  15.857  68.025  1.00  0.00    -0.336 C  
HETATM   22  C   UNL     1      -9.990  16.725  67.202  1.00  0.00    -0.274 C  
ENDBRANCH  20  21
BRANCH  20  23
HETATM   23  C   UNL     1     -11.171  14.541  65.945  1.00  0.00    -0.331 C  
HETATM   24  C   UNL     1     -12.227  14.379  64.858  1.00  0.00    -0.440 C  
ENDBRANCH  20  23
ENDBRANCH  19  20
ENDBRANCH  18  19
ENDBRANCH  17  18
ENDBRANCH  15  17
ENDBRANCH  13  15
ENDBRANCH   5   6
ENDBRANCH   4   5
ENDBRANCH   3   4
ENDBRANCH   2   3
TORSDOF 11
ENDMDL
MODEL      202
REMARK 921   NORMALIZED FREE ENERGY PREDICTED BY IDOCK:   -3.45 KCAL/MOL
REMARK 922        TOTAL FREE ENERGY PREDICTED BY IDOCK:   -6.67 KCAL/MOL
REMARK 923 INTER-LIGAND FREE ENERGY PREDICTED BY IDOCK:   -5.71 KCAL/MOL
REMARK 924 INTRA-LIGAND FREE ENERGY PREDICTED BY IDOCK:   -0.96 KCAL/MOL
REMARK 927      BINDING AFFINITY PREDICTED BY RF-SCORE:    0.00 PKD
ROOT
HETATM    1  C   UNL     1     -10.393  15.916  65.960  1.00  0.00    -0.363 C  
HETATM    2  C   UNL     1     -10.815  15.552  67.374  1.00  0.00    -0.312 C  
ENDROOT
BRANCH   2   3
HETATM    3  C   UNL     1     -11.280  14.100  67.455  1.00  0.00    -0.323 C  
BRANCH   3   4
HETATM    4  C   UNL     1     -10.284  13.157  66.791  1.00  0.00    -0.252 C  
BRANCH   4   5
HETATM    5  O   UNL     1      -9.195  12.943  67.696  1.00  0.00    -0.178 OA 
BRANCH   5   6
HETATM    6  C   UNL     1      -8.724  11.652  67.739  1.00  0.00    -0.152 A  
HETATM    7  C   UNL     1      -7.429  11.432  67.231  1.00  0.00    -0.134 A  
HETATM    8  C   UNL     1      -6.870  10.154  67.327  1.00  0.00    -0.078 A  
HETATM    9  N   UNL     1      -6.623  12.514  66.832  1.00  0.00    -0.457 NA 
HETATM   10  H1  UNL     1      -5.685  12.355  66.464  1.00  0.00     0.000 HD 
HETATM   11  C   UNL     1      -7.631   9.075  67.781  1.00  0.00    -0.093 A  
HETATM   12  H2  UNL     1      -6.553  13.165  67.613  1.00  0.00     0.000 HD 
HETATM   13  C   UNL     1      -8.954   9.277  68.180  1.00  0.00    -0.128 A  
HETATM   14  C   UNL     1      -9.489  10.572  68.178  1.00  0.00    -0.157 A  
BRANCH  13  15
HETATM   15  C   UNL     1      -9.802   8.088  68.460  1.00  0.00    -0.174 C  
HETATM   16  O   UNL     1     -10.548   7.571  67.647  1.00  0.00    -0.239 OA 
BRANCH  15  17
HETATM   17  O   UNL     1      -9.743   7.801  69.783  1.00  0.00    -0.174 OA 
BRANCH  17  18
HETATM   18  C   UNL     1     -11.014   7.808  70.454  1.00  0.00    -0.249 C  
BRANCH  18  19
HETATM   19  C   UNL     1     -10.978   8.967  71.473  1.00  0.00    -0.328 C  
BRANCH  19  20
HETATM   20  N   UNL     1     -12.204   9.773  71.617  1.00  0.00    -0.393 NA 
BRANCH  20  21
HETATM   21  C   UNL     1     -12.659  10.375  70.356  1.00  0.00    -0.254 C  
HETATM   22  C   UNL     1     -12.157  11.784  70.061  1.00  0.00    -0.387 C  
ENDBRANCH  20  21
BRANCH  20  23
HETATM   23  C   UNL     1     -13.231   8.971  72.310  1.00  0.00    -0.460 C  
HETATM   24  C   UNL     1     -14.317   8.416  71.397  1.00  0.00    -0.425 C  
ENDBRANCH  20  23
ENDBRANCH  19  20
ENDBRANCH  18  19
ENDBRANCH  17  18
ENDBRANCH  15  17
ENDBRANCH  13  15
ENDBRANCH   5   6
ENDBRANCH   4   5
ENDBRANCH   3   4
ENDBRANCH   2   3
TORSDOF 11
ENDMDL
MODEL      203
REMARK 921   NORMALIZED FREE ENERGY PREDICTED BY IDOCK:   -3.43 KCAL/MOL
REMARK 922        TOTAL FREE ENERGY PREDICTED BY IDOCK:   -6.65 KCAL/MOL
REMARK 923 INTER-LIGAND FREE ENERGY PREDICTED BY IDOCK:   -5.96 KCAL/MOL
REMARK 924 INTRA-LIGAND FREE ENERGY PREDICTED BY IDOCK:   -0.69 KCAL/MOL
REMARK 927      BINDING AFFINITY PREDICTED BY RF-SCORE:    0.00 PKD
ROOT
HETATM    1  C   UNL     1     -11.017  15.447  64.740  1.00  0.00    -0.411 C  
HETATM    2  C   UNL     1     -11.382  14.690  66.006  1.00  0.00    -0.344 C  
ENDROOT
BRANCH   2   3
HETATM    3  C   UNL     1     -12.530  13.715  65.755  1.00  0.00    -0.524 C  
BRANCH   3   4
HETATM    4  C   UNL     1     -12.059  12.482  64.995  1.00  0.00    -0.446 C  
BRANCH   4   5
HETATM    5  O   UNL     1     -10.697  12.225  65.354  1.00  0.00    -0.268 OA 
BRANCH   5   6
HETATM    6  C   UNL     1     -10.496  11.069  66.071  1.00  0.00    -0.245 A  
HETATM    7  C   UNL     1     -10.032   9.950  65.352  1.00  0.00    -0.279 A  
HETATM    8  C   UNL     1      -9.731   8.774  66.048  1.00  0.00    -0.276 A  
HETATM    9  N   UNL     1      -9.669  10.068  63.999  1.00  0.00    -0.426 NA 
HETATM   10  H1  UNL     1      -9.333   9.258  63.478  1.00  0.00     0.000 HD 
HETATM   11  C   UNL     1     -10.024   8.655  67.408  1.00  0.00    -0.270 A  
HETATM   12  H2  UNL     1      -8.973  10.809  63.919  1.00  0.00     0.000 HD 
HETATM   13  C   UNL     1     -10.589   9.733  68.094  1.00  0.00    -0.276 A  
HETATM   14  C   UNL     1     -10.802  10.945  67.426  1.00  0.00    -0.333 A  
BRANCH  13  15
HETATM   15  C   UNL     1     -11.080   9.514  69.481  1.00  0.00    -0.142 C  
HETATM   16  O   UNL     1     -11.330  10.409  70.268  1.00  0.00    -0.284 OA 
BRANCH  15  17
HETATM   17  O   UNL     1     -11.028   8.191  69.767  1.00  0.00    -0.225 OA 
BRANCH  17  18
HETATM   18  C   UNL     1     -10.643   7.886  71.119  1.00  0.00    -0.213 C  
BRANCH  18  19
HETATM   19  C   UNL     1      -9.311   7.111  71.043  1.00  0.00    -0.158 C  
BRANCH  19  20
HETATM   20  N   UNL     1      -8.391   7.244  72.187  1.00  0.00    -0.105 NA 
BRANCH  20  21
HETATM   21  C   UNL     1      -8.965   7.989  73.315  1.00  0.00    -0.272 C  
HETATM   22  C   UNL     1      -8.012   8.324  74.458  1.00  0.00    -0.276 C  
ENDBRANCH  20  21
BRANCH  20  23
HETATM   23  C   UNL     1      -7.870   5.911  72.545  1.00  0.00    -0.102 C  
HETATM   24  C   UNL     1      -7.565   5.013  71.352  1.00  0.00    -0.088 C  
ENDBRANCH  20  23
ENDBRANCH  19  20
ENDBRANCH  18  19
ENDBRANCH  17  18
ENDBRANCH  15  17
ENDBRANCH  13  15
ENDBRANCH   5   6
ENDBRANCH   4   5
ENDBRANCH   3   4
ENDBRANCH   2   3
TORSDOF 11
ENDMDL
MODEL      204
REMARK 921   NORMALIZED FREE ENERGY PREDICTED BY IDOCK:   -3.42 KCAL/MOL
REMARK 922        TOTAL FREE ENERGY PREDICTED BY IDOCK:   -6.63 KCAL/MOL
REMARK 923 INTER-LIGAND FREE ENERGY PREDICTED BY IDOCK:   -5.16 KCAL/MOL
REMARK 924 INTRA-LIGAND FREE ENERGY PREDICTED BY IDOCK:   -1.47 KCAL/MOL
REMARK 927      BINDING AFFINITY PREDICTED BY RF-SCORE:    0.00 PKD
ROOT
HETATM    1  C   UNL     1     -11.971  11.424  69.920  1.00  0.00    -0.434 C  
HETATM    2  C   UNL     1     -11.773  11.428  68.413  1.00  0.00    -0.373 C  
ENDROOT
BRANCH   2   3
HETATM    3  C   UNL     1     -11.857  12.845  67.849  1.00  0.00    -0.388 C  
BRANCH   3   4
HETATM    4  C   UNL     1     -11.323  12.910  66.423  1.00  0.00    -0.319 C  
BRANCH   4   5
HETATM    5  O   UNL     1     -11.443  11.608  65.838  1.00  0.00    -0.272 OA 
BRANCH   5   6
HETATM    6  C   UNL     1     -10.413  11.254  64.998  1.00  0.00    -0.298 A  
HETATM    7  C   UNL     1     -10.714  11.174  63.625  1.00  0.00    -0.308 A  
HETATM    8  C   UNL     1      -9.683  10.901  62.719  1.00  0.00    -0.307 A  
HETATM    9  N   UNL     1     -11.974  11.572  63.143  1.00  0.00    -0.917 NA 
HETATM   10  H1  UNL     1     -12.192  11.514  62.148  1.00  0.00     0.000 HD 
HETATM   11  C   UNL     1      -8.406  10.565  63.173  1.00  0.00    -0.146 A  
HETATM   12  H2  UNL     1     -12.146  12.529  63.451  1.00  0.00     0.000 HD 
HETATM   13  C   UNL     1      -8.140  10.537  64.544  1.00  0.00    -0.052 A  
HETATM   14  C   UNL     1      -9.141  10.904  65.452  1.00  0.00    -0.218 A  
BRANCH  13  15
HETATM   15  C   UNL     1      -6.841   9.978  65.005  1.00  0.00    -0.132 C  
HETATM   16  O   UNL     1      -6.176   9.178  64.372  1.00  0.00    -0.070 OA 
BRANCH  15  17
HETATM   17  O   UNL     1      -6.624  10.359  66.287  1.00  0.00    -0.091 OA 
BRANCH  17  18
HETATM   18  C   UNL     1      -5.784   9.469  67.042  1.00  0.00    -0.051 C  
BRANCH  18  19
HETATM   19  C   UNL     1      -6.637   8.927  68.208  1.00  0.00    -0.060 C  
BRANCH  19  20
HETATM   20  N   UNL     1      -7.858   8.180  67.857  1.00  0.00    -0.120 NA 
BRANCH  20  21
HETATM   21  C   UNL     1      -7.599   6.987  67.038  1.00  0.00    -0.102 C  
HETATM   22  C   UNL     1      -8.484   6.805  65.810  1.00  0.00    -0.150 C  
ENDBRANCH  20  21
BRANCH  20  23
HETATM   23  C   UNL     1      -8.632   7.914  69.084  1.00  0.00    -0.138 C  
HETATM   24  C   UNL     1     -10.135   8.123  68.939  1.00  0.00    -0.211 C  
ENDBRANCH  20  23
ENDBRANCH  19  20
ENDBRANCH  18  19
ENDBRANCH  17  18
ENDBRANCH  15  17
ENDBRANCH  13  15
ENDBRANCH   5   6
ENDBRANCH   4   5
ENDBRANCH   3   4
ENDBRANCH   2   3
TORSDOF 11
ENDMDL
MODEL      205
REMARK 921   NORMALIZED FREE ENERGY PREDICTED BY IDOCK:   -3.40 KCAL/MOL
REMARK 922        TOTAL FREE ENERGY PREDICTED BY IDOCK:   -6.60 KCAL/MOL
REMARK 923 INTER-LIGAND FREE ENERGY PREDICTED BY IDOCK:   -6.00 KCAL/MOL
REMARK 924 INTRA-LIGAND FREE ENERGY PREDICTED BY IDOCK:   -0.60 KCAL/MOL
REMARK 927      BINDING AFFINITY PREDICTED BY RF-SCORE:    0.00 PKD
ROOT
HETATM    1  C   UNL     1     -10.050  13.810  67.169  1.00  0.00    -0.241 C  
HETATM    2  C   UNL     1     -11.087  13.933  66.065  1.00  0.00    -0.289 C  
ENDROOT
BRANCH   2   3
HETATM    3  C   UNL     1     -11.802  12.605  65.828  1.00  0.00    -0.497 C  
BRANCH   3   4
HETATM    4  C   UNL     1     -11.193  11.845  64.657  1.00  0.00    -0.305 C  
BRANCH   4   5
HETATM    5  O   UNL     1      -9.834  11.529  64.982  1.00  0.00    -0.245 OA 
BRANCH   5   6
HETATM    6  C   UNL     1      -9.618  10.223  65.357  1.00  0.00    -0.251 A  
HETATM    7  C   UNL     1      -8.872   9.425  64.468  1.00  0.00    -0.198 A  
HETATM    8  C   UNL     1      -8.551   8.115  64.840  1.00  0.00    -0.039 A  
HETATM    9  N   UNL     1      -8.273   9.989  63.328  1.00  0.00    -0.153 NA 
HETATM   10  H1  UNL     1      -7.733   9.411  62.685  1.00  0.00     0.000 HD 
HETATM   11  C   UNL     1      -9.084   7.552  66.002  1.00  0.00    -0.139 A  
HETATM   12  H2  UNL     1      -7.684  10.766  63.628  1.00  0.00     0.000 HD 
HETATM   13  C   UNL     1      -9.915   8.315  66.825  1.00  0.00    -0.355 A  
HETATM   14  C   UNL     1     -10.161   9.657  66.510  1.00  0.00    -0.294 A  
BRANCH  13  15
HETATM   15  C   UNL     1     -10.632   7.636  67.938  1.00  0.00    -0.168 C  
HETATM   16  O   UNL     1     -11.230   6.580  67.824  1.00  0.00    -0.305 OA 
BRANCH  15  17
HETATM   17  O   UNL     1     -10.658   8.456  69.015  1.00  0.00    -0.218 OA 
BRANCH  17  18
HETATM   18  C   UNL     1     -10.010   7.929  70.185  1.00  0.00    -0.190 C  
BRANCH  18  19
HETATM   19  C   UNL     1     -10.516   8.750  71.389  1.00  0.00    -0.284 C  
BRANCH  19  20
HETATM   20  N   UNL     1     -11.499   8.104  72.278  1.00  0.00    -0.344 NA 
BRANCH  20  21
HETATM   21  C   UNL     1     -12.686   7.604  71.570  1.00  0.00    -0.345 C  
HETATM   22  C   UNL     1     -13.972   8.401  71.762  1.00  0.00    -0.482 C  
ENDBRANCH  20  21
BRANCH  20  23
HETATM   23  C   UNL     1     -10.814   7.090  73.100  1.00  0.00    -0.316 C  
HETATM   24  C   UNL     1     -11.251   5.656  72.825  1.00  0.00    -0.347 C  
ENDBRANCH  20  23
ENDBRANCH  19  20
ENDBRANCH  18  19
ENDBRANCH  17  18
ENDBRANCH  15  17
ENDBRANCH  13  15
ENDBRANCH   5   6
ENDBRANCH   4   5
ENDBRANCH   3   4
ENDBRANCH   2   3
TORSDOF 11
ENDMDL
MODEL      206
REMARK 921   NORMALIZED FREE ENERGY PREDICTED BY IDOCK:   -3.40 KCAL/MOL
REMARK 922        TOTAL FREE ENERGY PREDICTED BY IDOCK:   -6.59 KCAL/MOL
REMARK 923 INTER-LIGAND FREE ENERGY PREDICTED BY IDOCK:   -6.09 KCAL/MOL
REMARK 924 INTRA-LIGAND FREE ENERGY PREDICTED BY IDOCK:   -0.50 KCAL/MOL
REMARK 927      BINDING AFFINITY PREDICTED BY RF-SCORE:    0.00 PKD
ROOT
HETATM    1  C   UNL     1      -6.656   8.570  71.241  1.00  0.00    -0.062 C  
HETATM    2  C   UNL     1      -7.308   7.211  71.436  1.00  0.00    -0.078 C  
ENDROOT
BRANCH   2   3
HETATM    3  C   UNL     1      -8.593   7.093  70.620  1.00  0.00    -0.143 C  
BRANCH   3   4
HETATM    4  C   UNL     1      -9.819   7.004  71.520  1.00  0.00    -0.172 C  
BRANCH   4   5
HETATM    5  O   UNL     1     -10.986   7.191  70.711  1.00  0.00    -0.239 OA 
BRANCH   5   6
HETATM    6  C   UNL     1     -11.755   8.280  71.048  1.00  0.00    -0.270 A  
HETATM    7  C   UNL     1     -12.926   8.024  71.788  1.00  0.00    -0.331 A  
HETATM    8  C   UNL     1     -13.699   9.103  72.229  1.00  0.00    -0.548 A  
HETATM    9  N   UNL     1     -13.204   6.731  72.265  1.00  0.00    -0.523 NA 
HETATM   10  H1  UNL     1     -14.052   6.545  72.800  1.00  0.00     0.000 HD 
HETATM   11  C   UNL     1     -13.405  10.406  71.820  1.00  0.00    -0.456 A  
HETATM   12  H2  UNL     1     -12.405   6.414  72.813  1.00  0.00     0.000 HD 
HETATM   13  C   UNL     1     -12.304  10.643  70.993  1.00  0.00    -0.507 A  
HETATM   14  C   UNL     1     -11.469   9.579  70.628  1.00  0.00    -0.362 A  
BRANCH  13  15
HETATM   15  C   UNL     1     -12.134  11.999  70.407  1.00  0.00    -0.321 C  
HETATM   16  O   UNL     1     -12.488  13.030  70.951  1.00  0.00    -0.367 OA 
BRANCH  15  17
HETATM   17  O   UNL     1     -11.700  11.879  69.129  1.00  0.00    -0.273 OA 
BRANCH  17  18
HETATM   18  C   UNL     1     -10.401  12.445  68.882  1.00  0.00    -0.049 C  
BRANCH  18  19
HETATM   19  C   UNL     1      -9.685  11.508  67.887  1.00  0.00    -0.183 C  
BRANCH  19  20
HETATM   20  N   UNL     1      -9.143  12.119  66.660  1.00  0.00    -0.205 NA 
BRANCH  20  21
HETATM   21  C   UNL     1      -9.615  11.471  65.428  1.00  0.00    -0.224 C  
HETATM   22  C   UNL     1      -9.487   9.953  65.372  1.00  0.00    -0.319 C  
ENDBRANCH  20  21
BRANCH  20  23
HETATM   23  C   UNL     1      -9.372  13.575  66.704  1.00  0.00    -0.245 C  
HETATM   24  C   UNL     1      -8.236  14.374  67.330  1.00  0.00    -0.215 C  
ENDBRANCH  20  23
ENDBRANCH  19  20
ENDBRANCH  18  19
ENDBRANCH  17  18
ENDBRANCH  15  17
ENDBRANCH  13  15
ENDBRANCH   5   6
ENDBRANCH   4   5
ENDBRANCH   3   4
ENDBRANCH   2   3
TORSDOF 11
ENDMDL
MODEL      207
REMARK 921   NORMALIZED FREE ENERGY PREDICTED BY IDOCK:   -3.39 KCAL/MOL
REMARK 922        TOTAL FREE ENERGY PREDICTED BY IDOCK:   -6.59 KCAL/MOL
REMARK 923 INTER-LIGAND FREE ENERGY PREDICTED BY IDOCK:   -5.78 KCAL/MOL
REMARK 924 INTRA-LIGAND FREE ENERGY PREDICTED BY IDOCK:   -0.80 KCAL/MOL
REMARK 927      BINDING AFFINITY PREDICTED BY RF-SCORE:    0.00 PKD
ROOT
HETATM    1  C   UNL     1     -12.023  15.020  64.113  1.00  0.00    -0.221 C  
HETATM    2  C   UNL     1     -11.806  13.529  64.311  1.00  0.00    -0.471 C  
ENDROOT
BRANCH   2   3
HETATM    3  C   UNL     1     -12.617  13.006  65.494  1.00  0.00    -0.422 C  
BRANCH   3   4
HETATM    4  C   UNL     1     -11.780  12.959  66.767  1.00  0.00    -0.383 C  
BRANCH   4   5
HETATM    5  O   UNL     1     -12.196  11.825  67.537  1.00  0.00    -0.526 OA 
BRANCH   5   6
HETATM    6  C   UNL     1     -11.180  10.977  67.913  1.00  0.00    -0.310 A  
HETATM    7  C   UNL     1     -10.817  10.989  69.274  1.00  0.00    -0.238 A  
HETATM    8  C   UNL     1      -9.848  10.086  69.725  1.00  0.00    -0.270 A  
HETATM    9  N   UNL     1     -11.559  11.735  70.208  1.00  0.00    -0.517 NA 
HETATM   10  H1  UNL     1     -11.296  11.743  71.193  1.00  0.00     0.000 HD 
HETATM   11  C   UNL     1      -9.142   9.287  68.823  1.00  0.00    -0.136 A  
HETATM   12  H2  UNL     1     -12.535  11.449  70.141  1.00  0.00     0.000 HD 
HETATM   13  C   UNL     1      -9.430   9.361  67.458  1.00  0.00    -0.154 A  
HETATM   14  C   UNL     1     -10.465  10.191  67.010  1.00  0.00    -0.302 A  
BRANCH  13  15
HETATM   15  C   UNL     1      -8.530   8.660  66.503  1.00  0.00    -0.113 C  
HETATM   16  O   UNL     1      -8.557   8.817  65.295  1.00  0.00    -0.170 OA 
BRANCH  15  17
HETATM   17  O   UNL     1      -7.824   7.715  67.170  1.00  0.00    -0.112 OA 
BRANCH  17  18
HETATM   18  C   UNL     1      -8.287   6.369  66.967  1.00  0.00    -0.112 C  
BRANCH  18  19
HETATM   19  C   UNL     1      -8.127   5.631  68.313  1.00  0.00    -0.103 C  
BRANCH  19  20
HETATM   20  N   UNL     1      -9.347   5.073  68.923  1.00  0.00    -0.119 NA 
BRANCH  20  21
HETATM   21  C   UNL     1     -10.569   5.805  68.561  1.00  0.00    -0.229 C  
HETATM   22  C   UNL     1     -11.375   6.389  69.717  1.00  0.00    -0.494 C  
ENDBRANCH  20  21
BRANCH  20  23
HETATM   23  C   UNL     1      -9.406   3.625  68.647  1.00  0.00    -0.164 C  
HETATM   24  C   UNL     1      -9.223   3.256  67.180  1.00  0.00    -0.214 C  
ENDBRANCH  20  23
ENDBRANCH  19  20
ENDBRANCH  18  19
ENDBRANCH  17  18
ENDBRANCH  15  17
ENDBRANCH  13  15
ENDBRANCH   5   6
ENDBRANCH   4   5
ENDBRANCH   3   4
ENDBRANCH   2   3
TORSDOF 11
ENDMDL
MODEL      208
REMARK 921   NORMALIZED FREE ENERGY PREDICTED BY IDOCK:   -3.38 KCAL/MOL
REMARK 922        TOTAL FREE ENERGY PREDICTED BY IDOCK:   -6.57 KCAL/MOL
REMARK 923 INTER-LIGAND FREE ENERGY PREDICTED BY IDOCK:   -5.54 KCAL/MOL
REMARK 924 INTRA-LIGAND FREE ENERGY PREDICTED BY IDOCK:   -1.03 KCAL/MOL
REMARK 927      BINDING AFFINITY PREDICTED BY RF-SCORE:    0.00 PKD
ROOT
HETATM    1  C   UNL     1      -9.791  18.281  66.770  1.00  0.00    -0.344 C  
HETATM    2  C   UNL     1      -8.554  17.533  66.301  1.00  0.00    -0.234 C  
ENDROOT
BRANCH   2   3
HETATM    3  C   UNL     1      -7.504  17.453  67.407  1.00  0.00    -0.201 C  
BRANCH   3   4
HETATM    4  C   UNL     1      -6.531  16.305  67.172  1.00  0.00    -0.179 C  
BRANCH   4   5
HETATM    5  O   UNL     1      -6.778  15.296  68.158  1.00  0.00    -0.109 OA 
BRANCH   5   6
HETATM    6  C   UNL     1      -7.310  14.126  67.668  1.00  0.00    -0.176 A  
HETATM    7  C   UNL     1      -6.445  13.017  67.600  1.00  0.00    -0.160 A  
HETATM    8  C   UNL     1      -6.957  11.781  67.189  1.00  0.00    -0.145 A  
HETATM    9  N   UNL     1      -5.147  13.086  68.137  1.00  0.00    -0.080 NA 
HETATM   10  H1  UNL     1      -4.520  12.283  68.087  1.00  0.00     0.000 HD 
HETATM   11  C   UNL     1      -8.265  11.675  66.711  1.00  0.00    -0.161 A  
HETATM   12  H2  UNL     1      -5.220  13.373  69.113  1.00  0.00     0.000 HD 
HETATM   13  C   UNL     1      -9.086  12.804  66.676  1.00  0.00    -0.188 A  
HETATM   14  C   UNL     1      -8.611  14.023  67.177  1.00  0.00    -0.220 A  
BRANCH  13  15
HETATM   15  C   UNL     1     -10.395  12.711  65.975  1.00  0.00    -0.270 C  
HETATM   16  O   UNL     1     -10.644  11.906  65.095  1.00  0.00    -0.267 OA 
BRANCH  15  17
HETATM   17  O   UNL     1     -11.172  13.757  66.344  1.00  0.00    -0.308 OA 
BRANCH  17  18
HETATM   18  C   UNL     1     -12.215  13.428  67.276  1.00  0.00    -0.233 C  
BRANCH  18  19
HETATM   19  C   UNL     1     -11.952  14.251  68.555  1.00  0.00    -0.317 C  
BRANCH  19  20
HETATM   20  N   UNL     1     -11.763  13.501  69.809  1.00  0.00    -0.302 NA 
BRANCH  20  21
HETATM   21  C   UNL     1     -12.529  14.049  70.938  1.00  0.00    -0.369 C  
HETATM   22  C   UNL     1     -12.705  15.564  70.963  1.00  0.00    -0.526 C  
ENDBRANCH  20  21
BRANCH  20  23
HETATM   23  C   UNL     1     -12.003  12.068  69.557  1.00  0.00    -0.283 C  
HETATM   24  C   UNL     1     -12.431  11.274  70.785  1.00  0.00    -0.471 C  
ENDBRANCH  20  23
ENDBRANCH  19  20
ENDBRANCH  18  19
ENDBRANCH  17  18
ENDBRANCH  15  17
ENDBRANCH  13  15
ENDBRANCH   5   6
ENDBRANCH   4   5
ENDBRANCH   3   4
ENDBRANCH   2   3
TORSDOF 11
ENDMDL
MODEL      209
REMARK 921   NORMALIZED FREE ENERGY PREDICTED BY IDOCK:   -3.38 KCAL/MOL
REMARK 922        TOTAL FREE ENERGY PREDICTED BY IDOCK:   -6.57 KCAL/MOL
REMARK 923 INTER-LIGAND FREE ENERGY PREDICTED BY IDOCK:   -5.93 KCAL/MOL
REMARK 924 INTRA-LIGAND FREE ENERGY PREDICTED BY IDOCK:   -0.63 KCAL/MOL
REMARK 927      BINDING AFFINITY PREDICTED BY RF-SCORE:    0.00 PKD
ROOT
HETATM    1  C   UNL     1     -13.675  13.989  72.288  1.00  0.00    -0.646 C  
HETATM    2  C   UNL     1     -12.458  14.281  71.426  1.00  0.00    -0.437 C  
ENDROOT
BRANCH   2   3
HETATM    3  C   UNL     1     -12.869  14.751  70.032  1.00  0.00    -0.104 C  
BRANCH   3   4
HETATM    4  C   UNL     1     -11.666  15.229  69.228  1.00  0.00    -0.338 C  
BRANCH   4   5
HETATM    5  O   UNL     1     -11.964  15.071  67.836  1.00  0.00    -0.291 OA 
BRANCH   5   6
HETATM    6  C   UNL     1     -11.628  13.846  67.308  1.00  0.00    -0.365 A  
HETATM    7  C   UNL     1     -12.332  13.438  66.159  1.00  0.00    -0.380 A  
HETATM    8  C   UNL     1     -11.971  12.240  65.533  1.00  0.00    -0.387 A  
HETATM    9  N   UNL     1     -13.230  14.312  65.520  1.00  0.00    -0.608 NA 
HETATM   10  H1  UNL     1     -13.739  14.016  64.687  1.00  0.00     0.000 HD 
HETATM   11  C   UNL     1     -11.034  11.385  66.115  1.00  0.00    -0.294 A  
HETATM   12  H2  UNL     1     -12.734  15.175  65.300  1.00  0.00     0.000 HD 
HETATM   13  C   UNL     1     -10.418  11.743  67.317  1.00  0.00    -0.242 A  
HETATM   14  C   UNL     1     -10.702  12.986  67.898  1.00  0.00    -0.249 A  
BRANCH  13  15
HETATM   15  C   UNL     1      -9.585  10.731  68.020  1.00  0.00    -0.163 C  
HETATM   16  O   UNL     1      -8.731  11.000  68.846  1.00  0.00    -0.164 OA 
BRANCH  15  17
HETATM   17  O   UNL     1      -9.806   9.514  67.467  1.00  0.00    -0.153 OA 
BRANCH  17  18
HETATM   18  C   UNL     1     -10.269   8.513  68.390  1.00  0.00    -0.203 C  
BRANCH  18  19
HETATM   19  C   UNL     1      -9.390   7.263  68.175  1.00  0.00    -0.131 C  
BRANCH  19  20
HETATM   20  N   UNL     1      -9.345   6.698  66.814  1.00  0.00    -0.153 NA 
BRANCH  20  21
HETATM   21  C   UNL     1      -8.190   7.156  66.030  1.00  0.00    -0.129 C  
HETATM   22  C   UNL     1      -6.919   7.462  66.815  1.00  0.00    -0.077 C  
ENDBRANCH  20  21
BRANCH  20  23
HETATM   23  C   UNL     1      -9.479   5.232  66.895  1.00  0.00    -0.136 C  
HETATM   24  C   UNL     1     -10.229   4.602  65.727  1.00  0.00    -0.283 C  
ENDBRANCH  20  23
ENDBRANCH  19  20
ENDBRANCH  18  19
ENDBRANCH  17  18
ENDBRANCH  15  17
ENDBRANCH  13  15
ENDBRANCH   5   6
ENDBRANCH   4   5
ENDBRANCH   3   4
ENDBRANCH   2   3
TORSDOF 11
ENDMDL
MODEL      210
REMARK 921   NORMALIZED FREE ENERGY PREDICTED BY IDOCK:   -3.38 KCAL/MOL
REMARK 922        TOTAL FREE ENERGY PREDICTED BY IDOCK:   -6.56 KCAL/MOL
REMARK 923 INTER-LIGAND FREE ENERGY PREDICTED BY IDOCK:   -6.24 KCAL/MOL
REMARK 924 INTRA-LIGAND FREE ENERGY PREDICTED BY IDOCK:   -0.32 KCAL/MOL
REMARK 927      BINDING AFFINITY PREDICTED BY RF-SCORE:    0.00 PKD
ROOT
HETATM    1  C   UNL     1      -6.341   9.751  70.043  1.00  0.00    -0.064 C  
HETATM    2  C   UNL     1      -7.636   9.222  69.449  1.00  0.00    -0.080 C  
ENDROOT
BRANCH   2   3
HETATM    3  C   UNL     1      -8.756  10.255  69.557  1.00  0.00    -0.155 C  
BRANCH   3   4
HETATM    4  C   UNL     1     -10.024   9.644  70.141  1.00  0.00    -0.261 C  
BRANCH   4   5
HETATM    5  O   UNL     1     -11.152  10.238  69.487  1.00  0.00    -0.234 OA 
BRANCH   5   6
HETATM    6  C   UNL     1     -11.826  11.175  70.234  1.00  0.00    -0.366 A  
HETATM    7  C   UNL     1     -12.726  10.686  71.201  1.00  0.00    -0.422 A  
HETATM    8  C   UNL     1     -13.374  11.594  72.045  1.00  0.00    -0.405 A  
HETATM    9  N   UNL     1     -12.814   9.308  71.467  1.00  0.00    -0.338 NA 
HETATM   10  H1  UNL     1     -13.466   8.954  72.166  1.00  0.00     0.000 HD 
HETATM   11  C   UNL     1     -13.252  12.970  71.841  1.00  0.00    -0.527 A  
HETATM   12  H2  UNL     1     -11.881   8.967  71.699  1.00  0.00     0.000 HD 
HETATM   13  C   UNL     1     -12.443  13.450  70.808  1.00  0.00    -0.418 A  
HETATM   14  C   UNL     1     -11.715  12.549  70.021  1.00  0.00    -0.297 A  
BRANCH  13  15
HETATM   15  C   UNL     1     -12.492  14.901  70.481  1.00  0.00    -0.363 C  
HETATM   16  O   UNL     1     -13.134  15.723  71.110  1.00  0.00    -0.498 OA 
BRANCH  15  17
HETATM   17  O   UNL     1     -11.869  15.110  69.297  1.00  0.00    -0.304 OA 
BRANCH  17  18
HETATM   18  C   UNL     1     -10.555  15.683  69.405  1.00  0.00    -0.253 C  
BRANCH  18  19
HETATM   19  C   UNL     1     -10.008  15.828  67.970  1.00  0.00    -0.222 C  
BRANCH  19  20
HETATM   20  N   UNL     1      -8.655  16.395  67.820  1.00  0.00    -0.168 NA 
BRANCH  20  21
HETATM   21  C   UNL     1      -8.632  17.865  67.846  1.00  0.00    -0.252 C  
HETATM   22  C   UNL     1      -8.448  18.561  66.502  1.00  0.00    -0.291 C  
ENDBRANCH  20  21
BRANCH  20  23
HETATM   23  C   UNL     1      -7.754  15.759  68.799  1.00  0.00    -0.177 C  
HETATM   24  C   UNL     1      -6.350  16.351  68.840  1.00  0.00    -0.150 C  
ENDBRANCH  20  23
ENDBRANCH  19  20
ENDBRANCH  18  19
ENDBRANCH  17  18
ENDBRANCH  15  17
ENDBRANCH  13  15
ENDBRANCH   5   6
ENDBRANCH   4   5
ENDBRANCH   3   4
ENDBRANCH   2   3
TORSDOF 11
ENDMDL
MODEL      211
REMARK 921   NORMALIZED FREE ENERGY PREDICTED BY IDOCK:   -3.35 KCAL/MOL
REMARK 922        TOTAL FREE ENERGY PREDICTED BY IDOCK:   -6.51 KCAL/MOL
REMARK 923 INTER-LIGAND FREE ENERGY PREDICTED BY IDOCK:   -6.10 KCAL/MOL
REMARK 924 INTRA-LIGAND FREE ENERGY PREDICTED BY IDOCK:   -0.41 KCAL/MOL
REMARK 927      BINDING AFFINITY PREDICTED BY RF-SCORE:    0.00 PKD
ROOT
HETATM    1  C   UNL     1      -7.458  19.405  68.041  1.00  0.00    -0.316 C  
HETATM    2  C   UNL     1      -8.181  18.219  67.424  1.00  0.00    -0.237 C  
ENDROOT
BRANCH   2   3
HETATM    3  C   UNL     1      -9.665  18.229  67.782  1.00  0.00    -0.305 C  
BRANCH   3   4
HETATM    4  C   UNL     1     -10.538  18.028  66.549  1.00  0.00    -0.253 C  
BRANCH   4   5
HETATM    5  O   UNL     1      -9.883  17.094  65.682  1.00  0.00    -0.552 OA 
BRANCH   5   6
HETATM    6  C   UNL     1     -10.364  15.807  65.750  1.00  0.00    -0.369 A  
HETATM    7  C   UNL     1     -11.376  15.460  64.835  1.00  0.00    -0.363 A  
HETATM    8  C   UNL     1     -11.840  14.141  64.805  1.00  0.00    -0.425 A  
HETATM    9  N   UNL     1     -11.765  16.355  63.822  1.00  0.00    -1.498 NA 
HETATM   10  H1  UNL     1     -12.498  16.104  63.160  1.00  0.00     0.000 HD 
HETATM   11  C   UNL     1     -11.420  13.214  65.762  1.00  0.00    -0.355 A  
HETATM   12  H2  UNL     1     -10.934  16.619  63.293  1.00  0.00     0.000 HD 
HETATM   13  C   UNL     1     -10.496  13.595  66.738  1.00  0.00    -0.270 A  
HETATM   14  C   UNL     1      -9.954  14.886  66.715  1.00  0.00    -0.252 A  
BRANCH  13  15
HETATM   15  C   UNL     1     -10.224  12.660  67.862  1.00  0.00    -0.220 C  
HETATM   16  O   UNL     1      -9.867  13.010  68.973  1.00  0.00     0.073 OA 
BRANCH  15  17
HETATM   17  O   UNL     1     -10.262  11.387  67.400  1.00  0.00    -0.188 OA 
BRANCH  17  18
HETATM   18  C   UNL     1      -9.073  10.964  66.712  1.00  0.00    -0.152 C  
BRANCH  18  19
HETATM   19  C   UNL     1      -8.017  10.648  67.793  1.00  0.00    -0.110 C  
BRANCH  19  20
HETATM   20  N   UNL     1      -7.381   9.319  67.742  1.00  0.00    -0.083 NA 
BRANCH  20  21
HETATM   21  C   UNL     1      -7.335   8.745  66.390  1.00  0.00    -0.084 C  
HETATM   22  C   UNL     1      -6.890   7.289  66.289  1.00  0.00    -0.058 C  
ENDBRANCH  20  21
BRANCH  20  23
HETATM   23  C   UNL     1      -6.071   9.385  68.416  1.00  0.00    -0.044 C  
HETATM   24  C   UNL     1      -5.786  10.710  69.112  1.00  0.00    -0.040 C  
ENDBRANCH  20  23
ENDBRANCH  19  20
ENDBRANCH  18  19
ENDBRANCH  17  18
ENDBRANCH  15  17
ENDBRANCH  13  15
ENDBRANCH   5   6
ENDBRANCH   4   5
ENDBRANCH   3   4
ENDBRANCH   2   3
TORSDOF 11
ENDMDL
MODEL      212
REMARK 921   NORMALIZED FREE ENERGY PREDICTED BY IDOCK:   -3.34 KCAL/MOL
REMARK 922        TOTAL FREE ENERGY PREDICTED BY IDOCK:   -6.50 KCAL/MOL
REMARK 923 INTER-LIGAND FREE ENERGY PREDICTED BY IDOCK:   -5.08 KCAL/MOL
REMARK 924 INTRA-LIGAND FREE ENERGY PREDICTED BY IDOCK:   -1.42 KCAL/MOL
REMARK 927      BINDING AFFINITY PREDICTED BY RF-SCORE:    0.00 PKD
ROOT
HETATM    1  C   UNL     1      -7.018  17.786  67.248  1.00  0.00    -0.197 C  
HETATM    2  C   UNL     1      -6.004  16.703  67.576  1.00  0.00    -0.178 C  
ENDROOT
BRANCH   2   3
HETATM    3  C   UNL     1      -6.147  16.232  69.022  1.00  0.00    -0.142 C  
BRANCH   3   4
HETATM    4  C   UNL     1      -7.166  15.106  69.143  1.00  0.00    -0.163 C  
BRANCH   4   5
HETATM    5  O   UNL     1      -6.548  13.890  68.703  1.00  0.00    -0.082 OA 
BRANCH   5   6
HETATM    6  C   UNL     1      -7.365  12.784  68.728  1.00  0.00    -0.067 A  
HETATM    7  C   UNL     1      -6.834  11.618  69.312  1.00  0.00    -0.104 A  
HETATM    8  C   UNL     1      -7.653  10.490  69.439  1.00  0.00    -0.145 A  
HETATM    9  N   UNL     1      -5.583  11.643  69.953  1.00  0.00    -0.089 NA 
HETATM   10  H1  UNL     1      -5.199  10.798  70.376  1.00  0.00     0.000 HD 
HETATM   11  C   UNL     1      -8.926  10.464  68.866  1.00  0.00    -0.170 A  
HETATM   12  H2  UNL     1      -5.603  12.374  70.664  1.00  0.00     0.000 HD 
HETATM   13  C   UNL     1      -9.406  11.588  68.189  1.00  0.00    -0.185 A  
HETATM   14  C   UNL     1      -8.631  12.754  68.143  1.00  0.00    -0.185 A  
BRANCH  13  15
HETATM   15  C   UNL     1     -10.670  11.465  67.415  1.00  0.00    -0.232 C  
HETATM   16  O   UNL     1     -11.452  10.538  67.522  1.00  0.00    -0.431 OA 
BRANCH  15  17
HETATM   17  O   UNL     1     -10.707  12.436  66.470  1.00  0.00    -0.230 OA 
BRANCH  17  18
HETATM   18  C   UNL     1     -12.030  12.814  66.053  1.00  0.00    -0.432 C  
BRANCH  18  19
HETATM   19  C   UNL     1     -12.245  14.273  66.508  1.00  0.00    -0.391 C  
BRANCH  19  20
HETATM   20  N   UNL     1     -11.286  14.821  67.484  1.00  0.00    -0.332 NA 
BRANCH  20  21
HETATM   21  C   UNL     1     -10.530  15.974  66.976  1.00  0.00    -0.307 C  
HETATM   22  C   UNL     1      -9.712  15.741  65.710  1.00  0.00    -0.372 C  
ENDBRANCH  20  21
BRANCH  20  23
HETATM   23  C   UNL     1     -11.984  15.070  68.760  1.00  0.00    -0.249 C  
HETATM   24  C   UNL     1     -12.042  13.865  69.692  1.00  0.00    -0.404 C  
ENDBRANCH  20  23
ENDBRANCH  19  20
ENDBRANCH  18  19
ENDBRANCH  17  18
ENDBRANCH  15  17
ENDBRANCH  13  15
ENDBRANCH   5   6
ENDBRANCH   4   5
ENDBRANCH   3   4
ENDBRANCH   2   3
TORSDOF 11
ENDMDL
MODEL      213
REMARK 921   NORMALIZED FREE ENERGY PREDICTED BY IDOCK:   -3.33 KCAL/MOL
REMARK 922        TOTAL FREE ENERGY PREDICTED BY IDOCK:   -6.49 KCAL/MOL
REMARK 923 INTER-LIGAND FREE ENERGY PREDICTED BY IDOCK:   -5.52 KCAL/MOL
REMARK 924 INTRA-LIGAND FREE ENERGY PREDICTED BY IDOCK:   -0.96 KCAL/MOL
REMARK 927      BINDING AFFINITY PREDICTED BY RF-SCORE:    0.00 PKD
ROOT
HETATM    1  C   UNL     1      -7.509  10.581  65.724  1.00  0.00    -0.139 C  
HETATM    2  C   UNL     1      -8.172  10.556  64.356  1.00  0.00    -0.068 C  
ENDROOT
BRANCH   2   3
HETATM    3  C   UNL     1      -9.689  10.434  64.480  1.00  0.00    -0.393 C  
BRANCH   3   4
HETATM    4  C   UNL     1     -10.216  11.221  65.674  1.00  0.00    -0.253 C  
BRANCH   4   5
HETATM    5  O   UNL     1     -11.184  10.413  66.354  1.00  0.00     0.086 OA 
BRANCH   5   6
HETATM    6  C   UNL     1     -11.281  10.642  67.706  1.00  0.00    -0.313 A  
HETATM    7  C   UNL     1     -11.206   9.514  68.546  1.00  0.00     0.115 A  
HETATM    8  C   UNL     1     -11.214   9.700  69.933  1.00  0.00    -0.244 A  
HETATM    9  N   UNL     1     -10.909   8.245  68.018  1.00  0.00    -0.467 NA 
HETATM   10  H1  UNL     1     -10.854   7.429  68.626  1.00  0.00     0.000 HD 
HETATM   11  C   UNL     1     -11.443  10.963  70.482  1.00  0.00    -0.314 A  
HETATM   12  H2  UNL     1     -10.035   8.313  67.496  1.00  0.00     0.000 HD 
HETATM   13  C   UNL     1     -11.629  12.063  69.642  1.00  0.00    -0.371 A  
HETATM   14  C   UNL     1     -11.525  11.901  68.254  1.00  0.00    -0.372 A  
BRANCH  13  15
HETATM   15  C   UNL     1     -12.075  13.349  70.241  1.00  0.00    -0.349 C  
HETATM   16  O   UNL     1     -12.325  13.503  71.424  1.00  0.00    -0.305 OA 
BRANCH  15  17
HETATM   17  O   UNL     1     -12.324  14.239  69.250  1.00  0.00    -0.293 OA 
BRANCH  17  18
HETATM   18  C   UNL     1     -11.547  15.446  69.322  1.00  0.00    -0.339 C  
BRANCH  18  19
HETATM   19  C   UNL     1     -11.549  16.067  67.910  1.00  0.00    -0.054 C  
BRANCH  19  20
HETATM   20  N   UNL     1     -10.248  16.488  67.358  1.00  0.00    -0.281 NA 
BRANCH  20  21
HETATM   21  C   UNL     1      -9.100  15.855  68.023  1.00  0.00    -0.184 C  
HETATM   22  C   UNL     1      -8.158  16.788  68.776  1.00  0.00    -0.252 C  
ENDBRANCH  20  21
BRANCH  20  23
HETATM   23  C   UNL     1     -10.267  16.319  65.893  1.00  0.00    -0.364 C  
HETATM   24  C   UNL     1     -11.108  15.145  65.405  1.00  0.00    -0.371 C  
ENDBRANCH  20  23
ENDBRANCH  19  20
ENDBRANCH  18  19
ENDBRANCH  17  18
ENDBRANCH  15  17
ENDBRANCH  13  15
ENDBRANCH   5   6
ENDBRANCH   4   5
ENDBRANCH   3   4
ENDBRANCH   2   3
TORSDOF 11
ENDMDL
MODEL      214
REMARK 921   NORMALIZED FREE ENERGY PREDICTED BY IDOCK:   -3.33 KCAL/MOL
REMARK 922        TOTAL FREE ENERGY PREDICTED BY IDOCK:   -6.48 KCAL/MOL
REMARK 923 INTER-LIGAND FREE ENERGY PREDICTED BY IDOCK:   -5.74 KCAL/MOL
REMARK 924 INTRA-LIGAND FREE ENERGY PREDICTED BY IDOCK:   -0.74 KCAL/MOL
REMARK 927      BINDING AFFINITY PREDICTED BY RF-SCORE:    0.00 PKD
ROOT
HETATM    1  C   UNL     1     -10.443  20.097  67.497  1.00  0.00    -0.422 C  
HETATM    2  C   UNL     1      -9.763  19.956  66.145  1.00  0.00    -0.527 C  
ENDROOT
BRANCH   2   3
HETATM    3  C   UNL     1      -8.276  20.292  66.238  1.00  0.00    -0.192 C  
BRANCH   3   4
HETATM    4  C   UNL     1      -7.429  19.037  66.406  1.00  0.00    -0.258 C  
BRANCH   4   5
HETATM    5  O   UNL     1      -7.071  18.916  67.787  1.00  0.00    -0.224 OA 
BRANCH   5   6
HETATM    6  C   UNL     1      -7.480  17.750  68.391  1.00  0.00    -0.263 A  
HETATM    7  C   UNL     1      -6.469  16.912  68.900  1.00  0.00    -0.186 A  
HETATM    8  C   UNL     1      -6.833  15.756  69.597  1.00  0.00    -0.169 A  
HETATM    9  N   UNL     1      -5.126  17.330  68.903  1.00  0.00    -0.147 NA 
HETATM   10  H1  UNL     1      -4.393  16.724  69.272  1.00  0.00     0.000 HD 
HETATM   11  C   UNL     1      -8.168  15.353  69.663  1.00  0.00    -0.127 A  
HETATM   12  H2  UNL     1      -5.071  18.226  69.387  1.00  0.00     0.000 HD 
HETATM   13  C   UNL     1      -9.159  16.131  69.059  1.00  0.00    -0.250 A  
HETATM   14  C   UNL     1      -8.812  17.341  68.444  1.00  0.00    -0.269 A  
BRANCH  13  15
HETATM   15  C   UNL     1     -10.537  15.579  68.964  1.00  0.00    -0.246 C  
HETATM   16  O   UNL     1     -11.482  16.176  68.479  1.00  0.00    -0.376 OA 
BRANCH  15  17
HETATM   17  O   UNL     1     -10.597  14.414  69.651  1.00  0.00    -0.138 OA 
BRANCH  17  18
HETATM   18  C   UNL     1     -11.485  13.432  69.089  1.00  0.00    -0.300 C  
BRANCH  18  19
HETATM   19  C   UNL     1     -12.539  13.108  70.168  1.00  0.00    -0.009 C  
BRANCH  19  20
HETATM   20  N   UNL     1     -12.636  11.706  70.613  1.00  0.00    -0.270 NA 
BRANCH  20  21
HETATM   21  C   UNL     1     -11.378  10.959  70.469  1.00  0.00    -0.120 C  
HETATM   22  C   UNL     1     -11.404   9.501  70.916  1.00  0.00    -0.410 C  
ENDBRANCH  20  21
BRANCH  20  23
HETATM   23  C   UNL     1     -13.208  11.669  71.971  1.00  0.00    -0.338 C  
HETATM   24  C   UNL     1     -13.718  13.014  72.477  1.00  0.00    -0.501 C  
ENDBRANCH  20  23
ENDBRANCH  19  20
ENDBRANCH  18  19
ENDBRANCH  17  18
ENDBRANCH  15  17
ENDBRANCH  13  15
ENDBRANCH   5   6
ENDBRANCH   4   5
ENDBRANCH   3   4
ENDBRANCH   2   3
TORSDOF 11
ENDMDL
MODEL      215
REMARK 921   NORMALIZED FREE ENERGY PREDICTED BY IDOCK:   -3.33 KCAL/MOL
REMARK 922        TOTAL FREE ENERGY PREDICTED BY IDOCK:   -6.48 KCAL/MOL
REMARK 923 INTER-LIGAND FREE ENERGY PREDICTED BY IDOCK:   -5.46 KCAL/MOL
REMARK 924 INTRA-LIGAND FREE ENERGY PREDICTED BY IDOCK:   -1.02 KCAL/MOL
REMARK 927      BINDING AFFINITY PREDICTED BY RF-SCORE:    0.00 PKD
ROOT
HETATM    1  C   UNL     1     -11.000  13.160  68.937  1.00  0.00    -0.270 C  
HETATM    2  C   UNL     1     -11.750  12.807  67.663  1.00  0.00    -0.422 C  
ENDROOT
BRANCH   2   3
HETATM    3  C   UNL     1     -11.448  11.376  67.223  1.00  0.00    -0.301 C  
BRANCH   3   4
HETATM    4  C   UNL     1     -10.547  11.348  65.995  1.00  0.00    -0.266 C  
BRANCH   4   5
HETATM    5  O   UNL     1      -9.248  10.901  66.401  1.00  0.00    -0.166 OA 
BRANCH   5   6
HETATM    6  C   UNL     1      -8.969   9.588  66.102  1.00  0.00    -0.158 A  
HETATM    7  C   UNL     1      -8.143   9.355  64.985  1.00  0.00    -0.129 A  
HETATM    8  C   UNL     1      -7.760   8.043  64.687  1.00  0.00    -0.126 A  
HETATM    9  N   UNL     1      -7.535  10.426  64.306  1.00  0.00    -0.317 NA 
HETATM   10  H1  UNL     1      -6.937  10.257  63.498  1.00  0.00     0.000 HD 
HETATM   11  C   UNL     1      -8.302   6.964  65.389  1.00  0.00    -0.122 A  
HETATM   12  H2  UNL     1      -7.006  10.974  64.985  1.00  0.00     0.000 HD 
HETATM   13  C   UNL     1      -9.208   7.196  66.427  1.00  0.00    -0.196 A  
HETATM   14  C   UNL     1      -9.521   8.511  66.794  1.00  0.00    -0.253 A  
BRANCH  13  15
HETATM   15  C   UNL     1      -9.925   6.034  67.017  1.00  0.00    -0.163 C  
HETATM   16  O   UNL     1     -10.583   5.235  66.374  1.00  0.00    -0.287 OA 
BRANCH  15  17
HETATM   17  O   UNL     1      -9.874   6.121  68.368  1.00  0.00    -0.120 OA 
BRANCH  17  18
HETATM   18  C   UNL     1     -11.154   6.269  69.007  1.00  0.00    -0.378 C  
BRANCH  18  19
HETATM   19  C   UNL     1     -10.895   6.312  70.528  1.00  0.00    -0.288 C  
BRANCH  19  20
HETATM   20  N   UNL     1     -10.688   7.638  71.137  1.00  0.00    -0.226 NA 
BRANCH  20  21
HETATM   21  C   UNL     1     -10.844   8.748  70.186  1.00  0.00    -0.227 C  
HETATM   22  C   UNL     1      -9.729   9.788  70.173  1.00  0.00    -0.299 C  
ENDBRANCH  20  21
BRANCH  20  23
HETATM   23  C   UNL     1     -11.529   7.752  72.343  1.00  0.00    -0.363 C  
HETATM   24  C   UNL     1     -12.900   8.370  72.099  1.00  0.00    -0.385 C  
ENDBRANCH  20  23
ENDBRANCH  19  20
ENDBRANCH  18  19
ENDBRANCH  17  18
ENDBRANCH  15  17
ENDBRANCH  13  15
ENDBRANCH   5   6
ENDBRANCH   4   5
ENDBRANCH   3   4
ENDBRANCH   2   3
TORSDOF 11
ENDMDL
MODEL      216
REMARK 921   NORMALIZED FREE ENERGY PREDICTED BY IDOCK:   -3.32 KCAL/MOL
REMARK 922        TOTAL FREE ENERGY PREDICTED BY IDOCK:   -6.47 KCAL/MOL
REMARK 923 INTER-LIGAND FREE ENERGY PREDICTED BY IDOCK:   -5.48 KCAL/MOL
REMARK 924 INTRA-LIGAND FREE ENERGY PREDICTED BY IDOCK:   -0.99 KCAL/MOL
REMARK 927      BINDING AFFINITY PREDICTED BY RF-SCORE:    0.00 PKD
ROOT
HETATM    1  C   UNL     1     -12.321  14.717  64.430  1.00  0.00    -0.420 C  
HETATM    2  C   UNL     1     -11.525  13.899  65.434  1.00  0.00    -0.316 C  
ENDROOT
BRANCH   2   3
HETATM    3  C   UNL     1     -12.153  13.968  66.824  1.00  0.00    -0.480 C  
BRANCH   3   4
HETATM    4  C   UNL     1     -11.140  14.411  67.872  1.00  0.00    -0.274 C  
BRANCH   4   5
HETATM    5  O   UNL     1     -10.417  13.256  68.316  1.00  0.00    -0.237 OA 
BRANCH   5   6
HETATM    6  C   UNL     1      -9.077  13.258  68.005  1.00  0.00    -0.202 A  
HETATM    7  C   UNL     1      -8.503  12.016  67.671  1.00  0.00    -0.160 A  
HETATM    8  C   UNL     1      -7.165  11.975  67.266  1.00  0.00    -0.150 A  
HETATM    9  N   UNL     1      -9.306  10.869  67.534  1.00  0.00    -0.154 NA 
HETATM   10  H1  UNL     1      -8.890   9.970  67.292  1.00  0.00     0.000 HD 
HETATM   11  C   UNL     1      -6.364  13.117  67.332  1.00  0.00    -0.063 A  
HETATM   12  H2  UNL     1     -10.041  11.073  66.858  1.00  0.00     0.000 HD 
HETATM   13  C   UNL     1      -6.911  14.325  67.771  1.00  0.00    -0.189 A  
HETATM   14  C   UNL     1      -8.274  14.395  68.085  1.00  0.00    -0.149 A  
BRANCH  13  15
HETATM   15  C   UNL     1      -5.995  15.468  68.029  1.00  0.00    -0.139 C  
HETATM   16  O   UNL     1      -5.628  15.815  69.138  1.00  0.00    -0.101 OA 
BRANCH  15  17
HETATM   17  O   UNL     1      -5.793  16.145  66.873  1.00  0.00    -0.336 OA 
BRANCH  17  18
HETATM   18  C   UNL     1      -5.707  17.572  67.023  1.00  0.00    -0.147 C  
BRANCH  18  19
HETATM   19  C   UNL     1      -7.148  18.120  66.948  1.00  0.00    -0.192 C  
BRANCH  19  20
HETATM   20  N   UNL     1      -7.577  19.034  68.021  1.00  0.00    -0.263 NA 
BRANCH  20  21
HETATM   21  C   UNL     1      -6.485  19.430  68.922  1.00  0.00    -0.277 C  
HETATM   22  C   UNL     1      -5.897  20.820  68.702  1.00  0.00    -0.391 C  
ENDBRANCH  20  21
BRANCH  20  23
HETATM   23  C   UNL     1      -8.310  20.167  67.427  1.00  0.00    -0.338 C  
HETATM   24  C   UNL     1      -9.635  19.788  66.776  1.00  0.00    -0.501 C  
ENDBRANCH  20  23
ENDBRANCH  19  20
ENDBRANCH  18  19
ENDBRANCH  17  18
ENDBRANCH  15  17
ENDBRANCH  13  15
ENDBRANCH   5   6
ENDBRANCH   4   5
ENDBRANCH   3   4
ENDBRANCH   2   3
TORSDOF 11
ENDMDL
MODEL      217
REMARK 921   NORMALIZED FREE ENERGY PREDICTED BY IDOCK:   -3.31 KCAL/MOL
REMARK 922        TOTAL FREE ENERGY PREDICTED BY IDOCK:   -6.45 KCAL/MOL
REMARK 923 INTER-LIGAND FREE ENERGY PREDICTED BY IDOCK:   -5.19 KCAL/MOL
REMARK 924 INTRA-LIGAND FREE ENERGY PREDICTED BY IDOCK:   -1.26 KCAL/MOL
REMARK 927      BINDING AFFINITY PREDICTED BY RF-SCORE:    0.00 PKD
ROOT
HETATM    1  C   UNL     1      -8.914   3.143  68.840  1.00  0.00    -0.188 C  
HETATM    2  C   UNL     1      -9.321   3.032  67.380  1.00  0.00    -0.216 C  
ENDROOT
BRANCH   2   3
HETATM    3  C   UNL     1      -9.142   4.364  66.654  1.00  0.00    -0.130 C  
BRANCH   3   4
HETATM    4  C   UNL     1     -10.199   5.376  67.078  1.00  0.00    -0.233 C  
BRANCH   4   5
HETATM    5  O   UNL     1      -9.790   6.671  66.622  1.00  0.00    -0.173 OA 
BRANCH   5   6
HETATM    6  C   UNL     1      -9.572   7.593  67.618  1.00  0.00    -0.145 A  
HETATM    7  C   UNL     1      -8.237   7.983  67.839  1.00  0.00    -0.129 A  
HETATM    8  C   UNL     1      -7.968   8.979  68.783  1.00  0.00    -0.101 A  
HETATM    9  N   UNL     1      -7.211   7.543  66.984  1.00  0.00    -0.083 NA 
HETATM   10  H1  UNL     1      -6.244   7.825  67.144  1.00  0.00     0.000 HD 
HETATM   11  C   UNL     1      -8.983   9.479  69.602  1.00  0.00    -0.198 A  
HETATM   12  H2  UNL     1      -7.462   7.795  66.028  1.00  0.00     0.000 HD 
HETATM   13  C   UNL     1     -10.290   9.008  69.454  1.00  0.00    -0.217 A  
HETATM   14  C   UNL     1     -10.584   8.081  68.446  1.00  0.00    -0.150 A  
BRANCH  13  15
HETATM   15  C   UNL     1     -11.306   9.398  70.468  1.00  0.00    -0.274 C  
HETATM   16  O   UNL     1     -12.044   8.612  71.036  1.00  0.00    -0.287 OA 
BRANCH  15  17
HETATM   17  O   UNL     1     -11.391  10.749  70.515  1.00  0.00    -0.307 OA 
BRANCH  17  18
HETATM   18  C   UNL     1     -12.338  11.321  69.596  1.00  0.00    -0.194 C  
BRANCH  18  19
HETATM   19  C   UNL     1     -11.565  12.333  68.725  1.00  0.00    -0.330 C  
BRANCH  19  20
HETATM   20  N   UNL     1     -11.876  12.355  67.284  1.00  0.00    -0.519 NA 
BRANCH  20  21
HETATM   21  C   UNL     1     -11.645  13.664  66.657  1.00  0.00    -0.364 C  
HETATM   22  C   UNL     1     -12.542  14.014  65.474  1.00  0.00    -0.543 C  
ENDBRANCH  20  21
BRANCH  20  23
HETATM   23  C   UNL     1     -11.180  11.236  66.622  1.00  0.00    -0.177 C  
HETATM   24  C   UNL     1      -9.705  11.492  66.338  1.00  0.00    -0.231 C  
ENDBRANCH  20  23
ENDBRANCH  19  20
ENDBRANCH  18  19
ENDBRANCH  17  18
ENDBRANCH  15  17
ENDBRANCH  13  15
ENDBRANCH   5   6
ENDBRANCH   4   5
ENDBRANCH   3   4
ENDBRANCH   2   3
TORSDOF 11
ENDMDL
MODEL      218
REMARK 921   NORMALIZED FREE ENERGY PREDICTED BY IDOCK:   -3.30 KCAL/MOL
REMARK 922        TOTAL FREE ENERGY PREDICTED BY IDOCK:   -6.43 KCAL/MOL
REMARK 923 INTER-LIGAND FREE ENERGY PREDICTED BY IDOCK:   -5.65 KCAL/MOL
REMARK 924 INTRA-LIGAND FREE ENERGY PREDICTED BY IDOCK:   -0.78 KCAL/MOL
REMARK 927      BINDING AFFINITY PREDICTED BY RF-SCORE:    0.00 PKD
ROOT
HETATM    1  C   UNL     1     -13.191  11.391  71.810  1.00  0.00    -0.472 C  
HETATM    2  C   UNL     1     -12.316  11.713  70.610  1.00  0.00    -0.437 C  
ENDROOT
BRANCH   2   3
HETATM    3  C   UNL     1     -12.336  13.208  70.297  1.00  0.00    -0.319 C  
BRANCH   3   4
HETATM    4  C   UNL     1     -11.573  13.519  69.015  1.00  0.00    -0.311 C  
BRANCH   4   5
HETATM    5  O   UNL     1     -12.403  13.170  67.901  1.00  0.00    -0.152 OA 
BRANCH   5   6
HETATM    6  C   UNL     1     -11.783  12.414  66.934  1.00  0.00    -0.362 A  
HETATM    7  C   UNL     1     -12.006  12.792  65.596  1.00  0.00    -0.452 A  
HETATM    8  C   UNL     1     -11.333  12.110  64.577  1.00  0.00    -0.393 A  
HETATM    9  N   UNL     1     -12.716  13.967  65.291  1.00  0.00    -0.674 NA 
HETATM   10  H1  UNL     1     -12.877  14.241  64.323  1.00  0.00     0.000 HD 
HETATM   11  C   UNL     1     -10.568  10.976  64.861  1.00  0.00    -0.328 A  
HETATM   12  H2  UNL     1     -12.266  14.746  65.772  1.00  0.00     0.000 HD 
HETATM   13  C   UNL     1     -10.441  10.538  66.182  1.00  0.00    -0.237 A  
HETATM   14  C   UNL     1     -11.032  11.274  67.217  1.00  0.00    -0.342 A  
BRANCH  13  15
HETATM   15  C   UNL     1      -9.799   9.220  66.435  1.00  0.00    -0.277 C  
HETATM   16  O   UNL     1     -10.409   8.173  66.556  1.00  0.00    -0.273 OA 
BRANCH  15  17
HETATM   17  O   UNL     1      -8.480   9.409  66.681  1.00  0.00    -0.124 OA 
BRANCH  17  18
HETATM   18  C   UNL     1      -7.800   8.258  67.212  1.00  0.00    -0.105 C  
BRANCH  18  19
HETATM   19  C   UNL     1      -7.671   8.474  68.734  1.00  0.00    -0.102 C  
BRANCH  19  20
HETATM   20  N   UNL     1      -6.664   7.666  69.445  1.00  0.00    -0.039 NA 
BRANCH  20  21
HETATM   21  C   UNL     1      -5.700   8.472  70.206  1.00  0.00    -0.024 C  
HETATM   22  C   UNL     1      -6.204   9.814  70.729  1.00  0.00    -0.096 C  
ENDBRANCH  20  21
BRANCH  20  23
HETATM   23  C   UNL     1      -7.349   6.632  70.242  1.00  0.00    -0.085 C  
HETATM   24  C   UNL     1      -6.748   5.237  70.114  1.00  0.00    -0.044 C  
ENDBRANCH  20  23
ENDBRANCH  19  20
ENDBRANCH  18  19
ENDBRANCH  17  18
ENDBRANCH  15  17
ENDBRANCH  13  15
ENDBRANCH   5   6
ENDBRANCH   4   5
ENDBRANCH   3   4
ENDBRANCH   2   3
TORSDOF 11
ENDMDL
MODEL      219
REMARK 921   NORMALIZED FREE ENERGY PREDICTED BY IDOCK:   -3.28 KCAL/MOL
REMARK 922        TOTAL FREE ENERGY PREDICTED BY IDOCK:   -6.40 KCAL/MOL
REMARK 923 INTER-LIGAND FREE ENERGY PREDICTED BY IDOCK:   -5.68 KCAL/MOL
REMARK 924 INTRA-LIGAND FREE ENERGY PREDICTED BY IDOCK:   -0.72 KCAL/MOL
REMARK 927      BINDING AFFINITY PREDICTED BY RF-SCORE:    0.00 PKD
ROOT
HETATM    1  C   UNL     1     -12.967  11.852  63.509  1.00  0.00    -0.307 C  
HETATM    2  C   UNL     1     -11.730  12.687  63.222  1.00  0.00    -0.466 C  
ENDROOT
BRANCH   2   3
HETATM    3  C   UNL     1     -10.476  12.032  63.798  1.00  0.00    -0.469 C  
BRANCH   3   4
HETATM    4  C   UNL     1     -10.660  11.671  65.267  1.00  0.00    -0.281 C  
BRANCH   4   5
HETATM    5  O   UNL     1     -10.321  12.817  66.058  1.00  0.00    -0.265 OA 
BRANCH   5   6
HETATM    6  C   UNL     1      -9.338  12.601  66.996  1.00  0.00    -0.220 A  
HETATM    7  C   UNL     1      -8.415  13.645  67.197  1.00  0.00    -0.174 A  
HETATM    8  C   UNL     1      -7.447  13.512  68.198  1.00  0.00    -0.132 A  
HETATM    9  N   UNL     1      -8.588  14.888  66.560  1.00  0.00    -0.448 NA 
HETATM   10  H1  UNL     1      -7.919  15.644  66.706  1.00  0.00     0.000 HD 
HETATM   11  C   UNL     1      -7.297  12.307  68.889  1.00  0.00    -0.041 A  
HETATM   12  H2  UNL     1      -9.518  15.237  66.789  1.00  0.00     0.000 HD 
HETATM   13  C   UNL     1      -8.146  11.234  68.608  1.00  0.00    -0.145 A  
HETATM   14  C   UNL     1      -9.180  11.394  67.676  1.00  0.00    -0.158 A  
BRANCH  13  15
HETATM   15  C   UNL     1      -7.836   9.907  69.203  1.00  0.00    -0.105 C  
HETATM   16  O   UNL     1      -7.295   8.996  68.602  1.00  0.00    -0.075 OA 
BRANCH  15  17
HETATM   17  O   UNL     1      -8.407   9.827  70.429  1.00  0.00    -0.185 OA 
BRANCH  17  18
HETATM   18  C   UNL     1      -9.234   8.668  70.629  1.00  0.00    -0.174 C  
BRANCH  18  19
HETATM   19  C   UNL     1      -9.902   8.826  72.011  1.00  0.00    -0.306 C  
BRANCH  19  20
HETATM   20  N   UNL     1     -11.347   8.545  72.095  1.00  0.00    -0.352 NA 
BRANCH  20  21
HETATM   21  C   UNL     1     -12.187   9.716  71.806  1.00  0.00    -0.384 C  
HETATM   22  C   UNL     1     -13.582   9.715  72.423  1.00  0.00    -0.397 C  
ENDBRANCH  20  21
BRANCH  20  23
HETATM   23  C   UNL     1     -11.658   7.361  71.273  1.00  0.00    -0.280 C  
HETATM   24  C   UNL     1     -11.780   6.062  72.060  1.00  0.00    -0.315 C  
ENDBRANCH  20  23
ENDBRANCH  19  20
ENDBRANCH  18  19
ENDBRANCH  17  18
ENDBRANCH  15  17
ENDBRANCH  13  15
ENDBRANCH   5   6
ENDBRANCH   4   5
ENDBRANCH   3   4
ENDBRANCH   2   3
TORSDOF 11
ENDMDL
MODEL      220
REMARK 921   NORMALIZED FREE ENERGY PREDICTED BY IDOCK:   -3.26 KCAL/MOL
REMARK 922        TOTAL FREE ENERGY PREDICTED BY IDOCK:   -6.36 KCAL/MOL
REMARK 923 INTER-LIGAND FREE ENERGY PREDICTED BY IDOCK:   -5.66 KCAL/MOL
REMARK 924 INTRA-LIGAND FREE ENERGY PREDICTED BY IDOCK:   -0.70 KCAL/MOL
REMARK 927      BINDING AFFINITY PREDICTED BY RF-SCORE:    0.00 PKD
ROOT
HETATM    1  C   UNL     1      -8.455  18.719  67.603  1.00  0.00    -0.292 C  
HETATM    2  C   UNL     1      -7.570  17.484  67.584  1.00  0.00    -0.203 C  
ENDROOT
BRANCH   2   3
HETATM    3  C   UNL     1      -7.790  16.627  68.829  1.00  0.00    -0.238 C  
BRANCH   3   4
HETATM    4  C   UNL     1      -8.810  15.524  68.573  1.00  0.00    -0.186 C  
BRANCH   4   5
HETATM    5  O   UNL     1      -8.240  14.590  67.649  1.00  0.00    -0.151 OA 
BRANCH   5   6
HETATM    6  C   UNL     1      -8.587  13.277  67.867  1.00  0.00    -0.188 A  
HETATM    7  C   UNL     1      -7.687  12.298  67.401  1.00  0.00    -0.165 A  
HETATM    8  C   UNL     1      -7.951  10.951  67.671  1.00  0.00    -0.114 A  
HETATM    9  N   UNL     1      -6.439  12.668  66.868  1.00  0.00    -0.471 NA 
HETATM   10  H1  UNL     1      -5.788  11.959  66.531  1.00  0.00     0.000 HD 
HETATM   11  C   UNL     1      -9.157  10.564  68.259  1.00  0.00    -0.146 A  
HETATM   12  H2  UNL     1      -5.956  13.244  67.557  1.00  0.00     0.000 HD 
HETATM   13  C   UNL     1     -10.098  11.533  68.618  1.00  0.00    -0.214 A  
HETATM   14  C   UNL     1      -9.798  12.890  68.441  1.00  0.00    -0.197 A  
BRANCH  13  15
HETATM   15  C   UNL     1     -11.450  11.087  69.048  1.00  0.00    -0.299 C  
HETATM   16  O   UNL     1     -12.438  11.111  68.335  1.00  0.00    -0.390 OA 
BRANCH  15  17
HETATM   17  O   UNL     1     -11.431  10.832  70.378  1.00  0.00    -0.303 OA 
BRANCH  17  18
HETATM   18  C   UNL     1     -12.605  10.166  70.875  1.00  0.00    -0.360 C  
BRANCH  18  19
HETATM   19  C   UNL     1     -12.192   9.433  72.169  1.00  0.00    -0.266 C  
BRANCH  19  20
HETATM   20  N   UNL     1     -11.370   8.218  72.020  1.00  0.00    -0.301 NA 
BRANCH  20  21
HETATM   21  C   UNL     1     -11.656   7.467  70.790  1.00  0.00    -0.277 C  
HETATM   22  C   UNL     1     -10.446   6.964  70.009  1.00  0.00    -0.231 C  
ENDBRANCH  20  21
BRANCH  20  23
HETATM   23  C   UNL     1      -9.949   8.571  72.197  1.00  0.00    -0.317 C  
HETATM   24  C   UNL     1      -9.296   7.956  73.430  1.00  0.00    -0.348 C  
ENDBRANCH  20  23
ENDBRANCH  19  20
ENDBRANCH  18  19
ENDBRANCH  17  18
ENDBRANCH  15  17
ENDBRANCH  13  15
ENDBRANCH   5   6
ENDBRANCH   4   5
ENDBRANCH   3   4
ENDBRANCH   2   3
TORSDOF 11
ENDMDL
MODEL      221
REMARK 921   NORMALIZED FREE ENERGY PREDICTED BY IDOCK:   -3.25 KCAL/MOL
REMARK 922        TOTAL FREE ENERGY PREDICTED BY IDOCK:   -6.35 KCAL/MOL
REMARK 923 INTER-LIGAND FREE ENERGY PREDICTED BY IDOCK:   -6.04 KCAL/MOL
REMARK 924 INTRA-LIGAND FREE ENERGY PREDICTED BY IDOCK:   -0.31 KCAL/MOL
REMARK 927      BINDING AFFINITY PREDICTED BY RF-SCORE:    0.00 PKD
ROOT
HETATM    1  C   UNL     1     -13.194  12.497  71.870  1.00  0.00    -0.495 C  
HETATM    2  C   UNL     1     -13.347  10.987  71.951  1.00  0.00    -0.423 C  
ENDROOT
BRANCH   2   3
HETATM    3  C   UNL     1     -12.295  10.279  71.100  1.00  0.00    -0.501 C  
BRANCH   3   4
HETATM    4  C   UNL     1     -11.575   9.195  71.891  1.00  0.00    -0.360 C  
BRANCH   4   5
HETATM    5  O   UNL     1     -12.285   7.963  71.718  1.00  0.00    -0.288 OA 
BRANCH   5   6
HETATM    6  C   UNL     1     -11.584   6.978  71.064  1.00  0.00    -0.320 A  
HETATM    7  C   UNL     1     -10.926   6.028  71.869  1.00  0.00    -0.264 A  
HETATM    8  C   UNL     1     -10.269   4.957  71.254  1.00  0.00    -0.248 A  
HETATM    9  N   UNL     1     -11.102   6.025  73.264  1.00  0.00    -0.442 NA 
HETATM   10  H1  UNL     1     -10.625   5.338  73.847  1.00  0.00     0.000 HD 
HETATM   11  C   UNL     1     -10.136   4.904  69.865  1.00  0.00    -0.332 A  
HETATM   12  H2  UNL     1     -12.101   5.971  73.459  1.00  0.00     0.000 HD 
HETATM   13  C   UNL     1     -10.697   5.910  69.074  1.00  0.00    -0.379 A  
HETATM   14  C   UNL     1     -11.440   6.933  69.677  1.00  0.00    -0.204 A  
BRANCH  13  15
HETATM   15  C   UNL     1     -10.367   5.942  67.624  1.00  0.00    -0.212 C  
HETATM   16  O   UNL     1     -10.907   5.247  66.783  1.00  0.00    -0.232 OA 
BRANCH  15  17
HETATM   17  O   UNL     1      -9.273   6.719  67.435  1.00  0.00    -0.126 OA 
BRANCH  17  18
HETATM   18  C   UNL     1      -9.477   8.116  67.706  1.00  0.00    -0.142 C  
BRANCH  18  19
HETATM   19  C   UNL     1      -9.707   8.808  66.346  1.00  0.00    -0.265 C  
BRANCH  19  20
HETATM   20  N   UNL     1      -8.743   9.851  65.952  1.00  0.00    -0.135 NA 
BRANCH  20  21
HETATM   21  C   UNL     1      -7.753   9.390  64.968  1.00  0.00    -0.110 C  
HETATM   22  C   UNL     1      -6.398   8.964  65.522  1.00  0.00    -0.063 C  
ENDBRANCH  20  21
BRANCH  20  23
HETATM   23  C   UNL     1      -9.480  11.062  65.545  1.00  0.00    -0.216 C  
HETATM   24  C   UNL     1     -10.530  11.526  66.547  1.00  0.00    -0.284 C  
ENDBRANCH  20  23
ENDBRANCH  19  20
ENDBRANCH  18  19
ENDBRANCH  17  18
ENDBRANCH  15  17
ENDBRANCH  13  15
ENDBRANCH   5   6
ENDBRANCH   4   5
ENDBRANCH   3   4
ENDBRANCH   2   3
TORSDOF 11
ENDMDL
MODEL      222
REMARK 921   NORMALIZED FREE ENERGY PREDICTED BY IDOCK:   -3.24 KCAL/MOL
REMARK 922        TOTAL FREE ENERGY PREDICTED BY IDOCK:   -6.33 KCAL/MOL
REMARK 923 INTER-LIGAND FREE ENERGY PREDICTED BY IDOCK:   -4.97 KCAL/MOL
REMARK 924 INTRA-LIGAND FREE ENERGY PREDICTED BY IDOCK:   -1.35 KCAL/MOL
REMARK 927      BINDING AFFINITY PREDICTED BY RF-SCORE:    0.00 PKD
ROOT
HETATM    1  C   UNL     1      -8.329   9.945  65.610  1.00  0.00    -0.140 C  
HETATM    2  C   UNL     1      -9.537  10.409  64.814  1.00  0.00    -0.352 C  
ENDROOT
BRANCH   2   3
HETATM    3  C   UNL     1     -10.725  10.696  65.729  1.00  0.00    -0.097 C  
BRANCH   3   4
HETATM    4  C   UNL     1     -10.300  11.477  66.966  1.00  0.00    -0.220 C  
BRANCH   4   5
HETATM    5  O   UNL     1     -11.259  11.235  68.003  1.00  0.00    -0.240 OA 
BRANCH   5   6
HETATM    6  C   UNL     1     -10.785  10.513  69.073  1.00  0.00    -0.225 A  
HETATM    7  C   UNL     1     -11.647  10.380  70.178  1.00  0.00    -0.312 A  
HETATM    8  C   UNL     1     -11.247   9.585  71.258  1.00  0.00    -0.452 A  
HETATM    9  N   UNL     1     -12.971  10.851  70.117  1.00  0.00    -0.208 NA 
HETATM   10  H1  UNL     1     -13.595  10.754  70.917  1.00  0.00     0.000 HD 
HETATM   11  C   UNL     1      -9.957   9.052  71.313  1.00  0.00    -0.381 A  
HETATM   12  H2  UNL     1     -13.423  10.427  69.307  1.00  0.00     0.000 HD 
HETATM   13  C   UNL     1      -9.066   9.281  70.262  1.00  0.00    -0.271 A  
HETATM   14  C   UNL     1      -9.492   9.993  69.133  1.00  0.00    -0.214 A  
BRANCH  13  15
HETATM   15  C   UNL     1      -7.644   8.882  70.436  1.00  0.00    -0.088 C  
HETATM   16  O   UNL     1      -6.919   9.299  71.322  1.00  0.00    -0.210 OA 
BRANCH  15  17
HETATM   17  O   UNL     1      -7.256   8.144  69.368  1.00  0.00    -0.064 OA 
BRANCH  17  18
HETATM   18  C   UNL     1      -7.528   6.736  69.484  1.00  0.00    -0.093 C  
BRANCH  18  19
HETATM   19  C   UNL     1      -8.310   6.324  68.220  1.00  0.00    -0.115 C  
BRANCH  19  20
HETATM   20  N   UNL     1      -9.468   5.431  68.408  1.00  0.00    -0.118 NA 
BRANCH  20  21
HETATM   21  C   UNL     1     -10.209   5.688  69.651  1.00  0.00    -0.251 C  
HETATM   22  C   UNL     1     -10.028   4.666  70.768  1.00  0.00    -0.284 C  
ENDBRANCH  20  21
BRANCH  20  23
HETATM   23  C   UNL     1     -10.301   5.458  67.191  1.00  0.00    -0.236 C  
HETATM   24  C   UNL     1     -10.898   6.822  66.866  1.00  0.00    -0.402 C  
ENDBRANCH  20  23
ENDBRANCH  19  20
ENDBRANCH  18  19
ENDBRANCH  17  18
ENDBRANCH  15  17
ENDBRANCH  13  15
ENDBRANCH   5   6
ENDBRANCH   4   5
ENDBRANCH   3   4
ENDBRANCH   2   3
TORSDOF 11
ENDMDL
MODEL      223
REMARK 921   NORMALIZED FREE ENERGY PREDICTED BY IDOCK:   -3.21 KCAL/MOL
REMARK 922        TOTAL FREE ENERGY PREDICTED BY IDOCK:   -6.29 KCAL/MOL
REMARK 923 INTER-LIGAND FREE ENERGY PREDICTED BY IDOCK:   -6.37 KCAL/MOL
REMARK 924 INTRA-LIGAND FREE ENERGY PREDICTED BY IDOCK:    0.07 KCAL/MOL
REMARK 927      BINDING AFFINITY PREDICTED BY RF-SCORE:    0.00 PKD
ROOT
HETATM    1  C   UNL     1     -11.749   8.904  71.551  1.00  0.00    -0.394 C  
HETATM    2  C   UNL     1     -10.688   9.340  70.554  1.00  0.00    -0.313 C  
ENDROOT
BRANCH   2   3
HETATM    3  C   UNL     1     -10.961  10.751  70.038  1.00  0.00    -0.280 C  
BRANCH   3   4
HETATM    4  C   UNL     1     -12.427  10.935  69.666  1.00  0.00    -0.129 C  
BRANCH   4   5
HETATM    5  O   UNL     1     -13.086  11.602  70.748  1.00  0.00    -0.070 OA 
BRANCH   5   6
HETATM    6  C   UNL     1     -12.602  12.858  71.034  1.00  0.00    -0.287 A  
HETATM    7  C   UNL     1     -13.201  13.537  72.112  1.00  0.00    -0.458 A  
HETATM    8  C   UNL     1     -12.690  14.781  72.498  1.00  0.00    -0.455 A  
HETATM    9  N   UNL     1     -14.148  12.892  72.928  1.00  0.00    -0.418 NA 
HETATM   10  H1  UNL     1     -14.581  13.384  73.710  1.00  0.00     0.000 HD 
HETATM   11  C   UNL     1     -11.703  15.413  71.739  1.00  0.00    -0.489 A  
HETATM   12  H2  UNL     1     -13.730  12.033  73.285  1.00  0.00     0.000 HD 
HETATM   13  C   UNL     1     -11.190  14.783  70.603  1.00  0.00    -0.173 A  
HETATM   14  C   UNL     1     -11.626  13.495  70.267  1.00  0.00    -0.138 A  
BRANCH  13  15
HETATM   15  C   UNL     1     -10.297  15.559  69.702  1.00  0.00    -0.283 C  
HETATM   16  O   UNL     1      -9.091  15.654  69.847  1.00  0.00    -0.166 OA 
BRANCH  15  17
HETATM   17  O   UNL     1     -11.054  16.266  68.829  1.00  0.00    -0.323 OA 
BRANCH  17  18
HETATM   18  C   UNL     1     -11.580  15.497  67.734  1.00  0.00    -0.187 C  
BRANCH  18  19
HETATM   19  C   UNL     1     -10.443  15.348  66.701  1.00  0.00    -0.293 C  
BRANCH  19  20
HETATM   20  N   UNL     1     -10.299  14.037  66.045  1.00  0.00    -0.297 NA 
BRANCH  20  21
HETATM   21  C   UNL     1      -9.354  13.142  66.728  1.00  0.00    -0.244 C  
HETATM   22  C   UNL     1      -9.249  11.723  66.177  1.00  0.00    -0.218 C  
ENDBRANCH  20  21
BRANCH  20  23
HETATM   23  C   UNL     1     -11.637  13.454  65.831  1.00  0.00    -0.342 C  
HETATM   24  C   UNL     1     -12.290  13.842  64.510  1.00  0.00    -0.408 C  
ENDBRANCH  20  23
ENDBRANCH  19  20
ENDBRANCH  18  19
ENDBRANCH  17  18
ENDBRANCH  15  17
ENDBRANCH  13  15
ENDBRANCH   5   6
ENDBRANCH   4   5
ENDBRANCH   3   4
ENDBRANCH   2   3
TORSDOF 11
ENDMDL
MODEL      224
REMARK 921   NORMALIZED FREE ENERGY PREDICTED BY IDOCK:   -3.21 KCAL/MOL
REMARK 922        TOTAL FREE ENERGY PREDICTED BY IDOCK:   -6.29 KCAL/MOL
REMARK 923 INTER-LIGAND FREE ENERGY PREDICTED BY IDOCK:   -5.58 KCAL/MOL
REMARK 924 INTRA-LIGAND FREE ENERGY PREDICTED BY IDOCK:   -0.70 KCAL/MOL
REMARK 927      BINDING AFFINITY PREDICTED BY RF-SCORE:    0.00 PKD
ROOT
HETATM    1  C   UNL     1     -13.099  11.971  71.841  1.00  0.00    -0.475 C  
HETATM    2  C   UNL     1     -13.235  10.473  71.626  1.00  0.00    -0.493 C  
ENDROOT
BRANCH   2   3
HETATM    3  C   UNL     1     -11.870   9.815  71.442  1.00  0.00    -0.488 C  
BRANCH   3   4
HETATM    4  C   UNL     1     -11.675   8.654  72.409  1.00  0.00    -0.323 C  
BRANCH   4   5
HETATM    5  O   UNL     1     -12.359   7.510  71.884  1.00  0.00    -0.302 OA 
BRANCH   5   6
HETATM    6  C   UNL     1     -11.556   6.607  71.228  1.00  0.00    -0.323 A  
HETATM    7  C   UNL     1     -10.933   5.622  72.019  1.00  0.00    -0.243 A  
HETATM    8  C   UNL     1     -10.174   4.628  71.393  1.00  0.00    -0.212 A  
HETATM    9  N   UNL     1     -11.239   5.503  73.387  1.00  0.00    -0.472 NA 
HETATM   10  H1  UNL     1     -10.788   4.790  73.960  1.00  0.00     0.000 HD 
HETATM   11  C   UNL     1      -9.910   4.690  70.023  1.00  0.00    -0.294 A  
HETATM   12  H2  UNL     1     -12.249   5.395  73.480  1.00  0.00     0.000 HD 
HETATM   13  C   UNL     1     -10.439   5.733  69.259  1.00  0.00    -0.358 A  
HETATM   14  C   UNL     1     -11.281   6.677  69.862  1.00  0.00    -0.421 A  
BRANCH  13  15
HETATM   15  C   UNL     1      -9.977   5.892  67.854  1.00  0.00    -0.134 C  
HETATM   16  O   UNL     1     -10.559   5.436  66.886  1.00  0.00    -0.264 OA 
BRANCH  15  17
HETATM   17  O   UNL     1      -8.744   6.452  67.854  1.00  0.00    -0.116 OA 
BRANCH  17  18
HETATM   18  C   UNL     1      -7.789   5.796  67.002  1.00  0.00    -0.102 C  
BRANCH  18  19
HETATM   19  C   UNL     1      -7.178   6.882  66.092  1.00  0.00    -0.074 C  
BRANCH  19  20
HETATM   20  N   UNL     1      -7.508   6.821  64.656  1.00  0.00    -0.090 NA 
BRANCH  20  21
HETATM   21  C   UNL     1      -8.217   5.592  64.273  1.00  0.00    -0.117 C  
HETATM   22  C   UNL     1      -7.679   4.855  63.050  1.00  0.00    -0.066 C  
ENDBRANCH  20  21
BRANCH  20  23
HETATM   23  C   UNL     1      -8.197   8.064  64.265  1.00  0.00    -0.067 C  
HETATM   24  C   UNL     1      -8.385   9.064  65.400  1.00  0.00    -0.151 C  
ENDBRANCH  20  23
ENDBRANCH  19  20
ENDBRANCH  18  19
ENDBRANCH  17  18
ENDBRANCH  15  17
ENDBRANCH  13  15
ENDBRANCH   5   6
ENDBRANCH   4   5
ENDBRANCH   3   4
ENDBRANCH   2   3
TORSDOF 11
ENDMDL
MODEL      225
REMARK 921   NORMALIZED FREE ENERGY PREDICTED BY IDOCK:   -3.21 KCAL/MOL
REMARK 922        TOTAL FREE ENERGY PREDICTED BY IDOCK:   -6.28 KCAL/MOL
REMARK 923 INTER-LIGAND FREE ENERGY PREDICTED BY IDOCK:   -6.16 KCAL/MOL
REMARK 924 INTRA-LIGAND FREE ENERGY PREDICTED BY IDOCK:   -0.12 KCAL/MOL
REMARK 927      BINDING AFFINITY PREDICTED BY RF-SCORE:    0.00 PKD
ROOT
HETATM    1  C   UNL     1      -6.751   9.033  70.200  1.00  0.00    -0.047 C  
HETATM    2  C   UNL     1      -8.014   8.415  69.622  1.00  0.00    -0.106 C  
ENDROOT
BRANCH   2   3
HETATM    3  C   UNL     1      -9.264   9.096  70.173  1.00  0.00    -0.231 C  
BRANCH   3   4
HETATM    4  C   UNL     1     -10.083   8.145  71.036  1.00  0.00    -0.187 C  
BRANCH   4   5
HETATM    5  O   UNL     1     -11.465   8.304  70.695  1.00  0.00    -0.274 OA 
BRANCH   5   6
HETATM    6  C   UNL     1     -11.960   9.577  70.862  1.00  0.00    -0.295 A  
HETATM    7  C   UNL     1     -12.865   9.770  71.923  1.00  0.00    -0.427 A  
HETATM    8  C   UNL     1     -13.333  11.061  72.189  1.00  0.00    -0.285 A  
HETATM    9  N   UNL     1     -13.132   8.734  72.836  1.00  0.00    -0.738 NA 
HETATM   10  H1  UNL     1     -13.787   8.874  73.604  1.00  0.00     0.000 HD 
HETATM   11  C   UNL     1     -13.029  12.121  71.332  1.00  0.00    -0.357 A  
HETATM   12  H2  UNL     1     -12.245   8.418  73.228  1.00  0.00     0.000 HD 
HETATM   13  C   UNL     1     -12.219  11.901  70.215  1.00  0.00    -0.353 A  
HETATM   14  C   UNL     1     -11.668  10.632  69.998  1.00  0.00    -0.405 A  
BRANCH  13  15
HETATM   15  C   UNL     1     -12.081  12.989  69.211  1.00  0.00    -0.200 C  
HETATM   16  O   UNL     1     -12.591  14.090  69.320  1.00  0.00    -0.151 OA 
BRANCH  15  17
HETATM   17  O   UNL     1     -11.466  12.500  68.108  1.00  0.00    -0.273 OA 
BRANCH  17  18
HETATM   18  C   UNL     1     -10.048  12.732  68.061  1.00  0.00    -0.230 C  
BRANCH  18  19
HETATM   19  C   UNL     1      -9.751  13.437  66.722  1.00  0.00    -0.262 C  
BRANCH  19  20
HETATM   20  N   UNL     1      -9.911  14.902  66.684  1.00  0.00    -0.250 NA 
BRANCH  20  21
HETATM   21  C   UNL     1     -11.239  15.333  66.225  1.00  0.00    -0.223 C  
HETATM   22  C   UNL     1     -11.385  15.592  64.729  1.00  0.00    -0.362 C  
ENDBRANCH  20  21
BRANCH  20  23
HETATM   23  C   UNL     1      -9.509  15.466  67.986  1.00  0.00    -0.201 C  
HETATM   24  C   UNL     1     -10.068  16.854  68.271  1.00  0.00    -0.302 C  
ENDBRANCH  20  23
ENDBRANCH  19  20
ENDBRANCH  18  19
ENDBRANCH  17  18
ENDBRANCH  15  17
ENDBRANCH  13  15
ENDBRANCH   5   6
ENDBRANCH   4   5
ENDBRANCH   3   4
ENDBRANCH   2   3
TORSDOF 11
ENDMDL
MODEL      226
REMARK 921   NORMALIZED FREE ENERGY PREDICTED BY IDOCK:   -3.19 KCAL/MOL
REMARK 922        TOTAL FREE ENERGY PREDICTED BY IDOCK:   -6.26 KCAL/MOL
REMARK 923 INTER-LIGAND FREE ENERGY PREDICTED BY IDOCK:   -5.09 KCAL/MOL
REMARK 924 INTRA-LIGAND FREE ENERGY PREDICTED BY IDOCK:   -1.17 KCAL/MOL
REMARK 927      BINDING AFFINITY PREDICTED BY RF-SCORE:    0.00 PKD
ROOT
HETATM    1  C   UNL     1     -10.888  18.728  67.165  1.00  0.00    -0.375 C  
HETATM    2  C   UNL     1     -10.153  17.757  66.255  1.00  0.00    -0.345 C  
ENDROOT
BRANCH   2   3
HETATM    3  C   UNL     1      -8.728  17.512  66.746  1.00  0.00    -0.278 C  
BRANCH   3   4
HETATM    4  C   UNL     1      -8.317  16.056  66.562  1.00  0.00    -0.313 C  
BRANCH   4   5
HETATM    5  O   UNL     1      -7.648  15.624  67.752  1.00  0.00    -0.123 OA 
BRANCH   5   6
HETATM    6  C   UNL     1      -7.624  14.262  67.940  1.00  0.00    -0.153 A  
HETATM    7  C   UNL     1      -6.396  13.612  67.709  1.00  0.00    -0.165 A  
HETATM    8  C   UNL     1      -6.295  12.241  67.966  1.00  0.00    -0.073 A  
HETATM    9  N   UNL     1      -5.233  14.354  67.435  1.00  0.00    -0.300 NA 
HETATM   10  H1  UNL     1      -4.343  13.884  67.268  1.00  0.00     0.000 HD 
HETATM   11  C   UNL     1      -7.425  11.493  68.303  1.00  0.00    -0.103 A  
HETATM   12  H2  UNL     1      -5.100  15.029  68.188  1.00  0.00     0.000 HD 
HETATM   13  C   UNL     1      -8.665  12.124  68.422  1.00  0.00    -0.141 A  
HETATM   14  C   UNL     1      -8.755  13.513  68.262  1.00  0.00    -0.172 A  
BRANCH  13  15
HETATM   15  C   UNL     1      -9.881  11.280  68.576  1.00  0.00    -0.197 C  
HETATM   16  O   UNL     1     -10.770  11.500  69.379  1.00  0.00    -0.179 OA 
BRANCH  15  17
HETATM   17  O   UNL     1      -9.744  10.164  67.821  1.00  0.00    -0.150 OA 
BRANCH  17  18
HETATM   18  C   UNL     1     -10.644  10.084  66.703  1.00  0.00    -0.125 C  
BRANCH  18  19
HETATM   19  C   UNL     1      -9.963  10.811  65.525  1.00  0.00    -0.263 C  
BRANCH  19  20
HETATM   20  N   UNL     1     -10.780  11.775  64.766  1.00  0.00    -0.289 NA 
BRANCH  20  21
HETATM   21  C   UNL     1     -10.426  13.177  65.030  1.00  0.00    -0.342 C  
HETATM   22  C   UNL     1     -11.439  13.991  65.827  1.00  0.00    -0.318 C  
ENDBRANCH  20  21
BRANCH  20  23
HETATM   23  C   UNL     1     -10.763  11.406  63.339  1.00  0.00    -0.332 C  
HETATM   24  C   UNL     1      -9.617  10.484  62.941  1.00  0.00    -0.355 C  
ENDBRANCH  20  23
ENDBRANCH  19  20
ENDBRANCH  18  19
ENDBRANCH  17  18
ENDBRANCH  15  17
ENDBRANCH  13  15
ENDBRANCH   5   6
ENDBRANCH   4   5
ENDBRANCH   3   4
ENDBRANCH   2   3
TORSDOF 11
ENDMDL
MODEL      227
REMARK 921   NORMALIZED FREE ENERGY PREDICTED BY IDOCK:   -3.19 KCAL/MOL
REMARK 922        TOTAL FREE ENERGY PREDICTED BY IDOCK:   -6.25 KCAL/MOL
REMARK 923 INTER-LIGAND FREE ENERGY PREDICTED BY IDOCK:   -5.45 KCAL/MOL
REMARK 924 INTRA-LIGAND FREE ENERGY PREDICTED BY IDOCK:   -0.80 KCAL/MOL
REMARK 927      BINDING AFFINITY PREDICTED BY RF-SCORE:    0.00 PKD
ROOT
HETATM    1  C   UNL     1      -8.070  18.906  67.780  1.00  0.00    -0.284 C  
HETATM    2  C   UNL     1      -7.659  17.463  67.537  1.00  0.00    -0.201 C  
ENDROOT
BRANCH   2   3
HETATM    3  C   UNL     1      -8.099  16.562  68.688  1.00  0.00    -0.233 C  
BRANCH   3   4
HETATM    4  C   UNL     1      -9.426  15.878  68.386  1.00  0.00    -0.201 C  
BRANCH   4   5
HETATM    5  O   UNL     1      -9.239  15.007  67.264  1.00  0.00    -0.190 OA 
BRANCH   5   6
HETATM    6  C   UNL     1      -9.975  13.846  67.304  1.00  0.00    -0.242 A  
HETATM    7  C   UNL     1     -10.601  13.451  66.106  1.00  0.00    -0.292 A  
HETATM    8  C   UNL     1     -11.291  12.235  66.070  1.00  0.00    -0.398 A  
HETATM    9  N   UNL     1     -10.362  14.149  64.909  1.00  0.00    -0.468 NA 
HETATM   10  H1  UNL     1     -10.816  13.864  64.042  1.00  0.00     0.000 HD 
HETATM   11  C   UNL     1     -11.487  11.491  67.236  1.00  0.00    -0.338 A  
HETATM   12  H2  UNL     1      -9.355  14.173  64.749  1.00  0.00     0.000 HD 
HETATM   13  C   UNL     1     -10.957  11.944  68.446  1.00  0.00    -0.273 A  
HETATM   14  C   UNL     1     -10.182  13.110  68.471  1.00  0.00    -0.218 A  
BRANCH  13  15
HETATM   15  C   UNL     1     -11.352  11.248  69.700  1.00  0.00    -0.287 C  
HETATM   16  O   UNL     1     -12.367  11.494  70.329  1.00  0.00    -0.304 OA 
BRANCH  15  17
HETATM   17  O   UNL     1     -10.334  10.452  70.106  1.00  0.00    -0.218 OA 
BRANCH  17  18
HETATM   18  C   UNL     1     -10.748   9.228  70.737  1.00  0.00    -0.284 C  
BRANCH  18  19
HETATM   19  C   UNL     1      -9.485   8.356  70.898  1.00  0.00    -0.169 C  
BRANCH  19  20
HETATM   20  N   UNL     1      -9.281   7.280  69.912  1.00  0.00    -0.142 NA 
BRANCH  20  21
HETATM   21  C   UNL     1      -8.416   7.672  68.790  1.00  0.00    -0.129 C  
HETATM   22  C   UNL     1      -9.120   8.008  67.479  1.00  0.00    -0.146 C  
ENDBRANCH  20  21
BRANCH  20  23
HETATM   23  C   UNL     1      -8.845   6.058  70.613  1.00  0.00    -0.142 C  
HETATM   24  C   UNL     1      -9.707   4.832  70.337  1.00  0.00    -0.289 C  
ENDBRANCH  20  23
ENDBRANCH  19  20
ENDBRANCH  18  19
ENDBRANCH  17  18
ENDBRANCH  15  17
ENDBRANCH  13  15
ENDBRANCH   5   6
ENDBRANCH   4   5
ENDBRANCH   3   4
ENDBRANCH   2   3
TORSDOF 11
ENDMDL
MODEL      228
REMARK 921   NORMALIZED FREE ENERGY PREDICTED BY IDOCK:   -3.18 KCAL/MOL
REMARK 922        TOTAL FREE ENERGY PREDICTED BY IDOCK:   -6.24 KCAL/MOL
REMARK 923 INTER-LIGAND FREE ENERGY PREDICTED BY IDOCK:   -5.21 KCAL/MOL
REMARK 924 INTRA-LIGAND FREE ENERGY PREDICTED BY IDOCK:   -1.02 KCAL/MOL
REMARK 927      BINDING AFFINITY PREDICTED BY RF-SCORE:    0.00 PKD
ROOT
HETATM    1  C   UNL     1     -12.942  11.862  63.797  1.00  0.00    -0.290 C  
HETATM    2  C   UNL     1     -11.707  12.554  63.244  1.00  0.00    -0.478 C  
ENDROOT
BRANCH   2   3
HETATM    3  C   UNL     1     -10.428  11.912  63.779  1.00  0.00    -0.468 C  
BRANCH   3   4
HETATM    4  C   UNL     1     -10.396  11.917  65.302  1.00  0.00    -0.276 C  
BRANCH   4   5
HETATM    5  O   UNL     1     -10.895  13.180  65.759  1.00  0.00    -0.271 OA 
BRANCH   5   6
HETATM    6  C   UNL     1     -10.215  13.719  66.826  1.00  0.00    -0.268 A  
HETATM    7  C   UNL     1     -10.973  14.467  67.747  1.00  0.00    -0.275 A  
HETATM    8  C   UNL     1     -10.346  14.966  68.894  1.00  0.00    -0.244 A  
HETATM    9  N   UNL     1     -12.373  14.534  67.637  1.00  0.00    -0.585 NA 
HETATM   10  H1  UNL     1     -12.922  15.076  68.304  1.00  0.00     0.000 HD 
HETATM   11  C   UNL     1      -8.964  14.856  69.057  1.00  0.00    -0.174 A  
HETATM   12  H2  UNL     1     -12.738  13.581  67.624  1.00  0.00     0.000 HD 
HETATM   13  C   UNL     1      -8.199  14.208  68.084  1.00  0.00    -0.149 A  
HETATM   14  C   UNL     1      -8.832  13.621  66.981  1.00  0.00    -0.233 A  
BRANCH  13  15
HETATM   15  C   UNL     1      -6.716  14.286  68.177  1.00  0.00    -0.128 C  
HETATM   16  O   UNL     1      -6.011  14.891  67.389  1.00  0.00    -0.338 OA 
BRANCH  15  17
HETATM   17  O   UNL     1      -6.288  13.444  69.148  1.00  0.00    -0.091 OA 
BRANCH  17  18
HETATM   18  C   UNL     1      -6.030  12.101  68.705  1.00  0.00    -0.055 C  
BRANCH  18  19
HETATM   19  C   UNL     1      -6.210  11.180  69.930  1.00  0.00    -0.133 C  
BRANCH  19  20
HETATM   20  N   UNL     1      -7.502  10.484  70.063  1.00  0.00    -0.124 NA 
BRANCH  20  21
HETATM   21  C   UNL     1      -8.273  10.438  68.813  1.00  0.00    -0.128 C  
HETATM   22  C   UNL     1      -9.777  10.656  68.939  1.00  0.00    -0.210 C  
ENDBRANCH  20  21
BRANCH  20  23
HETATM   23  C   UNL     1      -7.277   9.164  70.684  1.00  0.00    -0.105 C  
HETATM   24  C   UNL     1      -8.368   8.732  71.655  1.00  0.00    -0.190 C  
ENDBRANCH  20  23
ENDBRANCH  19  20
ENDBRANCH  18  19
ENDBRANCH  17  18
ENDBRANCH  15  17
ENDBRANCH  13  15
ENDBRANCH   5   6
ENDBRANCH   4   5
ENDBRANCH   3   4
ENDBRANCH   2   3
TORSDOF 11
ENDMDL
MODEL      229
REMARK 921   NORMALIZED FREE ENERGY PREDICTED BY IDOCK:   -3.18 KCAL/MOL
REMARK 922        TOTAL FREE ENERGY PREDICTED BY IDOCK:   -6.23 KCAL/MOL
REMARK 923 INTER-LIGAND FREE ENERGY PREDICTED BY IDOCK:   -5.66 KCAL/MOL
REMARK 924 INTRA-LIGAND FREE ENERGY PREDICTED BY IDOCK:   -0.57 KCAL/MOL
REMARK 927      BINDING AFFINITY PREDICTED BY RF-SCORE:    0.00 PKD
ROOT
HETATM    1  C   UNL     1     -10.885  19.603  67.268  1.00  0.00    -0.519 C  
HETATM    2  C   UNL     1      -9.712  20.538  67.024  1.00  0.00    -0.548 C  
ENDROOT
BRANCH   2   3
HETATM    3  C   UNL     1      -8.447  19.757  66.674  1.00  0.00    -0.371 C  
BRANCH   3   4
HETATM    4  C   UNL     1      -7.418  19.829  67.795  1.00  0.00    -0.286 C  
BRANCH   4   5
HETATM    5  O   UNL     1      -7.752  18.841  68.777  1.00  0.00    -0.326 OA 
BRANCH   5   6
HETATM    6  C   UNL     1      -7.763  17.546  68.313  1.00  0.00    -0.247 A  
HETATM    7  C   UNL     1      -6.510  16.947  68.078  1.00  0.00    -0.144 A  
HETATM    8  C   UNL     1      -6.462  15.605  67.687  1.00  0.00    -0.191 A  
HETATM    9  N   UNL     1      -5.321  17.609  68.434  1.00  0.00    -0.147 NA 
HETATM   10  H1  UNL     1      -4.414  17.175  68.264  1.00  0.00     0.000 HD 
HETATM   11  C   UNL     1      -7.635  14.907  67.389  1.00  0.00    -0.232 A  
HETATM   12  H2  UNL     1      -5.376  17.854  69.423  1.00  0.00     0.000 HD 
HETATM   13  C   UNL     1      -8.873  15.541  67.518  1.00  0.00    -0.191 A  
HETATM   14  C   UNL     1      -8.933  16.854  68.002  1.00  0.00    -0.224 A  
BRANCH  13  15
HETATM   15  C   UNL     1     -10.083  14.849  66.999  1.00  0.00    -0.244 C  
HETATM   16  O   UNL     1     -11.217  15.285  67.099  1.00  0.00    -0.334 OA 
BRANCH  15  17
HETATM   17  O   UNL     1      -9.739  13.609  66.576  1.00  0.00    -0.277 OA 
BRANCH  17  18
HETATM   18  C   UNL     1     -10.566  12.551  67.090  1.00  0.00    -0.228 C  
BRANCH  18  19
HETATM   19  C   UNL     1      -9.829  11.955  68.307  1.00  0.00    -0.199 C  
BRANCH  19  20
HETATM   20  N   UNL     1      -9.557  10.507  68.285  1.00  0.00    -0.154 NA 
BRANCH  20  21
HETATM   21  C   UNL     1     -10.037   9.840  67.066  1.00  0.00    -0.218 C  
HETATM   22  C   UNL     1     -10.303   8.343  67.175  1.00  0.00    -0.381 C  
ENDBRANCH  20  21
BRANCH  20  23
HETATM   23  C   UNL     1      -8.129  10.279  68.575  1.00  0.00    -0.109 C  
HETATM   24  C   UNL     1      -7.179  10.781  67.494  1.00  0.00    -0.090 C  
ENDBRANCH  20  23
ENDBRANCH  19  20
ENDBRANCH  18  19
ENDBRANCH  17  18
ENDBRANCH  15  17
ENDBRANCH  13  15
ENDBRANCH   5   6
ENDBRANCH   4   5
ENDBRANCH   3   4
ENDBRANCH   2   3
TORSDOF 11
ENDMDL
MODEL      230
REMARK 921   NORMALIZED FREE ENERGY PREDICTED BY IDOCK:   -3.17 KCAL/MOL
REMARK 922        TOTAL FREE ENERGY PREDICTED BY IDOCK:   -6.22 KCAL/MOL
REMARK 923 INTER-LIGAND FREE ENERGY PREDICTED BY IDOCK:   -5.35 KCAL/MOL
REMARK 924 INTRA-LIGAND FREE ENERGY PREDICTED BY IDOCK:   -0.88 KCAL/MOL
REMARK 927      BINDING AFFINITY PREDICTED BY RF-SCORE:    0.00 PKD
ROOT
HETATM    1  C   UNL     1      -9.689   9.698  66.039  1.00  0.00    -0.331 C  
HETATM    2  C   UNL     1      -9.051   9.282  64.724  1.00  0.00    -0.201 C  
ENDROOT
BRANCH   2   3
HETATM    3  C   UNL     1      -7.988   8.207  64.942  1.00  0.00    -0.145 C  
BRANCH   3   4
HETATM    4  C   UNL     1      -8.467   6.843  64.459  1.00  0.00     0.196 C  
BRANCH   4   5
HETATM    5  O   UNL     1      -8.269   5.897  65.516  1.00  0.00    -0.124 OA 
BRANCH   5   6
HETATM    6  C   UNL     1      -8.934   6.188  66.685  1.00  0.00    -0.130 A  
HETATM    7  C   UNL     1     -10.309   5.888  66.723  1.00  0.00    -0.244 A  
HETATM    8  C   UNL     1     -11.014   6.086  67.915  1.00  0.00    -0.334 A  
HETATM    9  N   UNL     1     -10.923   5.201  65.660  1.00  0.00    -0.745 NA 
HETATM   10  H1  UNL     1     -11.919   4.984  65.687  1.00  0.00     0.000 HD 
HETATM   11  C   UNL     1     -10.407   6.709  69.007  1.00  0.00    -0.216 A  
HETATM   12  H2  UNL     1     -10.412   4.333  65.504  1.00  0.00     0.000 HD 
HETATM   13  C   UNL     1      -9.070   7.106  68.926  1.00  0.00    -0.131 A  
HETATM   14  C   UNL     1      -8.331   6.823  67.771  1.00  0.00    -0.119 A  
BRANCH  13  15
HETATM   15  C   UNL     1      -8.511   7.948  70.018  1.00  0.00    -0.134 C  
HETATM   16  O   UNL     1      -7.583   8.725  69.877  1.00  0.00    -0.060 OA 
BRANCH  15  17
HETATM   17  O   UNL     1      -9.071   7.578  71.195  1.00  0.00    -0.146 OA 
BRANCH  17  18
HETATM   18  C   UNL     1      -9.606   8.665  71.969  1.00  0.00    -0.314 C  
BRANCH  18  19
HETATM   19  C   UNL     1     -10.761   8.089  72.814  1.00  0.00    -0.362 C  
BRANCH  19  20
HETATM   20  N   UNL     1     -12.116   8.160  72.238  1.00  0.00    -0.356 NA 
BRANCH  20  21
HETATM   21  C   UNL     1     -12.259   9.200  71.209  1.00  0.00    -0.327 C  
HETATM   22  C   UNL     1     -12.858  10.525  71.668  1.00  0.00    -0.581 C  
ENDBRANCH  20  21
BRANCH  20  23
HETATM   23  C   UNL     1     -12.525   6.813  71.796  1.00  0.00    -0.349 C  
HETATM   24  C   UNL     1     -11.846   5.672  72.545  1.00  0.00    -0.194 C  
ENDBRANCH  20  23
ENDBRANCH  19  20
ENDBRANCH  18  19
ENDBRANCH  17  18
ENDBRANCH  15  17
ENDBRANCH  13  15
ENDBRANCH   5   6
ENDBRANCH   4   5
ENDBRANCH   3   4
ENDBRANCH   2   3
TORSDOF 11
ENDMDL
MODEL      231
REMARK 921   NORMALIZED FREE ENERGY PREDICTED BY IDOCK:   -3.17 KCAL/MOL
REMARK 922        TOTAL FREE ENERGY PREDICTED BY IDOCK:   -6.21 KCAL/MOL
REMARK 923 INTER-LIGAND FREE ENERGY PREDICTED BY IDOCK:   -5.38 KCAL/MOL
REMARK 924 INTRA-LIGAND FREE ENERGY PREDICTED BY IDOCK:   -0.83 KCAL/MOL
REMARK 927      BINDING AFFINITY PREDICTED BY RF-SCORE:    0.00 PKD
ROOT
HETATM    1  C   UNL     1     -11.423  15.967  64.342  1.00  0.00    -0.268 C  
HETATM    2  C   UNL     1     -11.431  14.758  65.262  1.00  0.00    -0.352 C  
ENDROOT
BRANCH   2   3
HETATM    3  C   UNL     1     -12.378  13.677  64.745  1.00  0.00    -0.429 C  
BRANCH   3   4
HETATM    4  C   UNL     1     -11.730  12.845  63.647  1.00  0.00    -0.508 C  
BRANCH   4   5
HETATM    5  O   UNL     1     -10.334  12.719  63.942  1.00  0.00    -0.420 OA 
BRANCH   5   6
HETATM    6  C   UNL     1      -9.969  11.522  64.514  1.00  0.00    -0.263 A  
HETATM    7  C   UNL     1      -9.170  10.665  63.733  1.00  0.00    -0.254 A  
HETATM    8  C   UNL     1      -8.701   9.474  64.297  1.00  0.00    -0.232 A  
HETATM    9  N   UNL     1      -8.667  11.088  62.489  1.00  0.00    -0.353 NA 
HETATM   10  H1  UNL     1      -8.088  10.468  61.924  1.00  0.00     0.000 HD 
HETATM   11  C   UNL     1      -9.136   9.062  65.559  1.00  0.00    -0.271 A  
HETATM   12  H2  UNL     1      -8.156  11.960  62.632  1.00  0.00     0.000 HD 
HETATM   13  C   UNL     1     -10.019   9.864  66.285  1.00  0.00    -0.322 A  
HETATM   14  C   UNL     1     -10.415  11.104  65.768  1.00  0.00    -0.305 A  
BRANCH  13  15
HETATM   15  C   UNL     1     -10.626   9.312  67.525  1.00  0.00    -0.262 C  
HETATM   16  O   UNL     1     -11.185   9.985  68.373  1.00  0.00    -0.218 OA 
BRANCH  15  17
HETATM   17  O   UNL     1     -10.300   8.001  67.633  1.00  0.00    -0.217 OA 
BRANCH  17  18
HETATM   18  C   UNL     1     -10.209   7.517  68.984  1.00  0.00    -0.205 C  
BRANCH  18  19
HETATM   19  C   UNL     1      -8.904   8.086  69.579  1.00  0.00    -0.144 C  
BRANCH  19  20
HETATM   20  N   UNL     1      -7.713   8.086  68.710  1.00  0.00    -0.106 NA 
BRANCH  20  21
HETATM   21  C   UNL     1      -6.745   9.140  69.045  1.00  0.00    -0.055 C  
HETATM   22  C   UNL     1      -5.386   9.052  68.358  1.00  0.00    -0.038 C  
ENDBRANCH  20  21
BRANCH  20  23
HETATM   23  C   UNL     1      -7.140   6.727  68.676  1.00  0.00    -0.082 C  
HETATM   24  C   UNL     1      -7.226   6.041  67.318  1.00  0.00    -0.076 C  
ENDBRANCH  20  23
ENDBRANCH  19  20
ENDBRANCH  18  19
ENDBRANCH  17  18
ENDBRANCH  15  17
ENDBRANCH  13  15
ENDBRANCH   5   6
ENDBRANCH   4   5
ENDBRANCH   3   4
ENDBRANCH   2   3
TORSDOF 11
ENDMDL
MODEL      232
REMARK 921   NORMALIZED FREE ENERGY PREDICTED BY IDOCK:   -3.13 KCAL/MOL
REMARK 922        TOTAL FREE ENERGY PREDICTED BY IDOCK:   -6.15 KCAL/MOL
REMARK 923 INTER-LIGAND FREE ENERGY PREDICTED BY IDOCK:   -5.58 KCAL/MOL
REMARK 924 INTRA-LIGAND FREE ENERGY PREDICTED BY IDOCK:   -0.57 KCAL/MOL
REMARK 927      BINDING AFFINITY PREDICTED BY RF-SCORE:    0.00 PKD
ROOT
HETATM    1  C   UNL     1     -10.419  16.036  65.992  1.00  0.00    -0.356 C  
HETATM    2  C   UNL     1     -10.803  15.653  67.412  1.00  0.00    -0.315 C  
ENDROOT
BRANCH   2   3
HETATM    3  C   UNL     1     -11.253  14.196  67.488  1.00  0.00    -0.323 C  
BRANCH   3   4
HETATM    4  C   UNL     1     -10.323  13.283  66.699  1.00  0.00    -0.274 C  
BRANCH   4   5
HETATM    5  O   UNL     1      -9.192  12.972  67.521  1.00  0.00    -0.180 OA 
BRANCH   5   6
HETATM    6  C   UNL     1      -8.717  11.688  67.391  1.00  0.00    -0.155 A  
HETATM    7  C   UNL     1      -7.392  11.546  66.937  1.00  0.00    -0.140 A  
HETATM    8  C   UNL     1      -6.832  10.266  66.868  1.00  0.00    -0.086 A  
HETATM    9  N   UNL     1      -6.569  12.674  66.763  1.00  0.00    -0.416 NA 
HETATM   10  H1  UNL     1      -5.609  12.571  66.435  1.00  0.00     0.000 HD 
HETATM   11  C   UNL     1      -7.613   9.132  67.099  1.00  0.00    -0.091 A  
HETATM   12  H2  UNL     1      -6.551  13.194  67.640  1.00  0.00     0.000 HD 
HETATM   13  C   UNL     1      -8.960   9.275  67.441  1.00  0.00    -0.135 A  
HETATM   14  C   UNL     1      -9.502  10.556  67.608  1.00  0.00    -0.164 A  
BRANCH  13  15
HETATM   15  C   UNL     1      -9.817   8.060  67.478  1.00  0.00    -0.172 C  
HETATM   16  O   UNL     1     -10.595   7.743  66.596  1.00  0.00    -0.276 OA 
BRANCH  15  17
HETATM   17  O   UNL     1      -9.720   7.485  68.701  1.00  0.00    -0.150 OA 
BRANCH  17  18
HETATM   18  C   UNL     1     -10.796   7.807  69.600  1.00  0.00    -0.184 C  
BRANCH  18  19
HETATM   19  C   UNL     1     -11.435   6.471  70.032  1.00  0.00    -0.412 C  
BRANCH  19  20
HETATM   20  N   UNL     1     -12.014   6.410  71.387  1.00  0.00    -0.303 NA 
BRANCH  20  21
HETATM   21  C   UNL     1     -11.007   6.479  72.456  1.00  0.00    -0.248 C  
HETATM   22  C   UNL     1     -10.935   5.279  73.394  1.00  0.00    -0.372 C  
ENDBRANCH  20  21
BRANCH  20  23
HETATM   23  C   UNL     1     -13.086   7.416  71.500  1.00  0.00    -0.374 C  
HETATM   24  C   UNL     1     -12.710   8.649  72.314  1.00  0.00    -0.450 C  
ENDBRANCH  20  23
ENDBRANCH  19  20
ENDBRANCH  18  19
ENDBRANCH  17  18
ENDBRANCH  15  17
ENDBRANCH  13  15
ENDBRANCH   5   6
ENDBRANCH   4   5
ENDBRANCH   3   4
ENDBRANCH   2   3
TORSDOF 11
ENDMDL
MODEL      233
REMARK 921   NORMALIZED FREE ENERGY PREDICTED BY IDOCK:   -3.11 KCAL/MOL
REMARK 922        TOTAL FREE ENERGY PREDICTED BY IDOCK:   -6.12 KCAL/MOL
REMARK 923 INTER-LIGAND FREE ENERGY PREDICTED BY IDOCK:   -5.57 KCAL/MOL
REMARK 924 INTRA-LIGAND FREE ENERGY PREDICTED BY IDOCK:   -0.55 KCAL/MOL
REMARK 927      BINDING AFFINITY PREDICTED BY RF-SCORE:    0.00 PKD
ROOT
HETATM    1  C   UNL     1      -8.669   5.811  68.500  1.00  0.00    -0.111 C  
HETATM    2  C   UNL     1      -9.802   4.932  69.003  1.00  0.00    -0.250 C  
ENDROOT
BRANCH   2   3
HETATM    3  C   UNL     1     -10.740   5.711  69.922  1.00  0.00    -0.399 C  
BRANCH   3   4
HETATM    4  C   UNL     1     -10.106   5.962  71.284  1.00  0.00    -0.196 C  
BRANCH   4   5
HETATM    5  O   UNL     1     -10.499   7.266  71.730  1.00  0.00    -0.198 OA 
BRANCH   5   6
HETATM    6  C   UNL     1     -10.065   8.303  70.939  1.00  0.00    -0.190 A  
HETATM    7  C   UNL     1      -8.705   8.655  71.046  1.00  0.00    -0.186 A  
HETATM    8  C   UNL     1      -8.193   9.647  70.203  1.00  0.00    -0.206 A  
HETATM    9  N   UNL     1      -7.824   7.884  71.825  1.00  0.00    -0.092 NA 
HETATM   10  H1  UNL     1      -6.840   8.138  71.902  1.00  0.00     0.000 HD 
HETATM   11  C   UNL     1      -9.040  10.384  69.372  1.00  0.00    -0.170 A  
HETATM   12  H2  UNL     1      -7.879   6.917  71.506  1.00  0.00     0.000 HD 
HETATM   13  C   UNL     1     -10.409  10.105  69.352  1.00  0.00    -0.251 A  
HETATM   14  C   UNL     1     -10.913   9.049  70.120  1.00  0.00    -0.256 A  
BRANCH  13  15
HETATM   15  C   UNL     1     -11.312  11.034  68.621  1.00  0.00    -0.281 C  
HETATM   16  O   UNL     1     -12.527  11.018  68.710  1.00  0.00    -0.468 OA 
BRANCH  15  17
HETATM   17  O   UNL     1     -10.586  11.753  67.732  1.00  0.00    -0.191 OA 
BRANCH  17  18
HETATM   18  C   UNL     1     -11.063  13.092  67.515  1.00  0.00    -0.271 C  
BRANCH  18  19
HETATM   19  C   UNL     1      -9.898  14.045  67.855  1.00  0.00    -0.233 C  
BRANCH  19  20
HETATM   20  N   UNL     1     -10.250  15.386  68.355  1.00  0.00    -0.219 NA 
BRANCH  20  21
HETATM   21  C   UNL     1     -10.309  16.406  67.298  1.00  0.00    -0.287 C  
HETATM   22  C   UNL     1      -9.569  16.082  66.005  1.00  0.00    -0.385 C  
ENDBRANCH  20  21
BRANCH  20  23
HETATM   23  C   UNL     1     -11.474  15.291  69.172  1.00  0.00    -0.316 C  
HETATM   24  C   UNL     1     -11.325  15.818  70.594  1.00  0.00    -0.412 C  
ENDBRANCH  20  23
ENDBRANCH  19  20
ENDBRANCH  18  19
ENDBRANCH  17  18
ENDBRANCH  15  17
ENDBRANCH  13  15
ENDBRANCH   5   6
ENDBRANCH   4   5
ENDBRANCH   3   4
ENDBRANCH   2   3
TORSDOF 11
ENDMDL
MODEL      234
REMARK 921   NORMALIZED FREE ENERGY PREDICTED BY IDOCK:   -3.08 KCAL/MOL
REMARK 922        TOTAL FREE ENERGY PREDICTED BY IDOCK:   -6.06 KCAL/MOL
REMARK 923 INTER-LIGAND FREE ENERGY PREDICTED BY IDOCK:   -6.08 KCAL/MOL
REMARK 924 INTRA-LIGAND FREE ENERGY PREDICTED BY IDOCK:    0.02 KCAL/MOL
REMARK 927      BINDING AFFINITY PREDICTED BY RF-SCORE:    0.00 PKD
ROOT
HETATM    1  C   UNL     1      -6.223  15.994  69.902  1.00  0.00    -0.154 C  
HETATM    2  C   UNL     1      -7.643  15.566  69.569  1.00  0.00    -0.200 C  
ENDROOT
BRANCH   2   3
HETATM    3  C   UNL     1      -8.418  16.698  68.897  1.00  0.00    -0.233 C  
BRANCH   3   4
HETATM    4  C   UNL     1      -8.451  16.530  67.383  1.00  0.00    -0.177 C  
BRANCH   4   5
HETATM    5  O   UNL     1      -8.466  15.128  67.087  1.00  0.00    -0.182 OA 
BRANCH   5   6
HETATM    6  C   UNL     1      -9.712  14.547  67.103  1.00  0.00    -0.240 A  
HETATM    7  C   UNL     1     -10.665  15.066  66.205  1.00  0.00    -0.327 A  
HETATM    8  C   UNL     1     -11.921  14.456  66.121  1.00  0.00    -0.381 A  
HETATM    9  N   UNL     1     -10.300  16.036  65.254  1.00  0.00    -0.533 NA 
HETATM   10  H1  UNL     1     -10.990  16.412  64.604  1.00  0.00     0.000 HD 
HETATM   11  C   UNL     1     -12.284  13.445  67.013  1.00  0.00    -0.321 A  
HETATM   12  H2  UNL     1      -9.516  15.673  64.712  1.00  0.00     0.000 HD 
HETATM   13  C   UNL     1     -11.372  13.009  67.978  1.00  0.00    -0.327 A  
HETATM   14  C   UNL     1     -10.079  13.547  68.004  1.00  0.00    -0.244 A  
BRANCH  13  15
HETATM   15  C   UNL     1     -11.849  12.085  69.041  1.00  0.00    -0.315 C  
HETATM   16  O   UNL     1     -11.969  12.394  70.214  1.00  0.00    -0.349 OA 
BRANCH  15  17
HETATM   17  O   UNL     1     -11.948  10.834  68.532  1.00  0.00    -0.487 OA 
BRANCH  17  18
HETATM   18  C   UNL     1     -10.693  10.241  68.155  1.00  0.00    -0.246 C  
BRANCH  18  19
HETATM   19  C   UNL     1     -10.584   8.901  68.913  1.00  0.00    -0.165 C  
BRANCH  19  20
HETATM   20  N   UNL     1      -9.851   8.910  70.192  1.00  0.00    -0.171 NA 
BRANCH  20  21
HETATM   21  C   UNL     1     -10.668   9.356  71.330  1.00  0.00    -0.350 C  
HETATM   22  C   UNL     1     -11.531   8.292  72.000  1.00  0.00    -0.399 C  
ENDBRANCH  20  21
BRANCH  20  23
HETATM   23  C   UNL     1      -9.206   7.599  70.389  1.00  0.00    -0.156 C  
HETATM   24  C   UNL     1      -8.017   7.338  69.472  1.00  0.00    -0.127 C  
ENDBRANCH  20  23
ENDBRANCH  19  20
ENDBRANCH  18  19
ENDBRANCH  17  18
ENDBRANCH  15  17
ENDBRANCH  13  15
ENDBRANCH   5   6
ENDBRANCH   4   5
ENDBRANCH   3   4
ENDBRANCH   2   3
TORSDOF 11
ENDMDL
MODEL      235
REMARK 921   NORMALIZED FREE ENERGY PREDICTED BY IDOCK:   -3.07 KCAL/MOL
REMARK 922        TOTAL FREE ENERGY PREDICTED BY IDOCK:   -6.05 KCAL/MOL
REMARK 923 INTER-LIGAND FREE ENERGY PREDICTED BY IDOCK:   -5.10 KCAL/MOL
REMARK 924 INTRA-LIGAND FREE ENERGY PREDICTED BY IDOCK:   -0.95 KCAL/MOL
REMARK 927      BINDING AFFINITY PREDICTED BY RF-SCORE:    0.00 PKD
ROOT
HETATM    1  C   UNL     1     -10.290  17.661  66.623  1.00  0.00    -0.333 C  
HETATM    2  C   UNL     1      -9.124  16.727  66.342  1.00  0.00    -0.321 C  
ENDROOT
BRANCH   2   3
HETATM    3  C   UNL     1      -7.943  17.025  67.264  1.00  0.00    -0.197 C  
BRANCH   3   4
HETATM    4  C   UNL     1      -6.952  15.869  67.292  1.00  0.00    -0.206 C  
BRANCH   4   5
HETATM    5  O   UNL     1      -6.944  15.315  68.614  1.00  0.00    -0.105 OA 
BRANCH   5   6
HETATM    6  C   UNL     1      -7.170  13.960  68.674  1.00  0.00    -0.108 A  
HETATM    7  C   UNL     1      -6.200  13.186  69.340  1.00  0.00    -0.111 A  
HETATM    8  C   UNL     1      -6.423  11.814  69.504  1.00  0.00    -0.120 A  
HETATM    9  N   UNL     1      -5.134  13.802  70.020  1.00  0.00    -0.089 NA 
HETATM   10  H1  UNL     1      -4.432  13.241  70.503  1.00  0.00     0.000 HD 
HETATM   11  C   UNL     1      -7.511  11.190  68.891  1.00  0.00    -0.125 A  
HETATM   12  H2  UNL     1      -5.524  14.468  70.687  1.00  0.00     0.000 HD 
HETATM   13  C   UNL     1      -8.411  11.946  68.136  1.00  0.00    -0.163 A  
HETATM   14  C   UNL     1      -8.249  13.335  68.050  1.00  0.00    -0.162 A  
BRANCH  13  15
HETATM   15  C   UNL     1      -9.436  11.233  67.328  1.00  0.00    -0.173 C  
HETATM   16  O   UNL     1      -9.285  10.118  66.859  1.00  0.00    -0.144 OA 
BRANCH  15  17
HETATM   17  O   UNL     1     -10.458  12.081  67.058  1.00  0.00    -0.216 OA 
BRANCH  17  18
HETATM   18  C   UNL     1     -11.636  11.870  67.854  1.00  0.00    -0.323 C  
BRANCH  18  19
HETATM   19  C   UNL     1     -11.836  13.140  68.707  1.00  0.00    -0.324 C  
BRANCH  19  20
HETATM   20  N   UNL     1     -12.405  12.961  70.055  1.00  0.00    -0.188 NA 
BRANCH  20  21
HETATM   21  C   UNL     1     -12.077  11.663  70.661  1.00  0.00    -0.335 C  
HETATM   22  C   UNL     1     -13.102  11.093  71.635  1.00  0.00    -0.529 C  
ENDBRANCH  20  21
BRANCH  20  23
HETATM   23  C   UNL     1     -12.049  14.124  70.888  1.00  0.00    -0.344 C  
HETATM   24  C   UNL     1     -12.847  15.386  70.583  1.00  0.00    -0.484 C  
ENDBRANCH  20  23
ENDBRANCH  19  20
ENDBRANCH  18  19
ENDBRANCH  17  18
ENDBRANCH  15  17
ENDBRANCH  13  15
ENDBRANCH   5   6
ENDBRANCH   4   5
ENDBRANCH   3   4
ENDBRANCH   2   3
TORSDOF 11
ENDMDL
MODEL      236
REMARK 921   NORMALIZED FREE ENERGY PREDICTED BY IDOCK:   -3.06 KCAL/MOL
REMARK 922        TOTAL FREE ENERGY PREDICTED BY IDOCK:   -6.03 KCAL/MOL
REMARK 923 INTER-LIGAND FREE ENERGY PREDICTED BY IDOCK:   -5.43 KCAL/MOL
REMARK 924 INTRA-LIGAND FREE ENERGY PREDICTED BY IDOCK:   -0.61 KCAL/MOL
REMARK 927      BINDING AFFINITY PREDICTED BY RF-SCORE:    0.00 PKD
ROOT
HETATM    1  C   UNL     1      -8.877  16.999  68.615  1.00  0.00    -0.267 C  
HETATM    2  C   UNL     1      -9.345  15.706  67.967  1.00  0.00    -0.193 C  
ENDROOT
BRANCH   2   3
HETATM    3  C   UNL     1     -10.740  15.864  67.366  1.00  0.00    -0.313 C  
BRANCH   3   4
HETATM    4  C   UNL     1     -11.316  14.522  66.932  1.00  0.00    -0.348 C  
BRANCH   4   5
HETATM    5  O   UNL     1     -12.181  14.047  67.970  1.00  0.00    -0.321 OA 
BRANCH   5   6
HETATM    6  C   UNL     1     -11.903  12.778  68.420  1.00  0.00    -0.310 A  
HETATM    7  C   UNL     1     -12.122  12.529  69.789  1.00  0.00    -0.224 A  
HETATM    8  C   UNL     1     -11.935  11.233  70.281  1.00  0.00    -0.466 A  
HETATM    9  N   UNL     1     -12.724  13.501  70.607  1.00  0.00    -0.249 NA 
HETATM   10  H1  UNL     1     -12.883  13.321  71.598  1.00  0.00     0.000 HD 
HETATM   11  C   UNL     1     -11.397  10.232  69.469  1.00  0.00    -0.299 A  
HETATM   12  H2  UNL     1     -13.614  13.767  70.185  1.00  0.00     0.000 HD 
HETATM   13  C   UNL     1     -11.076  10.514  68.139  1.00  0.00    -0.346 A  
HETATM   14  C   UNL     1     -11.352  11.783  67.613  1.00  0.00    -0.370 A  
BRANCH  13  15
HETATM   15  C   UNL     1     -10.317   9.500  67.360  1.00  0.00    -0.258 C  
HETATM   16  O   UNL     1      -9.733   9.733  66.316  1.00  0.00    -0.199 OA 
BRANCH  15  17
HETATM   17  O   UNL     1     -10.534   8.275  67.896  1.00  0.00    -0.224 OA 
BRANCH  17  18
HETATM   18  C   UNL     1      -9.352   7.618  68.386  1.00  0.00    -0.146 C  
BRANCH  18  19
HETATM   19  C   UNL     1      -9.823   6.434  69.256  1.00  0.00    -0.147 C  
BRANCH  19  20
HETATM   20  N   UNL     1     -10.033   5.143  68.577  1.00  0.00    -0.161 NA 
BRANCH  20  21
HETATM   21  C   UNL     1      -9.648   5.159  67.159  1.00  0.00    -0.146 C  
HETATM   22  C   UNL     1     -10.721   4.732  66.163  1.00  0.00    -0.177 C  
ENDBRANCH  20  21
BRANCH  20  23
HETATM   23  C   UNL     1      -9.392   4.073  69.365  1.00  0.00    -0.173 C  
HETATM   24  C   UNL     1      -8.389   3.232  68.586  1.00  0.00    -0.091 C  
ENDBRANCH  20  23
ENDBRANCH  19  20
ENDBRANCH  18  19
ENDBRANCH  17  18
ENDBRANCH  15  17
ENDBRANCH  13  15
ENDBRANCH   5   6
ENDBRANCH   4   5
ENDBRANCH   3   4
ENDBRANCH   2   3
TORSDOF 11
ENDMDL
MODEL      237
REMARK 921   NORMALIZED FREE ENERGY PREDICTED BY IDOCK:   -3.06 KCAL/MOL
REMARK 922        TOTAL FREE ENERGY PREDICTED BY IDOCK:   -6.03 KCAL/MOL
REMARK 923 INTER-LIGAND FREE ENERGY PREDICTED BY IDOCK:   -5.34 KCAL/MOL
REMARK 924 INTRA-LIGAND FREE ENERGY PREDICTED BY IDOCK:   -0.69 KCAL/MOL
REMARK 927      BINDING AFFINITY PREDICTED BY RF-SCORE:    0.00 PKD
ROOT
HETATM    1  C   UNL     1     -13.125  12.455  71.758  1.00  0.00    -0.446 C  
HETATM    2  C   UNL     1     -13.246  10.943  71.853  1.00  0.00    -0.508 C  
ENDROOT
BRANCH   2   3
HETATM    3  C   UNL     1     -12.201  10.249  70.982  1.00  0.00    -0.487 C  
BRANCH   3   4
HETATM    4  C   UNL     1     -11.491   9.136  71.741  1.00  0.00    -0.381 C  
BRANCH   4   5
HETATM    5  O   UNL     1     -12.232   7.923  71.559  1.00  0.00    -0.294 OA 
BRANCH   5   6
HETATM    6  C   UNL     1     -11.555   6.926  70.897  1.00  0.00    -0.337 A  
HETATM    7  C   UNL     1     -10.944   5.939  71.693  1.00  0.00    -0.268 A  
HETATM    8  C   UNL     1     -10.314   4.856  71.069  1.00  0.00    -0.217 A  
HETATM    9  N   UNL     1     -11.143   5.916  73.086  1.00  0.00    -0.393 NA 
HETATM   10  H1  UNL     1     -10.701   5.201  73.662  1.00  0.00     0.000 HD 
HETATM   11  C   UNL     1     -10.160   4.825  69.681  1.00  0.00    -0.275 A  
HETATM   12  H2  UNL     1     -12.147   5.893  73.264  1.00  0.00     0.000 HD 
HETATM   13  C   UNL     1     -10.672   5.865  68.901  1.00  0.00    -0.370 A  
HETATM   14  C   UNL     1     -11.388   6.902  69.512  1.00  0.00    -0.218 A  
BRANCH  13  15
HETATM   15  C   UNL     1     -10.316   5.913  67.458  1.00  0.00    -0.215 C  
HETATM   16  O   UNL     1     -10.629   5.060  66.646  1.00  0.00    -0.274 OA 
BRANCH  15  17
HETATM   17  O   UNL     1      -9.458   6.940  67.246  1.00  0.00    -0.130 OA 
BRANCH  17  18
HETATM   18  C   UNL     1      -8.068   6.592  67.367  1.00  0.00    -0.121 C  
BRANCH  18  19
HETATM   19  C   UNL     1      -7.675   5.854  66.071  1.00  0.00    -0.099 C  
BRANCH  19  20
HETATM   20  N   UNL     1      -7.036   4.533  66.218  1.00  0.00    -0.061 NA 
BRANCH  20  21
HETATM   21  C   UNL     1      -7.243   3.927  67.541  1.00  0.00    -0.067 C  
HETATM   22  C   UNL     1      -5.988   3.651  68.362  1.00  0.00    -0.027 C  
ENDBRANCH  20  21
BRANCH  20  23
HETATM   23  C   UNL     1      -7.438   3.674  65.089  1.00  0.00    -0.073 C  
HETATM   24  C   UNL     1      -7.749   4.428  63.802  1.00  0.00    -0.075 C  
ENDBRANCH  20  23
ENDBRANCH  19  20
ENDBRANCH  18  19
ENDBRANCH  17  18
ENDBRANCH  15  17
ENDBRANCH  13  15
ENDBRANCH   5   6
ENDBRANCH   4   5
ENDBRANCH   3   4
ENDBRANCH   2   3
TORSDOF 11
ENDMDL
MODEL      238
REMARK 921   NORMALIZED FREE ENERGY PREDICTED BY IDOCK:   -3.03 KCAL/MOL
REMARK 922        TOTAL FREE ENERGY PREDICTED BY IDOCK:   -5.98 KCAL/MOL
REMARK 923 INTER-LIGAND FREE ENERGY PREDICTED BY IDOCK:   -5.49 KCAL/MOL
REMARK 924 INTRA-LIGAND FREE ENERGY PREDICTED BY IDOCK:   -0.49 KCAL/MOL
REMARK 927      BINDING AFFINITY PREDICTED BY RF-SCORE:    0.00 PKD
ROOT
HETATM    1  C   UNL     1      -7.667  18.953  66.878  1.00  0.00    -0.250 C  
HETATM    2  C   UNL     1      -7.913  17.475  66.622  1.00  0.00    -0.288 C  
ENDROOT
BRANCH   2   3
HETATM    3  C   UNL     1      -9.138  16.979  67.387  1.00  0.00    -0.225 C  
BRANCH   3   4
HETATM    4  C   UNL     1     -10.162  16.348  66.452  1.00  0.00    -0.316 C  
BRANCH   4   5
HETATM    5  O   UNL     1      -9.481  15.419  65.601  1.00  0.00    -0.318 OA 
BRANCH   5   6
HETATM    6  C   UNL     1      -9.766  14.095  65.844  1.00  0.00    -0.241 A  
HETATM    7  C   UNL     1     -10.897  13.562  65.196  1.00  0.00    -0.330 A  
HETATM    8  C   UNL     1     -11.183  12.200  65.342  1.00  0.00    -0.381 A  
HETATM    9  N   UNL     1     -11.605  14.322  64.247  1.00  0.00    -0.609 NA 
HETATM   10  H1  UNL     1     -12.424  13.935  63.778  1.00  0.00     0.000 HD 
HETATM   11  C   UNL     1     -10.453  11.409  66.232  1.00  0.00    -0.301 A  
HETATM   12  H2  UNL     1     -10.946  14.634  63.534  1.00  0.00     0.000 HD 
HETATM   13  C   UNL     1      -9.400  11.971  66.958  1.00  0.00    -0.191 A  
HETATM   14  C   UNL     1      -9.046  13.309  66.743  1.00  0.00    -0.216 A  
BRANCH  13  15
HETATM   15  C   UNL     1      -8.776  11.168  68.043  1.00  0.00    -0.141 C  
HETATM   16  O   UNL     1      -7.793  11.515  68.674  1.00  0.00    -0.133 OA 
BRANCH  15  17
HETATM   17  O   UNL     1      -9.360   9.947  68.084  1.00  0.00    -0.131 OA 
BRANCH  17  18
HETATM   18  C   UNL     1     -10.273   9.756  69.178  1.00  0.00    -0.199 C  
BRANCH  18  19
HETATM   19  C   UNL     1      -9.578   8.815  70.185  1.00  0.00    -0.173 C  
BRANCH  19  20
HETATM   20  N   UNL     1     -10.075   7.430  70.263  1.00  0.00    -0.195 NA 
BRANCH  20  21
HETATM   21  C   UNL     1      -9.151   6.444  69.683  1.00  0.00    -0.143 C  
HETATM   22  C   UNL     1      -8.878   5.199  70.520  1.00  0.00    -0.142 C  
ENDBRANCH  20  21
BRANCH  20  23
HETATM   23  C   UNL     1     -10.475   7.137  71.652  1.00  0.00    -0.198 C  
HETATM   24  C   UNL     1      -9.925   8.113  72.685  1.00  0.00    -0.371 C  
ENDBRANCH  20  23
ENDBRANCH  19  20
ENDBRANCH  18  19
ENDBRANCH  17  18
ENDBRANCH  15  17
ENDBRANCH  13  15
ENDBRANCH   5   6
ENDBRANCH   4   5
ENDBRANCH   3   4
ENDBRANCH   2   3
TORSDOF 11
ENDMDL
MODEL      239
REMARK 921   NORMALIZED FREE ENERGY PREDICTED BY IDOCK:   -3.02 KCAL/MOL
REMARK 922        TOTAL FREE ENERGY PREDICTED BY IDOCK:   -5.97 KCAL/MOL
REMARK 923 INTER-LIGAND FREE ENERGY PREDICTED BY IDOCK:   -5.63 KCAL/MOL
REMARK 924 INTRA-LIGAND FREE ENERGY PREDICTED BY IDOCK:   -0.34 KCAL/MOL
REMARK 927      BINDING AFFINITY PREDICTED BY RF-SCORE:    0.00 PKD
ROOT
HETATM    1  C   UNL     1      -8.528   7.189  67.839  1.00  0.00    -0.121 C  
HETATM    2  C   UNL     1      -9.670   7.348  66.849  1.00  0.00    -0.265 C  
ENDROOT
BRANCH   2   3
HETATM    3  C   UNL     1     -10.769   8.246  67.413  1.00  0.00    -0.236 C  
BRANCH   3   4
HETATM    4  C   UNL     1     -10.641   8.402  68.923  1.00  0.00    -0.140 C  
BRANCH   4   5
HETATM    5  O   UNL     1     -11.184   9.675  69.291  1.00  0.00    -0.168 OA 
BRANCH   5   6
HETATM    6  C   UNL     1     -10.624  10.752  68.645  1.00  0.00    -0.199 A  
HETATM    7  C   UNL     1      -9.312  11.103  69.020  1.00  0.00    -0.049 A  
HETATM    8  C   UNL     1      -8.665  12.137  68.335  1.00  0.00    -0.141 A  
HETATM    9  N   UNL     1      -8.582  10.298  69.913  1.00  0.00    -0.374 NA 
HETATM   10  H1  UNL     1      -7.633  10.552  70.184  1.00  0.00     0.000 HD 
HETATM   11  C   UNL     1      -9.351  12.911  67.397  1.00  0.00    -0.194 A  
HETATM   12  H2  UNL     1      -8.564   9.348  69.543  1.00  0.00     0.000 HD 
HETATM   13  C   UNL     1     -10.689  12.628  67.108  1.00  0.00    -0.264 A  
HETATM   14  C   UNL     1     -11.314  11.533  67.718  1.00  0.00    -0.364 A  
BRANCH  13  15
HETATM   15  C   UNL     1     -11.452  13.588  66.267  1.00  0.00    -0.326 C  
HETATM   16  O   UNL     1     -12.667  13.600  66.172  1.00  0.00    -0.373 OA 
BRANCH  15  17
HETATM   17  O   UNL     1     -10.586  14.301  65.508  1.00  0.00    -0.306 OA 
BRANCH  17  18
HETATM   18  C   UNL     1     -10.909  15.697  65.383  1.00  0.00    -0.381 C  
BRANCH  18  19
HETATM   19  C   UNL     1      -9.931  16.468  66.294  1.00  0.00    -0.329 C  
BRANCH  19  20
HETATM   20  N   UNL     1     -10.455  16.957  67.582  1.00  0.00    -0.325 NA 
BRANCH  20  21
HETATM   21  C   UNL     1     -10.516  15.917  68.619  1.00  0.00    -0.240 C  
HETATM   22  C   UNL     1     -10.564  16.406  70.063  1.00  0.00    -0.203 C  
ENDBRANCH  20  21
BRANCH  20  23
HETATM   23  C   UNL     1      -9.709  18.165  67.980  1.00  0.00    -0.311 C  
HETATM   24  C   UNL     1      -9.017  18.886  66.830  1.00  0.00    -0.320 C  
ENDBRANCH  20  23
ENDBRANCH  19  20
ENDBRANCH  18  19
ENDBRANCH  17  18
ENDBRANCH  15  17
ENDBRANCH  13  15
ENDBRANCH   5   6
ENDBRANCH   4   5
ENDBRANCH   3   4
ENDBRANCH   2   3
TORSDOF 11
ENDMDL
MODEL      240
REMARK 921   NORMALIZED FREE ENERGY PREDICTED BY IDOCK:   -3.01 KCAL/MOL
REMARK 922        TOTAL FREE ENERGY PREDICTED BY IDOCK:   -5.95 KCAL/MOL
REMARK 923 INTER-LIGAND FREE ENERGY PREDICTED BY IDOCK:   -5.41 KCAL/MOL
REMARK 924 INTRA-LIGAND FREE ENERGY PREDICTED BY IDOCK:   -0.54 KCAL/MOL
REMARK 927      BINDING AFFINITY PREDICTED BY RF-SCORE:    0.00 PKD
ROOT
HETATM    1  C   UNL     1      -8.380  17.264  67.968  1.00  0.00    -0.228 C  
HETATM    2  C   UNL     1      -9.707  16.618  67.607  1.00  0.00    -0.250 C  
ENDROOT
BRANCH   2   3
HETATM    3  C   UNL     1     -10.787  16.965  68.629  1.00  0.00    -0.314 C  
BRANCH   3   4
HETATM    4  C   UNL     1     -10.932  15.872  69.681  1.00  0.00    -0.319 C  
BRANCH   4   5
HETATM    5  O   UNL     1     -12.039  15.040  69.315  1.00  0.00    -0.298 OA 
BRANCH   5   6
HETATM    6  C   UNL     1     -11.844  13.694  69.523  1.00  0.00    -0.337 A  
HETATM    7  C   UNL     1     -12.448  13.136  70.666  1.00  0.00    -0.286 A  
HETATM    8  C   UNL     1     -12.352  11.757  70.879  1.00  0.00    -0.420 A  
HETATM    9  N   UNL     1     -13.316  13.903  71.465  1.00  0.00    -0.346 NA 
HETATM   10  H1  UNL     1     -13.753  13.499  72.292  1.00  0.00     0.000 HD 
HETATM   11  C   UNL     1     -11.547  10.963  70.059  1.00  0.00    -0.424 A  
HETATM   12  H2  UNL     1     -14.051  14.280  70.867  1.00  0.00     0.000 HD 
HETATM   13  C   UNL     1     -10.859  11.542  68.991  1.00  0.00    -0.258 A  
HETATM   14  C   UNL     1     -11.028  12.904  68.713  1.00  0.00    -0.292 A  
BRANCH  13  15
HETATM   15  C   UNL     1      -9.853  10.721  68.265  1.00  0.00    -0.166 C  
HETATM   16  O   UNL     1      -8.651  10.787  68.453  1.00  0.00    -0.128 OA 
BRANCH  15  17
HETATM   17  O   UNL     1     -10.469  10.046  67.265  1.00  0.00    -0.225 OA 
BRANCH  17  18
HETATM   18  C   UNL     1     -10.451   8.616  67.410  1.00  0.00    -0.281 C  
BRANCH  18  19
HETATM   19  C   UNL     1      -9.145   8.113  66.761  1.00  0.00    -0.157 C  
BRANCH  19  20
HETATM   20  N   UNL     1      -9.214   6.851  66.002  1.00  0.00    -0.081 NA 
BRANCH  20  21
HETATM   21  C   UNL     1      -7.947   6.493  65.348  1.00  0.00    -0.120 C  
HETATM   22  C   UNL     1      -6.675   6.781  66.137  1.00  0.00    -0.052 C  
ENDBRANCH  20  21
BRANCH  20  23
HETATM   23  C   UNL     1      -9.766   5.795  66.871  1.00  0.00    -0.148 C  
HETATM   24  C   UNL     1     -10.154   4.516  66.139  1.00  0.00    -0.282 C  
ENDBRANCH  20  23
ENDBRANCH  19  20
ENDBRANCH  18  19
ENDBRANCH  17  18
ENDBRANCH  15  17
ENDBRANCH  13  15
ENDBRANCH   5   6
ENDBRANCH   4   5
ENDBRANCH   3   4
ENDBRANCH   2   3
TORSDOF 11
ENDMDL
MODEL      241
REMARK 921   NORMALIZED FREE ENERGY PREDICTED BY IDOCK:   -3.00 KCAL/MOL
REMARK 922        TOTAL FREE ENERGY PREDICTED BY IDOCK:   -5.95 KCAL/MOL
REMARK 923 INTER-LIGAND FREE ENERGY PREDICTED BY IDOCK:   -5.24 KCAL/MOL
REMARK 924 INTRA-LIGAND FREE ENERGY PREDICTED BY IDOCK:   -0.71 KCAL/MOL
REMARK 927      BINDING AFFINITY PREDICTED BY RF-SCORE:    0.00 PKD
ROOT
HETATM    1  C   UNL     1      -7.179   4.522  64.423  1.00  0.00    -0.062 C  
HETATM    2  C   UNL     1      -6.543   4.890  65.753  1.00  0.00    -0.044 C  
ENDROOT
BRANCH   2   3
HETATM    3  C   UNL     1      -7.483   5.750  66.595  1.00  0.00    -0.084 C  
BRANCH   3   4
HETATM    4  C   UNL     1      -7.670   7.133  65.985  1.00  0.00    -0.099 C  
BRANCH   4   5
HETATM    5  O   UNL     1      -9.072   7.428  65.961  1.00  0.00    -0.159 OA 
BRANCH   5   6
HETATM    6  C   UNL     1      -9.702   7.340  67.180  1.00  0.00    -0.168 A  
HETATM    7  C   UNL     1     -10.753   6.408  67.283  1.00  0.00    -0.353 A  
HETATM    8  C   UNL     1     -11.372   6.218  68.524  1.00  0.00    -0.149 A  
HETATM    9  N   UNL     1     -11.037   5.527  66.224  1.00  0.00    -0.770 NA 
HETATM   10  H1  UNL     1     -11.798   4.853  66.299  1.00  0.00     0.000 HD 
HETATM   11  C   UNL     1     -11.060   7.039  69.610  1.00  0.00    -0.254 A  
HETATM   12  H2  UNL     1     -10.183   5.020  65.993  1.00  0.00     0.000 HD 
HETATM   13  C   UNL     1     -10.093   8.037  69.471  1.00  0.00    -0.196 A  
HETATM   14  C   UNL     1      -9.401   8.169  68.261  1.00  0.00    -0.137 A  
BRANCH  13  15
HETATM   15  C   UNL     1      -9.929   9.026  70.570  1.00  0.00    -0.215 C  
HETATM   16  O   UNL     1      -9.671   8.731  71.724  1.00  0.00    -0.265 OA 
BRANCH  15  17
HETATM   17  O   UNL     1     -10.286  10.253  70.120  1.00  0.00    -0.256 OA 
BRANCH  17  18
HETATM   18  C   UNL     1     -11.589  10.690  70.545  1.00  0.00    -0.350 C  
BRANCH  18  19
HETATM   19  C   UNL     1     -12.134  11.619  69.439  1.00  0.00    -0.263 C  
BRANCH  19  20
HETATM   20  N   UNL     1     -11.306  12.781  69.070  1.00  0.00    -0.280 NA 
BRANCH  20  21
HETATM   21  C   UNL     1     -10.853  12.756  67.672  1.00  0.00    -0.228 C  
HETATM   22  C   UNL     1      -9.407  12.329  67.439  1.00  0.00    -0.183 C  
ENDBRANCH  20  21
BRANCH  20  23
HETATM   23  C   UNL     1     -12.012  14.018  69.454  1.00  0.00    -0.343 C  
HETATM   24  C   UNL     1     -12.687  13.961  70.819  1.00  0.00    -0.383 C  
ENDBRANCH  20  23
ENDBRANCH  19  20
ENDBRANCH  18  19
ENDBRANCH  17  18
ENDBRANCH  15  17
ENDBRANCH  13  15
ENDBRANCH   5   6
ENDBRANCH   4   5
ENDBRANCH   3   4
ENDBRANCH   2   3
TORSDOF 11
ENDMDL
MODEL      242
REMARK 921   NORMALIZED FREE ENERGY PREDICTED BY IDOCK:   -3.00 KCAL/MOL
REMARK 922        TOTAL FREE ENERGY PREDICTED BY IDOCK:   -5.95 KCAL/MOL
REMARK 923 INTER-LIGAND FREE ENERGY PREDICTED BY IDOCK:   -5.14 KCAL/MOL
REMARK 924 INTRA-LIGAND FREE ENERGY PREDICTED BY IDOCK:   -0.80 KCAL/MOL
REMARK 927      BINDING AFFINITY PREDICTED BY RF-SCORE:    0.00 PKD
ROOT
HETATM    1  C   UNL     1      -6.989   3.841  65.414  1.00  0.00    -0.061 C  
HETATM    2  C   UNL     1      -8.157   4.778  65.676  1.00  0.00    -0.111 C  
ENDROOT
BRANCH   2   3
HETATM    3  C   UNL     1      -9.265   4.075  66.457  1.00  0.00    -0.171 C  
BRANCH   3   4
HETATM    4  C   UNL     1     -10.588   4.820  66.343  1.00  0.00    -0.153 C  
BRANCH   4   5
HETATM    5  O   UNL     1     -10.866   5.441  67.603  1.00  0.00    -0.127 OA 
BRANCH   5   6
HETATM    6  C   UNL     1     -10.307   6.686  67.771  1.00  0.00    -0.196 A  
HETATM    7  C   UNL     1      -9.698   6.945  69.014  1.00  0.00    -0.150 A  
HETATM    8  C   UNL     1      -9.041   8.165  69.207  1.00  0.00    -0.151 A  
HETATM    9  N   UNL     1      -9.559   5.923  69.971  1.00  0.00    -0.160 NA 
HETATM   10  H1  UNL     1      -9.118   6.111  70.871  1.00  0.00     0.000 HD 
HETATM   11  C   UNL     1      -9.110   9.173  68.242  1.00  0.00    -0.132 A  
HETATM   12  H2  UNL     1      -9.072   5.141  69.534  1.00  0.00     0.000 HD 
HETATM   13  C   UNL     1      -9.811   8.951  67.055  1.00  0.00    -0.277 A  
HETATM   14  C   UNL     1     -10.389   7.698  66.814  1.00  0.00    -0.343 A  
BRANCH  13  15
HETATM   15  C   UNL     1     -10.045  10.101  66.142  1.00  0.00    -0.246 C  
HETATM   16  O   UNL     1      -9.850  10.072  64.939  1.00  0.00    -0.317 OA 
BRANCH  15  17
HETATM   17  O   UNL     1     -10.327  11.203  66.878  1.00  0.00    -0.213 OA 
BRANCH  17  18
HETATM   18  C   UNL     1      -9.367  12.266  66.756  1.00  0.00    -0.218 C  
BRANCH  18  19
HETATM   19  C   UNL     1      -9.991  13.331  65.831  1.00  0.00    -0.272 C  
BRANCH  19  20
HETATM   20  N   UNL     1     -10.886  14.322  66.454  1.00  0.00    -0.303 NA 
BRANCH  20  21
HETATM   21  C   UNL     1     -12.312  14.039  66.239  1.00  0.00    -0.448 C  
HETATM   22  C   UNL     1     -12.656  13.204  65.010  1.00  0.00    -0.499 C  
ENDBRANCH  20  21
BRANCH  20  23
HETATM   23  C   UNL     1     -10.510  14.489  67.871  1.00  0.00    -0.242 C  
HETATM   24  C   UNL     1     -11.668  14.862  68.789  1.00  0.00    -0.353 C  
ENDBRANCH  20  23
ENDBRANCH  19  20
ENDBRANCH  18  19
ENDBRANCH  17  18
ENDBRANCH  15  17
ENDBRANCH  13  15
ENDBRANCH   5   6
ENDBRANCH   4   5
ENDBRANCH   3   4
ENDBRANCH   2   3
TORSDOF 11
ENDMDL
MODEL      243
REMARK 921   NORMALIZED FREE ENERGY PREDICTED BY IDOCK:   -2.99 KCAL/MOL
REMARK 922        TOTAL FREE ENERGY PREDICTED BY IDOCK:   -5.92 KCAL/MOL
REMARK 923 INTER-LIGAND FREE ENERGY PREDICTED BY IDOCK:   -5.17 KCAL/MOL
REMARK 924 INTRA-LIGAND FREE ENERGY PREDICTED BY IDOCK:   -0.75 KCAL/MOL
REMARK 927      BINDING AFFINITY PREDICTED BY RF-SCORE:    0.00 PKD
ROOT
HETATM    1  C   UNL     1      -8.585   5.798  68.175  1.00  0.00    -0.108 C  
HETATM    2  C   UNL     1      -9.967   5.256  67.849  1.00  0.00    -0.206 C  
ENDROOT
BRANCH   2   3
HETATM    3  C   UNL     1     -11.060   6.220  68.307  1.00  0.00    -0.364 C  
BRANCH   3   4
HETATM    4  C   UNL     1     -11.073   6.369  69.823  1.00  0.00    -0.396 C  
BRANCH   4   5
HETATM    5  O   UNL     1     -11.325   7.743  70.138  1.00  0.00    -0.225 OA 
BRANCH   5   6
HETATM    6  C   UNL     1     -10.316   8.611  69.791  1.00  0.00    -0.212 A  
HETATM    7  C   UNL     1      -9.287   8.794  70.734  1.00  0.00    -0.208 A  
HETATM    8  C   UNL     1      -8.194   9.600  70.397  1.00  0.00    -0.194 A  
HETATM    9  N   UNL     1      -9.240   8.016  71.905  1.00  0.00    -0.153 NA 
HETATM   10  H1  UNL     1      -8.494   8.149  72.588  1.00  0.00     0.000 HD 
HETATM   11  C   UNL     1      -8.188  10.334  69.209  1.00  0.00    -0.164 A  
HETATM   12  H2  UNL     1      -9.255   7.033  71.636  1.00  0.00     0.000 HD 
HETATM   13  C   UNL     1      -9.266  10.235  68.326  1.00  0.00    -0.139 A  
HETATM   14  C   UNL     1     -10.318   9.354  68.611  1.00  0.00    -0.227 A  
BRANCH  13  15
HETATM   15  C   UNL     1      -9.332  11.176  67.176  1.00  0.00    -0.165 C  
HETATM   16  O   UNL     1      -9.991  10.983  66.170  1.00  0.00    -0.215 OA 
BRANCH  15  17
HETATM   17  O   UNL     1      -8.422  12.163  67.357  1.00  0.00    -0.156 OA 
BRANCH  17  18
HETATM   18  C   UNL     1      -8.833  13.452  66.872  1.00  0.00    -0.176 C  
BRANCH  18  19
HETATM   19  C   UNL     1      -9.801  14.039  67.920  1.00  0.00    -0.233 C  
BRANCH  19  20
HETATM   20  N   UNL     1     -10.978  14.769  67.415  1.00  0.00    -0.304 NA 
BRANCH  20  21
HETATM   21  C   UNL     1     -11.080  16.141  67.930  1.00  0.00    -0.293 C  
HETATM   22  C   UNL     1     -10.075  16.535  69.008  1.00  0.00    -0.279 C  
ENDBRANCH  20  21
BRANCH  20  23
HETATM   23  C   UNL     1     -11.011  14.672  65.944  1.00  0.00    -0.332 C  
HETATM   24  C   UNL     1     -12.365  14.274  65.369  1.00  0.00    -0.421 C  
ENDBRANCH  20  23
ENDBRANCH  19  20
ENDBRANCH  18  19
ENDBRANCH  17  18
ENDBRANCH  15  17
ENDBRANCH  13  15
ENDBRANCH   5   6
ENDBRANCH   4   5
ENDBRANCH   3   4
ENDBRANCH   2   3
TORSDOF 11
ENDMDL
MODEL      244
REMARK 921   NORMALIZED FREE ENERGY PREDICTED BY IDOCK:   -2.97 KCAL/MOL
REMARK 922        TOTAL FREE ENERGY PREDICTED BY IDOCK:   -5.89 KCAL/MOL
REMARK 923 INTER-LIGAND FREE ENERGY PREDICTED BY IDOCK:   -5.39 KCAL/MOL
REMARK 924 INTRA-LIGAND FREE ENERGY PREDICTED BY IDOCK:   -0.50 KCAL/MOL
REMARK 927      BINDING AFFINITY PREDICTED BY RF-SCORE:    0.00 PKD
ROOT
HETATM    1  C   UNL     1     -10.464   3.272  63.674  1.00  0.00    -0.244 C  
HETATM    2  C   UNL     1      -9.273   3.714  64.509  1.00  0.00    -0.141 C  
ENDROOT
BRANCH   2   3
HETATM    3  C   UNL     1      -9.708   4.138  65.910  1.00  0.00    -0.208 C  
BRANCH   3   4
HETATM    4  C   UNL     1     -10.530   5.421  65.875  1.00  0.00     0.034 C  
BRANCH   4   5
HETATM    5  O   UNL     1     -11.053   5.657  67.187  1.00  0.00    -0.131 OA 
BRANCH   5   6
HETATM    6  C   UNL     1     -10.737   6.883  67.724  1.00  0.00    -0.254 A  
HETATM    7  C   UNL     1     -10.717   6.973  69.129  1.00  0.00    -0.218 A  
HETATM    8  C   UNL     1     -10.319   8.174  69.726  1.00  0.00    -0.216 A  
HETATM    9  N   UNL     1     -10.880   5.824  69.923  1.00  0.00    -0.347 NA 
HETATM   10  H1  UNL     1     -10.866   5.889  70.941  1.00  0.00     0.000 HD 
HETATM   11  C   UNL     1     -10.089   9.314  68.952  1.00  0.00    -0.207 A  
HETATM   12  H2  UNL     1     -10.183   5.137  69.638  1.00  0.00     0.000 HD 
HETATM   13  C   UNL     1     -10.219   9.248  67.563  1.00  0.00    -0.300 A  
HETATM   14  C   UNL     1     -10.521   8.025  66.951  1.00  0.00    -0.387 A  
BRANCH  13  15
HETATM   15  C   UNL     1     -10.172  10.514  66.783  1.00  0.00    -0.234 C  
HETATM   16  O   UNL     1      -9.796  10.594  65.627  1.00  0.00    -0.222 OA 
BRANCH  15  17
HETATM   17  O   UNL     1     -10.437  11.554  67.610  1.00  0.00    -0.181 OA 
BRANCH  17  18
HETATM   18  C   UNL     1     -11.835  11.856  67.763  1.00  0.00    -0.219 C  
BRANCH  18  19
HETATM   19  C   UNL     1     -11.929  13.120  68.643  1.00  0.00    -0.284 C  
BRANCH  19  20
HETATM   20  N   UNL     1     -12.349  12.934  70.044  1.00  0.00    -0.188 NA 
BRANCH  20  21
HETATM   21  C   UNL     1     -12.052  11.594  70.570  1.00  0.00    -0.366 C  
HETATM   22  C   UNL     1     -13.060  11.018  71.559  1.00  0.00    -0.500 C  
ENDBRANCH  20  21
BRANCH  20  23
HETATM   23  C   UNL     1     -11.809  14.037  70.861  1.00  0.00    -0.173 C  
HETATM   24  C   UNL     1     -12.811  14.651  71.830  1.00  0.00    -0.399 C  
ENDBRANCH  20  23
ENDBRANCH  19  20
ENDBRANCH  18  19
ENDBRANCH  17  18
ENDBRANCH  15  17
ENDBRANCH  13  15
ENDBRANCH   5   6
ENDBRANCH   4   5
ENDBRANCH   3   4
ENDBRANCH   2   3
TORSDOF 11
ENDMDL
MODEL      245
REMARK 921   NORMALIZED FREE ENERGY PREDICTED BY IDOCK:   -2.96 KCAL/MOL
REMARK 922        TOTAL FREE ENERGY PREDICTED BY IDOCK:   -5.87 KCAL/MOL
REMARK 923 INTER-LIGAND FREE ENERGY PREDICTED BY IDOCK:   -5.51 KCAL/MOL
REMARK 924 INTRA-LIGAND FREE ENERGY PREDICTED BY IDOCK:   -0.36 KCAL/MOL
REMARK 927      BINDING AFFINITY PREDICTED BY RF-SCORE:    0.00 PKD
ROOT
HETATM    1  C   UNL     1     -10.839  18.221  67.804  1.00  0.00    -0.257 C  
HETATM    2  C   UNL     1     -10.427  19.595  67.303  1.00  0.00    -0.596 C  
ENDROOT
BRANCH   2   3
HETATM    3  C   UNL     1      -9.110  19.531  66.533  1.00  0.00    -0.416 C  
BRANCH   3   4
HETATM    4  C   UNL     1      -8.208  20.712  66.869  1.00  0.00    -0.136 C  
BRANCH   4   5
HETATM    5  O   UNL     1      -7.285  20.299  67.884  1.00  0.00    -0.287 OA 
BRANCH   5   6
HETATM    6  C   UNL     1      -6.826  19.009  67.758  1.00  0.00    -0.211 A  
HETATM    7  C   UNL     1      -5.980  18.742  66.665  1.00  0.00    -0.158 A  
HETATM    8  C   UNL     1      -5.418  17.467  66.537  1.00  0.00    -0.226 A  
HETATM    9  N   UNL     1      -5.530  19.784  65.835  1.00  0.00    -0.155 NA 
HETATM   10  H1  UNL     1      -4.917  19.591  65.043  1.00  0.00     0.000 HD 
HETATM   11  C   UNL     1      -5.801  16.430  67.391  1.00  0.00    -0.189 A  
HETATM   12  H2  UNL     1      -5.081  20.488  66.421  1.00  0.00     0.000 HD 
HETATM   13  C   UNL     1      -6.728  16.673  68.407  1.00  0.00    -0.142 A  
HETATM   14  C   UNL     1      -7.220  17.970  68.601  1.00  0.00    -0.276 A  
BRANCH  13  15
HETATM   15  C   UNL     1      -7.273  15.515  69.165  1.00  0.00    -0.174 C  
HETATM   16  O   UNL     1      -6.611  14.806  69.903  1.00  0.00    -0.158 OA 
BRANCH  15  17
HETATM   17  O   UNL     1      -8.545  15.281  68.763  1.00  0.00    -0.165 OA 
BRANCH  17  18
HETATM   18  C   UNL     1      -9.527  15.363  69.810  1.00  0.00    -0.149 C  
BRANCH  18  19
HETATM   19  C   UNL     1     -10.786  14.628  69.305  1.00  0.00    -0.258 C  
BRANCH  19  20
HETATM   20  N   UNL     1     -10.694  13.961  67.994  1.00  0.00    -0.242 NA 
BRANCH  20  21
HETATM   21  C   UNL     1     -10.604  12.497  68.088  1.00  0.00    -0.226 C  
HETATM   22  C   UNL     1     -11.906  11.758  68.378  1.00  0.00    -0.347 C  
ENDBRANCH  20  21
BRANCH  20  23
HETATM   23  C   UNL     1     -11.785  14.445  67.127  1.00  0.00    -0.400 C  
HETATM   24  C   UNL     1     -11.431  14.513  65.647  1.00  0.00    -0.341 C  
ENDBRANCH  20  23
ENDBRANCH  19  20
ENDBRANCH  18  19
ENDBRANCH  17  18
ENDBRANCH  15  17
ENDBRANCH  13  15
ENDBRANCH   5   6
ENDBRANCH   4   5
ENDBRANCH   3   4
ENDBRANCH   2   3
TORSDOF 11
ENDMDL
MODEL      246
REMARK 921   NORMALIZED FREE ENERGY PREDICTED BY IDOCK:   -2.95 KCAL/MOL
REMARK 922        TOTAL FREE ENERGY PREDICTED BY IDOCK:   -5.85 KCAL/MOL
REMARK 923 INTER-LIGAND FREE ENERGY PREDICTED BY IDOCK:   -5.08 KCAL/MOL
REMARK 924 INTRA-LIGAND FREE ENERGY PREDICTED BY IDOCK:   -0.77 KCAL/MOL
REMARK 927      BINDING AFFINITY PREDICTED BY RF-SCORE:    0.00 PKD
ROOT
HETATM    1  C   UNL     1     -12.716  13.740  65.547  1.00  0.00    -0.530 C  
HETATM    2  C   UNL     1     -11.487  13.189  66.251  1.00  0.00    -0.372 C  
ENDROOT
BRANCH   2   3
HETATM    3  C   UNL     1     -11.859  12.540  67.583  1.00  0.00    -0.381 C  
BRANCH   3   4
HETATM    4  C   UNL     1     -10.619  12.138  68.373  1.00  0.00    -0.226 C  
BRANCH   4   5
HETATM    5  O   UNL     1      -9.892  11.171  67.606  1.00  0.00    -0.171 OA 
BRANCH   5   6
HETATM    6  C   UNL     1     -10.174   9.860  67.913  1.00  0.00    -0.193 A  
HETATM    7  C   UNL     1     -10.118   8.936  66.852  1.00  0.00    -0.273 A  
HETATM    8  C   UNL     1     -10.313   7.578  67.124  1.00  0.00    -0.384 A  
HETATM    9  N   UNL     1      -9.662   9.330  65.581  1.00  0.00    -0.413 NA 
HETATM   10  H1  UNL     1      -9.622   8.661  64.812  1.00  0.00     0.000 HD 
HETATM   11  C   UNL     1     -10.704   7.154  68.396  1.00  0.00    -0.192 A  
HETATM   12  H2  UNL     1      -8.738   9.747  65.688  1.00  0.00     0.000 HD 
HETATM   13  C   UNL     1     -10.867   8.090  69.420  1.00  0.00    -0.104 A  
HETATM   14  C   UNL     1     -10.578   9.439  69.179  1.00  0.00    -0.234 A  
BRANCH  13  15
HETATM   15  C   UNL     1     -11.481   7.644  70.700  1.00  0.00    -0.258 C  
HETATM   16  O   UNL     1     -11.899   8.400  71.559  1.00  0.00    -0.274 OA 
BRANCH  15  17
HETATM   17  O   UNL     1     -11.331   6.303  70.821  1.00  0.00    -0.317 OA 
BRANCH  17  18
HETATM   18  C   UNL     1     -10.620   5.885  71.998  1.00  0.00    -0.221 C  
BRANCH  18  19
HETATM   19  C   UNL     1      -9.147   6.302  71.806  1.00  0.00    -0.144 C  
BRANCH  19  20
HETATM   20  N   UNL     1      -8.148   5.222  71.714  1.00  0.00    -0.115 NA 
BRANCH  20  21
HETATM   21  C   UNL     1      -6.938   5.607  70.973  1.00  0.00    -0.065 C  
HETATM   22  C   UNL     1      -6.578   7.089  70.990  1.00  0.00    -0.048 C  
ENDBRANCH  20  21
BRANCH  20  23
HETATM   23  C   UNL     1      -7.886   4.689  73.064  1.00  0.00    -0.096 C  
HETATM   24  C   UNL     1      -8.221   3.212  73.233  1.00  0.00    -0.073 C  
ENDBRANCH  20  23
ENDBRANCH  19  20
ENDBRANCH  18  19
ENDBRANCH  17  18
ENDBRANCH  15  17
ENDBRANCH  13  15
ENDBRANCH   5   6
ENDBRANCH   4   5
ENDBRANCH   3   4
ENDBRANCH   2   3
TORSDOF 11
ENDMDL
MODEL      247
REMARK 921   NORMALIZED FREE ENERGY PREDICTED BY IDOCK:   -2.94 KCAL/MOL
REMARK 922        TOTAL FREE ENERGY PREDICTED BY IDOCK:   -5.84 KCAL/MOL
REMARK 923 INTER-LIGAND FREE ENERGY PREDICTED BY IDOCK:   -5.30 KCAL/MOL
REMARK 924 INTRA-LIGAND FREE ENERGY PREDICTED BY IDOCK:   -0.54 KCAL/MOL
REMARK 927      BINDING AFFINITY PREDICTED BY RF-SCORE:    0.00 PKD
ROOT
HETATM    1  C   UNL     1     -10.254  19.880  68.018  1.00  0.00    -0.572 C  
HETATM    2  C   UNL     1     -10.036  19.601  66.540  1.00  0.00    -0.545 C  
ENDROOT
BRANCH   2   3
HETATM    3  C   UNL     1     -10.397  18.158  66.191  1.00  0.00    -0.394 C  
BRANCH   3   4
HETATM    4  C   UNL     1      -9.205  17.226  66.370  1.00  0.00    -0.253 C  
BRANCH   4   5
HETATM    5  O   UNL     1      -9.154  16.819  67.742  1.00  0.00    -0.217 OA 
BRANCH   5   6
HETATM    6  C   UNL     1      -8.020  16.127  68.098  1.00  0.00    -0.148 A  
HETATM    7  C   UNL     1      -6.965  16.881  68.649  1.00  0.00    -0.191 A  
HETATM    8  C   UNL     1      -5.823  16.215  69.105  1.00  0.00    -0.123 A  
HETATM    9  N   UNL     1      -7.135  18.247  68.937  1.00  0.00    -0.281 NA 
HETATM   10  H1  UNL     1      -6.371  18.792  69.336  1.00  0.00     0.000 HD 
HETATM   11  C   UNL     1      -5.659  14.846  68.887  1.00  0.00    -0.087 A  
HETATM   12  H2  UNL     1      -7.948  18.346  69.545  1.00  0.00     0.000 HD 
HETATM   13  C   UNL     1      -6.663  14.121  68.240  1.00  0.00    -0.108 A  
HETATM   14  C   UNL     1      -7.851  14.762  67.867  1.00  0.00    -0.145 A  
BRANCH  13  15
HETATM   15  C   UNL     1      -6.379  12.718  67.836  1.00  0.00    -0.118 C  
HETATM   16  O   UNL     1      -5.869  12.399  66.776  1.00  0.00    -0.277 OA 
BRANCH  15  17
HETATM   17  O   UNL     1      -6.934  11.875  68.740  1.00  0.00    -0.091 OA 
BRANCH  17  18
HETATM   18  C   UNL     1      -7.900  10.962  68.191  1.00  0.00    -0.114 C  
BRANCH  18  19
HETATM   19  C   UNL     1      -8.562  10.238  69.382  1.00  0.00    -0.156 C  
BRANCH  19  20
HETATM   20  N   UNL     1      -9.891   9.643  69.153  1.00  0.00    -0.178 NA 
BRANCH  20  21
HETATM   21  C   UNL     1      -9.840   8.349  68.458  1.00  0.00    -0.173 C  
HETATM   22  C   UNL     1     -10.467   8.304  67.069  1.00  0.00    -0.384 C  
ENDBRANCH  20  21
BRANCH  20  23
HETATM   23  C   UNL     1     -10.635   9.617  70.426  1.00  0.00    -0.295 C  
HETATM   24  C   UNL     1     -11.726  10.675  70.541  1.00  0.00    -0.451 C  
ENDBRANCH  20  23
ENDBRANCH  19  20
ENDBRANCH  18  19
ENDBRANCH  17  18
ENDBRANCH  15  17
ENDBRANCH  13  15
ENDBRANCH   5   6
ENDBRANCH   4   5
ENDBRANCH   3   4
ENDBRANCH   2   3
TORSDOF 11
ENDMDL
MODEL      248
REMARK 921   NORMALIZED FREE ENERGY PREDICTED BY IDOCK:   -2.91 KCAL/MOL
REMARK 922        TOTAL FREE ENERGY PREDICTED BY IDOCK:   -5.80 KCAL/MOL
REMARK 923 INTER-LIGAND FREE ENERGY PREDICTED BY IDOCK:   -5.52 KCAL/MOL
REMARK 924 INTRA-LIGAND FREE ENERGY PREDICTED BY IDOCK:   -0.28 KCAL/MOL
REMARK 927      BINDING AFFINITY PREDICTED BY RF-SCORE:    0.00 PKD
ROOT
HETATM    1  C   UNL     1     -10.715   6.193  71.338  1.00  0.00    -0.308 C  
HETATM    2  C   UNL     1     -10.732   6.986  70.041  1.00  0.00    -0.267 C  
ENDROOT
BRANCH   2   3
HETATM    3  C   UNL     1     -10.097   6.194  68.901  1.00  0.00    -0.211 C  
BRANCH   3   4
HETATM    4  C   UNL     1      -9.623   7.111  67.781  1.00  0.00    -0.129 C  
BRANCH   4   5
HETATM    5  O   UNL     1      -9.039   8.278  68.371  1.00  0.00    -0.136 OA 
BRANCH   5   6
HETATM    6  C   UNL     1      -9.048   9.397  67.571  1.00  0.00    -0.124 A  
HETATM    7  C   UNL     1      -7.835  10.104  67.458  1.00  0.00    -0.102 A  
HETATM    8  C   UNL     1      -7.767  11.200  66.591  1.00  0.00    -0.155 A  
HETATM    9  N   UNL     1      -6.654   9.598  68.031  1.00  0.00    -0.061 NA 
HETATM   10  H1  UNL     1      -5.776  10.110  67.949  1.00  0.00     0.000 HD 
HETATM   11  C   UNL     1      -8.915  11.682  65.959  1.00  0.00    -0.149 A  
HETATM   12  H2  UNL     1      -6.507   8.654  67.677  1.00  0.00     0.000 HD 
HETATM   13  C   UNL     1     -10.141  11.043  66.163  1.00  0.00    -0.286 A  
HETATM   14  C   UNL     1     -10.197   9.887  66.952  1.00  0.00    -0.302 A  
BRANCH  13  15
HETATM   15  C   UNL     1     -11.376  11.693  65.650  1.00  0.00    -0.170 C  
HETATM   16  O   UNL     1     -11.642  11.823  64.468  1.00  0.00    -0.301 OA 
BRANCH  15  17
HETATM   17  O   UNL     1     -12.042  12.260  66.685  1.00  0.00    -0.612 OA 
BRANCH  17  18
HETATM   18  C   UNL     1     -12.293  13.668  66.535  1.00  0.00    -0.361 C  
BRANCH  18  19
HETATM   19  C   UNL     1     -11.178  14.408  67.304  1.00  0.00    -0.323 C  
BRANCH  19  20
HETATM   20  N   UNL     1     -10.557  15.566  66.637  1.00  0.00    -0.304 NA 
BRANCH  20  21
HETATM   21  C   UNL     1      -9.372  16.078  67.339  1.00  0.00    -0.217 C  
HETATM   22  C   UNL     1      -8.137  16.336  66.482  1.00  0.00    -0.337 C  
ENDBRANCH  20  21
BRANCH  20  23
HETATM   23  C   UNL     1     -10.324  15.239  65.218  1.00  0.00    -0.401 C  
HETATM   24  C   UNL     1     -11.576  15.272  64.350  1.00  0.00    -0.265 C  
ENDBRANCH  20  23
ENDBRANCH  19  20
ENDBRANCH  18  19
ENDBRANCH  17  18
ENDBRANCH  15  17
ENDBRANCH  13  15
ENDBRANCH   5   6
ENDBRANCH   4   5
ENDBRANCH   3   4
ENDBRANCH   2   3
TORSDOF 11
ENDMDL
MODEL      249
REMARK 921   NORMALIZED FREE ENERGY PREDICTED BY IDOCK:   -2.86 KCAL/MOL
REMARK 922        TOTAL FREE ENERGY PREDICTED BY IDOCK:   -5.71 KCAL/MOL
REMARK 923 INTER-LIGAND FREE ENERGY PREDICTED BY IDOCK:   -4.82 KCAL/MOL
REMARK 924 INTRA-LIGAND FREE ENERGY PREDICTED BY IDOCK:   -0.88 KCAL/MOL
REMARK 927      BINDING AFFINITY PREDICTED BY RF-SCORE:    0.00 PKD
ROOT
HETATM    1  C   UNL     1      -6.870   3.588  64.700  1.00  0.00    -0.048 C  
HETATM    2  C   UNL     1      -6.186   4.504  65.702  1.00  0.00    -0.031 C  
ENDROOT
BRANCH   2   3
HETATM    3  C   UNL     1      -7.207   5.200  66.601  1.00  0.00    -0.081 C  
BRANCH   3   4
HETATM    4  C   UNL     1      -8.125   6.114  65.799  1.00  0.00    -0.124 C  
BRANCH   4   5
HETATM    5  O   UNL     1      -9.418   6.105  66.415  1.00  0.00    -0.157 OA 
BRANCH   5   6
HETATM    6  C   UNL     1      -9.619   7.093  67.351  1.00  0.00    -0.137 A  
HETATM    7  C   UNL     1     -10.228   6.704  68.560  1.00  0.00    -0.171 A  
HETATM    8  C   UNL     1     -10.380   7.651  69.578  1.00  0.00    -0.217 A  
HETATM    9  N   UNL     1     -10.484   5.348  68.831  1.00  0.00    -0.198 NA 
HETATM   10  H1  UNL     1     -10.925   5.067  69.706  1.00  0.00     0.000 HD 
HETATM   11  C   UNL     1     -10.072   8.995  69.354  1.00  0.00    -0.198 A  
HETATM   12  H2  UNL     1      -9.609   4.833  68.735  1.00  0.00     0.000 HD 
HETATM   13  C   UNL     1      -9.571   9.396  68.113  1.00  0.00    -0.158 A  
HETATM   14  C   UNL     1      -9.326   8.437  67.122  1.00  0.00    -0.192 A  
BRANCH  13  15
HETATM   15  C   UNL     1      -9.449  10.851  67.832  1.00  0.00    -0.159 C  
HETATM   16  O   UNL     1      -8.842  11.637  68.538  1.00  0.00    -0.165 OA 
BRANCH  15  17
HETATM   17  O   UNL     1     -10.254  11.171  66.791  1.00  0.00    -0.216 OA 
BRANCH  17  18
HETATM   18  C   UNL     1     -11.476  11.832  67.161  1.00  0.00    -0.295 C  
BRANCH  18  19
HETATM   19  C   UNL     1     -11.905  12.693  65.955  1.00  0.00    -0.444 C  
BRANCH  19  20
HETATM   20  N   UNL     1     -10.856  13.070  64.991  1.00  0.00    -0.296 NA 
BRANCH  20  21
HETATM   21  C   UNL     1     -11.125  12.605  63.622  1.00  0.00    -0.443 C  
HETATM   22  C   UNL     1     -10.233  11.482  63.103  1.00  0.00    -0.389 C  
ENDBRANCH  20  21
BRANCH  20  23
HETATM   23  C   UNL     1     -10.599  14.518  65.097  1.00  0.00    -0.410 C  
HETATM   24  C   UNL     1      -9.994  14.955  66.426  1.00  0.00    -0.290 C  
ENDBRANCH  20  23
ENDBRANCH  19  20
ENDBRANCH  18  19
ENDBRANCH  17  18
ENDBRANCH  15  17
ENDBRANCH  13  15
ENDBRANCH   5   6
ENDBRANCH   4   5
ENDBRANCH   3   4
ENDBRANCH   2   3
TORSDOF 11
ENDMDL
MODEL      250
REMARK 921   NORMALIZED FREE ENERGY PREDICTED BY IDOCK:   -2.86 KCAL/MOL
REMARK 922        TOTAL FREE ENERGY PREDICTED BY IDOCK:   -5.70 KCAL/MOL
REMARK 923 INTER-LIGAND FREE ENERGY PREDICTED BY IDOCK:   -4.67 KCAL/MOL
REMARK 924 INTRA-LIGAND FREE ENERGY PREDICTED BY IDOCK:   -1.04 KCAL/MOL
REMARK 927      BINDING AFFINITY PREDICTED BY RF-SCORE:    0.00 PKD
ROOT
HETATM    1  C   UNL     1     -10.541   5.623  71.479  1.00  0.00    -0.306 C  
HETATM    2  C   UNL     1     -10.445   5.642  69.962  1.00  0.00    -0.367 C  
ENDROOT
BRANCH   2   3
HETATM    3  C   UNL     1      -9.761   4.382  69.436  1.00  0.00    -0.267 C  
BRANCH   3   4
HETATM    4  C   UNL     1      -9.374   4.529  67.970  1.00  0.00    -0.140 C  
BRANCH   4   5
HETATM    5  O   UNL     1      -8.221   5.375  67.890  1.00  0.00    -0.100 OA 
BRANCH   5   6
HETATM    6  C   UNL     1      -8.263   6.316  66.889  1.00  0.00    -0.109 A  
HETATM    7  C   UNL     1      -7.390   6.123  65.801  1.00  0.00    -0.080 A  
HETATM    8  C   UNL     1      -7.452   7.004  64.716  1.00  0.00    -0.096 A  
HETATM    9  N   UNL     1      -6.623   4.948  65.698  1.00  0.00    -0.040 NA 
HETATM   10  H1  UNL     1      -5.991   4.808  64.910  1.00  0.00     0.000 HD 
HETATM   11  C   UNL     1      -8.256   8.144  64.768  1.00  0.00    -0.137 A  
HETATM   12  H2  UNL     1      -7.254   4.149  65.746  1.00  0.00     0.000 HD 
HETATM   13  C   UNL     1      -9.038   8.392  65.899  1.00  0.00    -0.225 A  
HETATM   14  C   UNL     1      -9.055   7.463  66.947  1.00  0.00    -0.164 A  
BRANCH  13  15
HETATM   15  C   UNL     1      -9.721   9.708  66.018  1.00  0.00    -0.264 C  
HETATM   16  O   UNL     1     -10.393  10.213  65.136  1.00  0.00    -0.257 OA 
BRANCH  15  17
HETATM   17  O   UNL     1      -9.328  10.310  67.166  1.00  0.00    -0.151 OA 
BRANCH  17  18
HETATM   18  C   UNL     1      -8.720  11.601  66.987  1.00  0.00    -0.173 C  
BRANCH  18  19
HETATM   19  C   UNL     1      -9.476  12.585  67.903  1.00  0.00    -0.196 C  
BRANCH  19  20
HETATM   20  N   UNL     1     -10.470  13.468  67.267  1.00  0.00    -0.248 NA 
BRANCH  20  21
HETATM   21  C   UNL     1     -10.162  13.778  65.863  1.00  0.00    -0.313 C  
HETATM   22  C   UNL     1      -9.999  15.254  65.518  1.00  0.00    -0.383 C  
ENDBRANCH  20  21
BRANCH  20  23
HETATM   23  C   UNL     1     -11.819  12.910  67.481  1.00  0.00    -0.351 C  
HETATM   24  C   UNL     1     -11.963  12.081  68.751  1.00  0.00    -0.299 C  
ENDBRANCH  20  23
ENDBRANCH  19  20
ENDBRANCH  18  19
ENDBRANCH  17  18
ENDBRANCH  15  17
ENDBRANCH  13  15
ENDBRANCH   5   6
ENDBRANCH   4   5
ENDBRANCH   3   4
ENDBRANCH   2   3
TORSDOF 11
ENDMDL
MODEL      251
REMARK 921   NORMALIZED FREE ENERGY PREDICTED BY IDOCK:   -2.84 KCAL/MOL
REMARK 922        TOTAL FREE ENERGY PREDICTED BY IDOCK:   -5.68 KCAL/MOL
REMARK 923 INTER-LIGAND FREE ENERGY PREDICTED BY IDOCK:   -4.52 KCAL/MOL
REMARK 924 INTRA-LIGAND FREE ENERGY PREDICTED BY IDOCK:   -1.15 KCAL/MOL
REMARK 927      BINDING AFFINITY PREDICTED BY RF-SCORE:    0.00 PKD
ROOT
HETATM    1  C   UNL     1     -12.017  12.508  70.188  1.00  0.00    -0.377 C  
HETATM    2  C   UNL     1     -11.999  11.169  69.468  1.00  0.00    -0.425 C  
ENDROOT
BRANCH   2   3
HETATM    3  C   UNL     1     -10.615  10.526  69.532  1.00  0.00    -0.278 C  
BRANCH   3   4
HETATM    4  C   UNL     1     -10.431   9.727  70.816  1.00  0.00    -0.269 C  
BRANCH   4   5
HETATM    5  O   UNL     1     -11.488   8.763  70.902  1.00  0.00    -0.275 OA 
BRANCH   5   6
HETATM    6  C   UNL     1     -11.077   7.451  70.867  1.00  0.00    -0.263 A  
HETATM    7  C   UNL     1     -11.012   6.775  72.101  1.00  0.00    -0.238 A  
HETATM    8  C   UNL     1     -10.683   5.415  72.113  1.00  0.00    -0.286 A  
HETATM    9  N   UNL     1     -11.478   7.386  73.279  1.00  0.00    -0.588 NA 
HETATM   10  H1  UNL     1     -11.431   6.896  74.172  1.00  0.00     0.000 HD 
HETATM   11  C   UNL     1     -10.278   4.769  70.943  1.00  0.00    -0.247 A  
HETATM   12  H2  UNL     1     -12.443   7.679  73.126  1.00  0.00     0.000 HD 
HETATM   13  C   UNL     1     -10.237   5.475  69.738  1.00  0.00    -0.336 A  
HETATM   14  C   UNL     1     -10.660   6.810  69.701  1.00  0.00    -0.267 A  
BRANCH  13  15
HETATM   15  C   UNL     1      -9.610   4.827  68.555  1.00  0.00    -0.156 C  
HETATM   16  O   UNL     1     -10.190   4.604  67.508  1.00  0.00    -0.115 OA 
BRANCH  15  17
HETATM   17  O   UNL     1      -8.378   4.378  68.897  1.00  0.00    -0.079 OA 
BRANCH  17  18
HETATM   18  C   UNL     1      -7.372   4.562  67.886  1.00  0.00    -0.066 C  
BRANCH  18  19
HETATM   19  C   UNL     1      -6.066   4.942  68.614  1.00  0.00    -0.030 C  
BRANCH  19  20
HETATM   20  N   UNL     1      -5.960   6.319  69.130  1.00  0.00    -0.020 NA 
BRANCH  20  21
HETATM   21  C   UNL     1      -6.420   7.337  68.175  1.00  0.00    -0.045 C  
HETATM   22  C   UNL     1      -7.399   8.375  68.714  1.00  0.00    -0.087 C  
ENDBRANCH  20  21
BRANCH  20  23
HETATM   23  C   UNL     1      -6.612   6.391  70.451  1.00  0.00    -0.048 C  
HETATM   24  C   UNL     1      -5.810   5.762  71.584  1.00  0.00    -0.026 C  
ENDBRANCH  20  23
ENDBRANCH  19  20
ENDBRANCH  18  19
ENDBRANCH  17  18
ENDBRANCH  15  17
ENDBRANCH  13  15
ENDBRANCH   5   6
ENDBRANCH   4   5
ENDBRANCH   3   4
ENDBRANCH   2   3
TORSDOF 11
ENDMDL
MODEL      252
REMARK 921   NORMALIZED FREE ENERGY PREDICTED BY IDOCK:   -2.76 KCAL/MOL
REMARK 922        TOTAL FREE ENERGY PREDICTED BY IDOCK:   -5.55 KCAL/MOL
REMARK 923 INTER-LIGAND FREE ENERGY PREDICTED BY IDOCK:   -4.90 KCAL/MOL
REMARK 924 INTRA-LIGAND FREE ENERGY PREDICTED BY IDOCK:   -0.65 KCAL/MOL
REMARK 927      BINDING AFFINITY PREDICTED BY RF-SCORE:    0.00 PKD
ROOT
HETATM    1  C   UNL     1      -8.117  18.814  66.891  1.00  0.00    -0.267 C  
HETATM    2  C   UNL     1      -8.488  17.356  66.683  1.00  0.00    -0.291 C  
ENDROOT
BRANCH   2   3
HETATM    3  C   UNL     1      -9.690  16.963  67.538  1.00  0.00    -0.249 C  
BRANCH   3   4
HETATM    4  C   UNL     1     -10.776  16.296  66.703  1.00  0.00    -0.197 C  
BRANCH   4   5
HETATM    5  O   UNL     1     -10.173  15.243  65.940  1.00  0.00    -0.287 OA 
BRANCH   5   6
HETATM    6  C   UNL     1     -10.332  13.983  66.468  1.00  0.00    -0.285 A  
HETATM    7  C   UNL     1     -11.586  13.371  66.278  1.00  0.00    -0.344 A  
HETATM    8  C   UNL     1     -11.774  12.057  66.721  1.00  0.00    -0.339 A  
HETATM    9  N   UNL     1     -12.566  13.977  65.471  1.00  0.00    -0.518 NA 
HETATM   10  H1  UNL     1     -13.473  13.534  65.333  1.00  0.00     0.000 HD 
HETATM   11  C   UNL     1     -10.789  11.410  67.471  1.00  0.00    -0.291 A  
HETATM   12  H2  UNL     1     -12.156  14.157  64.554  1.00  0.00     0.000 HD 
HETATM   13  C   UNL     1      -9.587  12.064  67.752  1.00  0.00    -0.193 A  
HETATM   14  C   UNL     1      -9.355  13.343  67.229  1.00  0.00    -0.233 A  
BRANCH  13  15
HETATM   15  C   UNL     1      -8.647  11.440  68.720  1.00  0.00    -0.083 C  
HETATM   16  O   UNL     1      -7.512  11.832  68.923  1.00  0.00    -0.119 OA 
BRANCH  15  17
HETATM   17  O   UNL     1      -9.189  10.288  69.186  1.00  0.00    -0.174 OA 
BRANCH  17  18
HETATM   18  C   UNL     1      -8.293   9.164  69.189  1.00  0.00    -0.123 C  
BRANCH  18  19
HETATM   19  C   UNL     1      -8.522   8.402  67.868  1.00  0.00    -0.131 C  
BRANCH  19  20
HETATM   20  N   UNL     1      -9.125   7.060  67.961  1.00  0.00    -0.128 NA 
BRANCH  20  21
HETATM   21  C   UNL     1     -10.523   7.015  67.510  1.00  0.00    -0.250 C  
HETATM   22  C   UNL     1     -10.888   5.882  66.557  1.00  0.00    -0.214 C  
ENDBRANCH  20  21
BRANCH  20  23
HETATM   23  C   UNL     1      -8.242   6.086  67.293  1.00  0.00    -0.106 C  
HETATM   24  C   UNL     1      -7.203   6.709  66.368  1.00  0.00    -0.072 C  
ENDBRANCH  20  23
ENDBRANCH  19  20
ENDBRANCH  18  19
ENDBRANCH  17  18
ENDBRANCH  15  17
ENDBRANCH  13  15
ENDBRANCH   5   6
ENDBRANCH   4   5
ENDBRANCH   3   4
ENDBRANCH   2   3
TORSDOF 11
ENDMDL
MODEL      253
REMARK 921   NORMALIZED FREE ENERGY PREDICTED BY IDOCK:   -2.69 KCAL/MOL
REMARK 922        TOTAL FREE ENERGY PREDICTED BY IDOCK:   -5.43 KCAL/MOL
REMARK 923 INTER-LIGAND FREE ENERGY PREDICTED BY IDOCK:   -4.84 KCAL/MOL
REMARK 924 INTRA-LIGAND FREE ENERGY PREDICTED BY IDOCK:   -0.58 KCAL/MOL
REMARK 927      BINDING AFFINITY PREDICTED BY RF-SCORE:    0.00 PKD
ROOT
HETATM    1  C   UNL     1      -7.405   3.778  66.449  1.00  0.00    -0.072 C  
HETATM    2  C   UNL     1      -7.955   5.187  66.299  1.00  0.00    -0.104 C  
ENDROOT
BRANCH   2   3
HETATM    3  C   UNL     1      -9.098   5.442  67.279  1.00  0.00    -0.111 C  
BRANCH   3   4
HETATM    4  C   UNL     1     -10.067   6.490  66.747  1.00  0.00    -0.176 C  
BRANCH   4   5
HETATM    5  O   UNL     1     -10.881   6.943  67.835  1.00  0.00    -0.231 OA 
BRANCH   5   6
HETATM    6  C   UNL     1     -10.616   8.223  68.261  1.00  0.00    -0.103 A  
HETATM    7  C   UNL     1     -10.553   8.427  69.653  1.00  0.00    -0.219 A  
HETATM    8  C   UNL     1     -10.203   9.691  70.139  1.00  0.00    -0.313 A  
HETATM    9  N   UNL     1     -10.626   7.338  70.541  1.00  0.00    -0.218 NA 
HETATM   10  H1  UNL     1     -10.581   7.485  71.549  1.00  0.00     0.000 HD 
HETATM   11  C   UNL     1     -10.063  10.775  69.270  1.00  0.00    -0.200 A  
HETATM   12  H2  UNL     1      -9.901   6.668  70.284  1.00  0.00     0.000 HD 
HETATM   13  C   UNL     1     -10.235  10.592  67.896  1.00  0.00    -0.213 A  
HETATM   14  C   UNL     1     -10.489   9.309  67.395  1.00  0.00    -0.340 A  
BRANCH  13  15
HETATM   15  C   UNL     1     -10.286  11.792  67.019  1.00  0.00    -0.214 C  
HETATM   16  O   UNL     1     -10.050  11.777  65.824  1.00  0.00    -0.221 OA 
BRANCH  15  17
HETATM   17  O   UNL     1     -10.452  12.896  67.787  1.00  0.00    -0.214 OA 
BRANCH  17  18
HETATM   18  C   UNL     1      -9.341  13.808  67.771  1.00  0.00    -0.213 C  
BRANCH  18  19
HETATM   19  C   UNL     1      -9.859  15.139  67.187  1.00  0.00    -0.228 C  
BRANCH  19  20
HETATM   20  N   UNL     1      -9.599  16.362  67.966  1.00  0.00    -0.223 NA 
BRANCH  20  21
HETATM   21  C   UNL     1      -8.324  17.010  67.628  1.00  0.00    -0.190 C  
HETATM   22  C   UNL     1      -7.226  16.934  68.685  1.00  0.00    -0.215 C  
ENDBRANCH  20  21
BRANCH  20  23
HETATM   23  C   UNL     1     -10.772  17.252  67.876  1.00  0.00    -0.351 C  
HETATM   24  C   UNL     1     -10.439  18.699  67.534  1.00  0.00    -0.473 C  
ENDBRANCH  20  23
ENDBRANCH  19  20
ENDBRANCH  18  19
ENDBRANCH  17  18
ENDBRANCH  15  17
ENDBRANCH  13  15
ENDBRANCH   5   6
ENDBRANCH   4   5
ENDBRANCH   3   4
ENDBRANCH   2   3
TORSDOF 11
ENDMDL
MODEL      254
REMARK 921   NORMALIZED FREE ENERGY PREDICTED BY IDOCK:   -2.68 KCAL/MOL
REMARK 922        TOTAL FREE ENERGY PREDICTED BY IDOCK:   -5.42 KCAL/MOL
REMARK 923 INTER-LIGAND FREE ENERGY PREDICTED BY IDOCK:   -4.58 KCAL/MOL
REMARK 924 INTRA-LIGAND FREE ENERGY PREDICTED BY IDOCK:   -0.84 KCAL/MOL
REMARK 927      BINDING AFFINITY PREDICTED BY RF-SCORE:    0.00 PKD
ROOT
HETATM    1  C   UNL     1      -9.252  16.587  68.519  1.00  0.00    -0.230 C  
HETATM    2  C   UNL     1      -9.460  15.280  67.772  1.00  0.00    -0.197 C  
ENDROOT
BRANCH   2   3
HETATM    3  C   UNL     1     -10.916  15.116  67.342  1.00  0.00    -0.314 C  
BRANCH   3   4
HETATM    4  C   UNL     1     -11.133  13.805  66.595  1.00  0.00    -0.311 C  
BRANCH   4   5
HETATM    5  O   UNL     1     -11.882  12.924  67.441  1.00  0.00    -0.367 OA 
BRANCH   5   6
HETATM    6  C   UNL     1     -11.364  11.656  67.558  1.00  0.00    -0.298 A  
HETATM    7  C   UNL     1     -11.444  11.054  68.829  1.00  0.00    -0.305 A  
HETATM    8  C   UNL     1     -11.008   9.734  68.982  1.00  0.00    -0.193 A  
HETATM    9  N   UNL     1     -12.143  11.680  69.876  1.00  0.00    -0.310 NA 
HETATM   10  H1  UNL     1     -12.201  11.245  70.796  1.00  0.00     0.000 HD 
HETATM   11  C   UNL     1     -10.367   9.067  67.936  1.00  0.00    -0.290 A  
HETATM   12  H2  UNL     1     -13.092  11.874  69.555  1.00  0.00     0.000 HD 
HETATM   13  C   UNL     1     -10.191   9.710  66.708  1.00  0.00    -0.308 A  
HETATM   14  C   UNL     1     -10.711  10.996  66.517  1.00  0.00    -0.298 A  
BRANCH  13  15
HETATM   15  C   UNL     1      -9.328   9.062  65.684  1.00  0.00    -0.222 C  
HETATM   16  O   UNL     1      -9.019   9.576  64.624  1.00  0.00    -0.213 OA 
BRANCH  15  17
HETATM   17  O   UNL     1      -9.105   7.774  66.042  1.00  0.00    -0.173 OA 
BRANCH  17  18
HETATM   18  C   UNL     1      -7.777   7.298  65.765  1.00  0.00    -0.099 C  
BRANCH  18  19
HETATM   19  C   UNL     1      -7.650   5.909  66.424  1.00  0.00    -0.091 C  
BRANCH  19  20
HETATM   20  N   UNL     1      -7.293   5.873  67.853  1.00  0.00    -0.076 NA 
BRANCH  20  21
HETATM   21  C   UNL     1      -8.371   5.363  68.712  1.00  0.00    -0.097 C  
HETATM   22  C   UNL     1      -8.964   6.350  69.712  1.00  0.00    -0.141 C  
ENDBRANCH  20  21
BRANCH  20  23
HETATM   23  C   UNL     1      -6.008   5.168  68.013  1.00  0.00    -0.022 C  
HETATM   24  C   UNL     1      -5.960   4.206  69.194  1.00  0.00    -0.023 C  
ENDBRANCH  20  23
ENDBRANCH  19  20
ENDBRANCH  18  19
ENDBRANCH  17  18
ENDBRANCH  15  17
ENDBRANCH  13  15
ENDBRANCH   5   6
ENDBRANCH   4   5
ENDBRANCH   3   4
ENDBRANCH   2   3
TORSDOF 11
ENDMDL
MODEL      255
REMARK 921   NORMALIZED FREE ENERGY PREDICTED BY IDOCK:   -2.58 KCAL/MOL
REMARK 922        TOTAL FREE ENERGY PREDICTED BY IDOCK:   -5.24 KCAL/MOL
REMARK 923 INTER-LIGAND FREE ENERGY PREDICTED BY IDOCK:   -4.16 KCAL/MOL
REMARK 924 INTRA-LIGAND FREE ENERGY PREDICTED BY IDOCK:   -1.08 KCAL/MOL
REMARK 927      BINDING AFFINITY PREDICTED BY RF-SCORE:    0.00 PKD
ROOT
HETATM    1  C   UNL     1     -10.806   6.082  66.988  1.00  0.00    -0.413 C  
HETATM    2  C   UNL     1     -10.546   4.761  66.283  1.00  0.00    -0.246 C  
ENDROOT
BRANCH   2   3
HETATM    3  C   UNL     1      -9.118   4.277  66.527  1.00  0.00    -0.130 C  
BRANCH   3   4
HETATM    4  C   UNL     1      -8.094   5.311  66.076  1.00  0.00    -0.110 C  
BRANCH   4   5
HETATM    5  O   UNL     1      -7.013   5.313  67.017  1.00  0.00    -0.062 OA 
BRANCH   5   6
HETATM    6  C   UNL     1      -7.221   6.086  68.135  1.00  0.00    -0.080 A  
HETATM    7  C   UNL     1      -6.864   5.518  69.373  1.00  0.00    -0.061 A  
HETATM    8  C   UNL     1      -6.977   6.293  70.532  1.00  0.00    -0.064 A  
HETATM    9  N   UNL     1      -6.204   4.278  69.429  1.00  0.00    -0.027 NA 
HETATM   10  H1  UNL     1      -5.945   3.867  70.325  1.00  0.00     0.000 HD 
HETATM   11  C   UNL     1      -7.572   7.556  70.492  1.00  0.00    -0.085 A  
HETATM   12  H2  UNL     1      -5.365   4.337  68.851  1.00  0.00     0.000 HD 
HETATM   13  C   UNL     1      -8.027   8.071  69.275  1.00  0.00    -0.116 A  
HETATM   14  C   UNL     1      -7.829   7.341  68.096  1.00  0.00    -0.118 A  
BRANCH  13  15
HETATM   15  C   UNL     1      -8.838   9.317  69.290  1.00  0.00    -0.146 C  
HETATM   16  O   UNL     1      -9.078   9.990  68.303  1.00  0.00    -0.121 OA 
BRANCH  15  17
HETATM   17  O   UNL     1      -9.100   9.661  70.574  1.00  0.00    -0.242 OA 
BRANCH  17  18
HETATM   18  C   UNL     1     -10.497   9.805  70.881  1.00  0.00    -0.228 C  
BRANCH  18  19
HETATM   19  C   UNL     1     -11.169   8.453  70.561  1.00  0.00    -0.238 C  
BRANCH  19  20
HETATM   20  N   UNL     1     -11.799   7.734  71.683  1.00  0.00    -0.276 NA 
BRANCH  20  21
HETATM   21  C   UNL     1     -12.970   6.939  71.283  1.00  0.00    -0.244 C  
HETATM   22  C   UNL     1     -14.331   7.483  71.705  1.00  0.00    -0.588 C  
ENDBRANCH  20  21
BRANCH  20  23
HETATM   23  C   UNL     1     -10.767   6.968  72.406  1.00  0.00    -0.231 C  
HETATM   24  C   UNL     1     -11.094   5.491  72.593  1.00  0.00    -0.334 C  
ENDBRANCH  20  23
ENDBRANCH  19  20
ENDBRANCH  18  19
ENDBRANCH  17  18
ENDBRANCH  15  17
ENDBRANCH  13  15
ENDBRANCH   5   6
ENDBRANCH   4   5
ENDBRANCH   3   4
ENDBRANCH   2   3
TORSDOF 11
ENDMDL
MODEL      256
REMARK 921   NORMALIZED FREE ENERGY PREDICTED BY IDOCK:   -2.55 KCAL/MOL
REMARK 922        TOTAL FREE ENERGY PREDICTED BY IDOCK:   -5.20 KCAL/MOL
REMARK 923 INTER-LIGAND FREE ENERGY PREDICTED BY IDOCK:   -4.21 KCAL/MOL
REMARK 924 INTRA-LIGAND FREE ENERGY PREDICTED BY IDOCK:   -0.99 KCAL/MOL
REMARK 927      BINDING AFFINITY PREDICTED BY RF-SCORE:    0.00 PKD
ROOT
HETATM    1  C   UNL     1      -8.401   9.114  64.902  1.00  0.00    -0.169 C  
HETATM    2  C   UNL     1      -7.892   8.060  63.932  1.00  0.00    -0.142 C  
ENDROOT
BRANCH   2   3
HETATM    3  C   UNL     1      -7.609   6.741  64.648  1.00  0.00    -0.105 C  
BRANCH   3   4
HETATM    4  C   UNL     1      -8.810   6.280  65.464  1.00  0.00    -0.029 C  
BRANCH   4   5
HETATM    5  O   UNL     1      -8.371   6.012  66.801  1.00  0.00    -0.106 OA 
BRANCH   5   6
HETATM    6  C   UNL     1      -8.424   7.089  67.654  1.00  0.00    -0.123 A  
HETATM    7  C   UNL     1      -7.296   7.309  68.468  1.00  0.00    -0.100 A  
HETATM    8  C   UNL     1      -7.263   8.439  69.292  1.00  0.00    -0.063 A  
HETATM    9  N   UNL     1      -6.132   6.537  68.303  1.00  0.00    -0.027 NA 
HETATM   10  H1  UNL     1      -5.315   6.696  68.892  1.00  0.00     0.000 HD 
HETATM   11  C   UNL     1      -8.386   9.259  69.423  1.00  0.00    -0.127 A  
HETATM   12  H2  UNL     1      -5.840   6.604  67.328  1.00  0.00     0.000 HD 
HETATM   13  C   UNL     1      -9.544   8.972  68.696  1.00  0.00    -0.158 A  
HETATM   14  C   UNL     1      -9.551   7.899  67.796  1.00  0.00    -0.174 A  
BRANCH  13  15
HETATM   15  C   UNL     1     -10.785   9.731  69.007  1.00  0.00    -0.217 C  
HETATM   16  O   UNL     1     -11.353   9.703  70.085  1.00  0.00    -0.244 OA 
BRANCH  15  17
HETATM   17  O   UNL     1     -11.260  10.292  67.869  1.00  0.00    -0.301 OA 
BRANCH  17  18
HETATM   18  C   UNL     1     -11.761  11.631  68.027  1.00  0.00    -0.281 C  
BRANCH  18  19
HETATM   19  C   UNL     1     -11.800  12.265  66.621  1.00  0.00    -0.289 C  
BRANCH  19  20
HETATM   20  N   UNL     1     -10.515  12.691  66.040  1.00  0.00    -0.263 NA 
BRANCH  20  21
HETATM   21  C   UNL     1     -10.630  13.174  64.656  1.00  0.00    -0.392 C  
HETATM   22  C   UNL     1     -10.155  12.219  63.566  1.00  0.00    -0.344 C  
ENDBRANCH  20  21
BRANCH  20  23
HETATM   23  C   UNL     1      -9.861  13.642  66.959  1.00  0.00    -0.251 C  
HETATM   24  C   UNL     1      -9.743  15.062  66.417  1.00  0.00    -0.305 C  
ENDBRANCH  20  23
ENDBRANCH  19  20
ENDBRANCH  18  19
ENDBRANCH  17  18
ENDBRANCH  15  17
ENDBRANCH  13  15
ENDBRANCH   5   6
ENDBRANCH   4   5
ENDBRANCH   3   4
ENDBRANCH   2   3
TORSDOF 11
ENDMDL
MODEL      257
REMARK 921   NORMALIZED FREE ENERGY PREDICTED BY IDOCK:   -2.46 KCAL/MOL
REMARK 922        TOTAL FREE ENERGY PREDICTED BY IDOCK:   -5.05 KCAL/MOL
REMARK 923 INTER-LIGAND FREE ENERGY PREDICTED BY IDOCK:   -4.28 KCAL/MOL
REMARK 924 INTRA-LIGAND FREE ENERGY PREDICTED BY IDOCK:   -0.76 KCAL/MOL
REMARK 927      BINDING AFFINITY PREDICTED BY RF-SCORE:    0.00 PKD
ROOT
HETATM    1  C   UNL     1      -7.140   3.717  64.097  1.00  0.00    -0.050 C  
HETATM    2  C   UNL     1      -6.088   4.449  64.912  1.00  0.00    -0.026 C  
ENDROOT
BRANCH   2   3
HETATM    3  C   UNL     1      -6.730   5.425  65.895  1.00  0.00    -0.056 C  
BRANCH   3   4
HETATM    4  C   UNL     1      -6.969   6.786  65.254  1.00  0.00    -0.055 C  
BRANCH   4   5
HETATM    5  O   UNL     1      -8.375   6.934  65.022  1.00  0.00    -0.127 OA 
BRANCH   5   6
HETATM    6  C   UNL     1      -9.096   7.382  66.105  1.00  0.00    -0.126 A  
HETATM    7  C   UNL     1     -10.161   6.568  66.536  1.00  0.00    -0.065 A  
HETATM    8  C   UNL     1     -10.873   6.934  67.684  1.00  0.00    -0.333 A  
HETATM    9  N   UNL     1     -10.374   5.301  65.963  1.00  0.00    -0.424 NA 
HETATM   10  H1  UNL     1     -11.145   4.712  66.275  1.00  0.00     0.000 HD 
HETATM   11  C   UNL     1     -10.635   8.160  68.310  1.00  0.00    -0.153 A  
HETATM   12  H2  UNL     1      -9.510   4.765  66.043  1.00  0.00     0.000 HD 
HETATM   13  C   UNL     1      -9.650   9.016  67.810  1.00  0.00    -0.178 A  
HETATM   14  C   UNL     1      -8.868   8.612  66.721  1.00  0.00    -0.152 A  
BRANCH  13  15
HETATM   15  C   UNL     1      -9.559  10.393  68.363  1.00  0.00    -0.148 C  
HETATM   16  O   UNL     1      -8.685  10.770  69.124  1.00  0.00    -0.157 OA 
BRANCH  15  17
HETATM   17  O   UNL     1     -10.679  11.080  68.031  1.00  0.00    -0.189 OA 
BRANCH  17  18
HETATM   18  C   UNL     1     -10.889  12.284  68.789  1.00  0.00    -0.229 C  
BRANCH  18  19
HETATM   19  C   UNL     1     -11.846  13.172  67.967  1.00  0.00    -0.358 C  
BRANCH  19  20
HETATM   20  N   UNL     1     -11.241  14.053  66.952  1.00  0.00    -0.304 NA 
BRANCH  20  21
HETATM   21  C   UNL     1      -9.996  14.692  67.401  1.00  0.00    -0.231 C  
HETATM   22  C   UNL     1      -8.704  14.153  66.798  1.00  0.00    -0.148 C  
ENDBRANCH  20  21
BRANCH  20  23
HETATM   23  C   UNL     1     -11.116  13.313  65.682  1.00  0.00    -0.282 C  
HETATM   24  C   UNL     1     -12.428  13.129  64.929  1.00  0.00    -0.490 C  
ENDBRANCH  20  23
ENDBRANCH  19  20
ENDBRANCH  18  19
ENDBRANCH  17  18
ENDBRANCH  15  17
ENDBRANCH  13  15
ENDBRANCH   5   6
ENDBRANCH   4   5
ENDBRANCH   3   4
ENDBRANCH   2   3
TORSDOF 11
ENDMDL
MODEL      258
REMARK 921   NORMALIZED FREE ENERGY PREDICTED BY IDOCK:   -2.42 KCAL/MOL
REMARK 922        TOTAL FREE ENERGY PREDICTED BY IDOCK:   -4.99 KCAL/MOL
REMARK 923 INTER-LIGAND FREE ENERGY PREDICTED BY IDOCK:   -4.36 KCAL/MOL
REMARK 924 INTRA-LIGAND FREE ENERGY PREDICTED BY IDOCK:   -0.62 KCAL/MOL
REMARK 927      BINDING AFFINITY PREDICTED BY RF-SCORE:    0.00 PKD
ROOT
HETATM    1  C   UNL     1      -5.778   3.455  64.677  1.00  0.00    -0.010 C  
HETATM    2  C   UNL     1      -5.129   4.383  65.690  1.00  0.00    -0.009 C  
ENDROOT
BRANCH   2   3
HETATM    3  C   UNL     1      -6.162   5.298  66.343  1.00  0.00    -0.035 C  
BRANCH   3   4
HETATM    4  C   UNL     1      -6.348   6.585  65.549  1.00  0.00    -0.038 C  
BRANCH   4   5
HETATM    5  O   UNL     1      -7.640   6.550  64.931  1.00  0.00    -0.083 OA 
BRANCH   5   6
HETATM    6  C   UNL     1      -8.696   6.433  65.804  1.00  0.00    -0.127 A  
HETATM    7  C   UNL     1      -9.643   5.430  65.522  1.00  0.00     0.063 A  
HETATM    8  C   UNL     1     -10.691   5.213  66.423  1.00  0.00    -0.275 A  
HETATM    9  N   UNL     1      -9.430   4.517  64.474  1.00  0.00    -0.281 NA 
HETATM   10  H1  UNL     1     -10.116   3.791  64.269  1.00  0.00     0.000 HD 
HETATM   11  C   UNL     1     -10.887   6.069  67.509  1.00  0.00    -0.393 A  
HETATM   12  H2  UNL     1      -8.525   4.069  64.620  1.00  0.00     0.000 HD 
HETATM   13  C   UNL     1     -10.006   7.133  67.723  1.00  0.00    -0.192 A  
HETATM   14  C   UNL     1      -8.899   7.297  66.880  1.00  0.00    -0.138 A  
BRANCH  13  15
HETATM   15  C   UNL     1     -10.352   8.146  68.755  1.00  0.00    -0.202 C  
HETATM   16  O   UNL     1     -10.835   7.879  69.842  1.00  0.00    -0.247 OA 
BRANCH  15  17
HETATM   17  O   UNL     1     -10.213   9.385  68.226  1.00  0.00    -0.180 OA 
BRANCH  17  18
HETATM   18  C   UNL     1     -11.355  10.241  68.400  1.00  0.00    -0.178 C  
BRANCH  18  19
HETATM   19  C   UNL     1     -11.056  11.150  69.610  1.00  0.00    -0.232 C  
BRANCH  19  20
HETATM   20  N   UNL     1     -12.155  12.003  70.098  1.00  0.00    -0.321 NA 
BRANCH  20  21
HETATM   21  C   UNL     1     -12.636  11.627  71.435  1.00  0.00    -0.286 C  
HETATM   22  C   UNL     1     -13.043  10.169  71.622  1.00  0.00    -0.550 C  
ENDBRANCH  20  21
BRANCH  20  23
HETATM   23  C   UNL     1     -11.760  13.418  69.973  1.00  0.00    -0.227 C  
HETATM   24  C   UNL     1     -12.721  14.400  70.633  1.00  0.00    -0.421 C  
ENDBRANCH  20  23
ENDBRANCH  19  20
ENDBRANCH  18  19
ENDBRANCH  17  18
ENDBRANCH  15  17
ENDBRANCH  13  15
ENDBRANCH   5   6
ENDBRANCH   4   5
ENDBRANCH   3   4
ENDBRANCH   2   3
TORSDOF 11
ENDMDL
MODEL      259
REMARK 921   NORMALIZED FREE ENERGY PREDICTED BY IDOCK:   -2.41 KCAL/MOL
REMARK 922        TOTAL FREE ENERGY PREDICTED BY IDOCK:   -4.97 KCAL/MOL
REMARK 923 INTER-LIGAND FREE ENERGY PREDICTED BY IDOCK:   -3.84 KCAL/MOL
REMARK 924 INTRA-LIGAND FREE ENERGY PREDICTED BY IDOCK:   -1.14 KCAL/MOL
REMARK 927      BINDING AFFINITY PREDICTED BY RF-SCORE:    0.00 PKD
ROOT
HETATM    1  C   UNL     1      -8.438   3.420  68.732  1.00  0.00    -0.104 C  
HETATM    2  C   UNL     1      -8.555   2.449  67.569  1.00  0.00    -0.122 C  
ENDROOT
BRANCH   2   3
HETATM    3  C   UNL     1      -8.565   3.187  66.232  1.00  0.00    -0.119 C  
BRANCH   3   4
HETATM    4  C   UNL     1      -9.863   3.959  66.030  1.00  0.00    -0.121 C  
BRANCH   4   5
HETATM    5  O   UNL     1      -9.572   5.142  65.277  1.00  0.00    -0.080 OA 
BRANCH   5   6
HETATM    6  C   UNL     1      -9.055   6.183  66.012  1.00  0.00    -0.121 A  
HETATM    7  C   UNL     1      -7.802   6.682  65.607  1.00  0.00    -0.105 A  
HETATM    8  C   UNL     1      -7.270   7.795  66.268  1.00  0.00    -0.074 A  
HETATM    9  N   UNL     1      -7.191   6.218  64.428  1.00  0.00    -0.057 NA 
HETATM   10  H1  UNL     1      -6.284   6.580  64.136  1.00  0.00     0.000 HD 
HETATM   11  C   UNL     1      -7.893   8.315  67.405  1.00  0.00    -0.106 A  
HETATM   12  H2  UNL     1      -7.848   6.344  63.658  1.00  0.00     0.000 HD 
HETATM   13  C   UNL     1      -9.081   7.744  67.869  1.00  0.00    -0.132 A  
HETATM   14  C   UNL     1      -9.670   6.692  67.155  1.00  0.00    -0.178 A  
BRANCH  13  15
HETATM   15  C   UNL     1      -9.610   8.177  69.189  1.00  0.00    -0.157 C  
HETATM   16  O   UNL     1      -9.899   7.416  70.095  1.00  0.00    -0.179 OA 
BRANCH  15  17
HETATM   17  O   UNL     1      -9.878   9.505  69.146  1.00  0.00    -0.165 OA 
BRANCH  17  18
HETATM   18  C   UNL     1     -11.007   9.860  68.330  1.00  0.00    -0.187 C  
BRANCH  18  19
HETATM   19  C   UNL     1     -10.578  11.067  67.469  1.00  0.00    -0.227 C  
BRANCH  19  20
HETATM   20  N   UNL     1     -11.098  11.128  66.092  1.00  0.00    -0.156 NA 
BRANCH  20  21
HETATM   21  C   UNL     1     -11.300  12.500  65.603  1.00  0.00    -0.335 C  
HETATM   22  C   UNL     1     -12.641  12.790  64.939  1.00  0.00    -0.541 C  
ENDBRANCH  20  21
BRANCH  20  23
HETATM   23  C   UNL     1     -10.252  10.294  65.218  1.00  0.00    -0.238 C  
HETATM   24  C   UNL     1      -9.746  11.003  63.967  1.00  0.00    -0.333 C  
ENDBRANCH  20  23
ENDBRANCH  19  20
ENDBRANCH  18  19
ENDBRANCH  17  18
ENDBRANCH  15  17
ENDBRANCH  13  15
ENDBRANCH   5   6
ENDBRANCH   4   5
ENDBRANCH   3   4
ENDBRANCH   2   3
TORSDOF 11
ENDMDL
MODEL      260
REMARK 921   NORMALIZED FREE ENERGY PREDICTED BY IDOCK:   -2.40 KCAL/MOL
REMARK 922        TOTAL FREE ENERGY PREDICTED BY IDOCK:   -4.96 KCAL/MOL
REMARK 923 INTER-LIGAND FREE ENERGY PREDICTED BY IDOCK:   -4.11 KCAL/MOL
REMARK 924 INTRA-LIGAND FREE ENERGY PREDICTED BY IDOCK:   -0.85 KCAL/MOL
REMARK 927      BINDING AFFINITY PREDICTED BY RF-SCORE:    0.00 PKD
ROOT
HETATM    1  C   UNL     1     -13.123  10.181  70.976  1.00  0.00    -0.458 C  
HETATM    2  C   UNL     1     -11.841   9.455  71.348  1.00  0.00    -0.447 C  
ENDROOT
BRANCH   2   3
HETATM    3  C   UNL     1     -10.673   9.913  70.476  1.00  0.00    -0.382 C  
BRANCH   3   4
HETATM    4  C   UNL     1     -10.334   8.879  69.409  1.00  0.00    -0.213 C  
BRANCH   4   5
HETATM    5  O   UNL     1     -10.907   9.308  68.168  1.00  0.00    -0.188 OA 
BRANCH   5   6
HETATM    6  C   UNL     1      -9.994   9.653  67.199  1.00  0.00    -0.194 A  
HETATM    7  C   UNL     1     -10.329  10.744  66.374  1.00  0.00    -0.248 A  
HETATM    8  C   UNL     1      -9.399  11.189  65.428  1.00  0.00    -0.243 A  
HETATM    9  N   UNL     1     -11.478  11.513  66.632  1.00  0.00    -0.444 NA 
HETATM   10  H1  UNL     1     -11.720  12.303  66.035  1.00  0.00     0.000 HD 
HETATM   11  C   UNL     1      -8.220  10.478  65.197  1.00  0.00    -0.134 A  
HETATM   12  H2  UNL     1     -11.429  11.845  67.596  1.00  0.00     0.000 HD 
HETATM   13  C   UNL     1      -7.944   9.330  65.943  1.00  0.00    -0.106 A  
HETATM   14  C   UNL     1      -8.823   8.934  66.959  1.00  0.00    -0.138 A  
BRANCH  13  15
HETATM   15  C   UNL     1      -6.792   8.479  65.540  1.00  0.00    -0.071 C  
HETATM   16  O   UNL     1      -5.812   8.278  66.235  1.00  0.00    -0.039 OA 
BRANCH  15  17
HETATM   17  O   UNL     1      -6.933   8.129  64.239  1.00  0.00    -0.067 OA 
BRANCH  17  18
HETATM   18  C   UNL     1      -8.075   7.300  63.963  1.00  0.00    -0.021 C  
BRANCH  18  19
HETATM   19  C   UNL     1      -7.756   5.895  64.517  1.00  0.00    -0.098 C  
BRANCH  19  20
HETATM   20  N   UNL     1      -8.700   5.328  65.496  1.00  0.00    -0.146 NA 
BRANCH  20  21
HETATM   21  C   UNL     1      -9.437   4.162  64.989  1.00  0.00    -0.173 C  
HETATM   22  C   UNL     1      -9.330   3.894  63.491  1.00  0.00    -0.131 C  
ENDBRANCH  20  21
BRANCH  20  23
HETATM   23  C   UNL     1      -7.993   5.090  66.768  1.00  0.00    -0.104 C  
HETATM   24  C   UNL     1      -7.395   3.695  66.904  1.00  0.00    -0.068 C  
ENDBRANCH  20  23
ENDBRANCH  19  20
ENDBRANCH  18  19
ENDBRANCH  17  18
ENDBRANCH  15  17
ENDBRANCH  13  15
ENDBRANCH   5   6
ENDBRANCH   4   5
ENDBRANCH   3   4
ENDBRANCH   2   3
TORSDOF 11
ENDMDL
MODEL      261
REMARK 921   NORMALIZED FREE ENERGY PREDICTED BY IDOCK:   -2.40 KCAL/MOL
REMARK 922        TOTAL FREE ENERGY PREDICTED BY IDOCK:   -4.96 KCAL/MOL
REMARK 923 INTER-LIGAND FREE ENERGY PREDICTED BY IDOCK:   -3.49 KCAL/MOL
REMARK 924 INTRA-LIGAND FREE ENERGY PREDICTED BY IDOCK:   -1.47 KCAL/MOL
REMARK 927      BINDING AFFINITY PREDICTED BY RF-SCORE:    0.00 PKD
ROOT
HETATM    1  C   UNL     1     -10.734   6.149  66.967  1.00  0.00    -0.423 C  
HETATM    2  C   UNL     1     -10.737   4.934  66.055  1.00  0.00    -0.247 C  
ENDROOT
BRANCH   2   3
HETATM    3  C   UNL     1      -9.540   4.029  66.335  1.00  0.00    -0.217 C  
BRANCH   3   4
HETATM    4  C   UNL     1      -8.236   4.671  65.878  1.00  0.00    -0.111 C  
BRANCH   4   5
HETATM    5  O   UNL     1      -7.296   4.598  66.956  1.00  0.00    -0.078 OA 
BRANCH   5   6
HETATM    6  C   UNL     1      -7.305   5.680  67.806  1.00  0.00    -0.077 A  
HETATM    7  C   UNL     1      -7.605   5.421  69.157  1.00  0.00    -0.085 A  
HETATM    8  C   UNL     1      -7.545   6.472  70.079  1.00  0.00    -0.100 A  
HETATM    9  N   UNL     1      -7.749   4.100  69.619  1.00  0.00    -0.053 NA 
HETATM   10  H1  UNL     1      -7.966   3.913  70.598  1.00  0.00     0.000 HD 
HETATM   11  C   UNL     1      -7.339   7.785  69.651  1.00  0.00    -0.088 A  
HETATM   12  H2  UNL     1      -6.905   3.583  69.375  1.00  0.00     0.000 HD 
HETATM   13  C   UNL     1      -7.152   8.052  68.292  1.00  0.00    -0.088 A  
HETATM   14  C   UNL     1      -7.113   6.993  67.376  1.00  0.00    -0.088 A  
BRANCH  13  15
HETATM   15  C   UNL     1      -7.142   9.469  67.841  1.00  0.00    -0.081 C  
HETATM   16  O   UNL     1      -6.560   9.867  66.847  1.00  0.00    -0.066 OA 
BRANCH  15  17
HETATM   17  O   UNL     1      -7.719  10.242  68.792  1.00  0.00    -0.085 OA 
BRANCH  17  18
HETATM   18  C   UNL     1      -8.774  11.093  68.313  1.00  0.00    -0.151 C  
BRANCH  18  19
HETATM   19  C   UNL     1      -9.908  10.169  67.821  1.00  0.00    -0.163 C  
BRANCH  19  20
HETATM   20  N   UNL     1     -11.087  10.028  68.696  1.00  0.00    -0.208 NA 
BRANCH  20  21
HETATM   21  C   UNL     1     -10.783   9.394  69.987  1.00  0.00    -0.239 C  
HETATM   22  C   UNL     1     -11.504   8.082  70.280  1.00  0.00    -0.078 C  
ENDBRANCH  20  21
BRANCH  20  23
HETATM   23  C   UNL     1     -11.765  11.333  68.807  1.00  0.00    -0.338 C  
HETATM   24  C   UNL     1     -11.947  11.827  70.237  1.00  0.00    -0.429 C  
ENDBRANCH  20  23
ENDBRANCH  19  20
ENDBRANCH  18  19
ENDBRANCH  17  18
ENDBRANCH  15  17
ENDBRANCH  13  15
ENDBRANCH   5   6
ENDBRANCH   4   5
ENDBRANCH   3   4
ENDBRANCH   2   3
TORSDOF 11
ENDMDL
MODEL      262
REMARK 921   NORMALIZED FREE ENERGY PREDICTED BY IDOCK:   -2.29 KCAL/MOL
REMARK 922        TOTAL FREE ENERGY PREDICTED BY IDOCK:   -4.78 KCAL/MOL
REMARK 923 INTER-LIGAND FREE ENERGY PREDICTED BY IDOCK:   -4.07 KCAL/MOL
REMARK 924 INTRA-LIGAND FREE ENERGY PREDICTED BY IDOCK:   -0.71 KCAL/MOL
REMARK 927      BINDING AFFINITY PREDICTED BY RF-SCORE:    0.00 PKD
ROOT
HETATM    1  C   UNL     1     -10.757   5.665  70.420  1.00  0.00    -0.352 C  
HETATM    2  C   UNL     1      -9.645   6.214  69.541  1.00  0.00    -0.165 C  
ENDROOT
BRANCH   2   3
HETATM    3  C   UNL     1      -8.563   5.164  69.300  1.00  0.00    -0.100 C  
BRANCH   3   4
HETATM    4  C   UNL     1      -7.261   5.802  68.832  1.00  0.00    -0.082 C  
BRANCH   4   5
HETATM    5  O   UNL     1      -6.987   6.932  69.669  1.00  0.00    -0.059 OA 
BRANCH   5   6
HETATM    6  C   UNL     1      -6.709   8.097  68.994  1.00  0.00    -0.048 A  
HETATM    7  C   UNL     1      -6.038   9.103  69.716  1.00  0.00    -0.038 A  
HETATM    8  C   UNL     1      -5.656  10.274  69.054  1.00  0.00    -0.037 A  
HETATM    9  N   UNL     1      -5.565   8.856  71.018  1.00  0.00    -0.034 NA 
HETATM   10  H1  UNL     1      -5.079   9.584  71.541  1.00  0.00     0.000 HD 
HETATM   11  C   UNL     1      -6.060  10.514  67.739  1.00  0.00    -0.048 A  
HETATM   12  H2  UNL     1      -4.966   8.031  70.988  1.00  0.00     0.000 HD 
HETATM   13  C   UNL     1      -6.822   9.560  67.061  1.00  0.00    -0.084 A  
HETATM   14  C   UNL     1      -7.125   8.343  67.685  1.00  0.00    -0.083 A  
BRANCH  13  15
HETATM   15  C   UNL     1      -7.412   9.924  65.745  1.00  0.00    -0.110 C  
HETATM   16  O   UNL     1      -6.821  10.544  64.878  1.00  0.00    -0.080 OA 
BRANCH  15  17
HETATM   17  O   UNL     1      -8.731   9.618  65.750  1.00  0.00    -0.137 OA 
BRANCH  17  18
HETATM   18  C   UNL     1      -9.566  10.560  65.054  1.00  0.00    -0.276 C  
BRANCH  18  19
HETATM   19  C   UNL     1      -9.616  11.839  65.915  1.00  0.00    -0.230 C  
BRANCH  19  20
HETATM   20  N   UNL     1     -10.603  12.866  65.535  1.00  0.00    -0.275 NA 
BRANCH  20  21
HETATM   21  C   UNL     1     -10.728  13.048  64.082  1.00  0.00    -0.402 C  
HETATM   22  C   UNL     1     -12.089  12.719  63.476  1.00  0.00    -0.642 C  
ENDBRANCH  20  21
BRANCH  20  23
HETATM   23  C   UNL     1     -11.878  12.588  66.222  1.00  0.00    -0.390 C  
HETATM   24  C   UNL     1     -11.908  13.005  67.688  1.00  0.00    -0.401 C  
ENDBRANCH  20  23
ENDBRANCH  19  20
ENDBRANCH  18  19
ENDBRANCH  17  18
ENDBRANCH  15  17
ENDBRANCH  13  15
ENDBRANCH   5   6
ENDBRANCH   4   5
ENDBRANCH   3   4
ENDBRANCH   2   3
TORSDOF 11
ENDMDL
MODEL      263
REMARK 921   NORMALIZED FREE ENERGY PREDICTED BY IDOCK:   -2.22 KCAL/MOL
REMARK 922        TOTAL FREE ENERGY PREDICTED BY IDOCK:   -4.65 KCAL/MOL
REMARK 923 INTER-LIGAND FREE ENERGY PREDICTED BY IDOCK:   -3.81 KCAL/MOL
REMARK 924 INTRA-LIGAND FREE ENERGY PREDICTED BY IDOCK:   -0.84 KCAL/MOL
REMARK 927      BINDING AFFINITY PREDICTED BY RF-SCORE:    0.00 PKD
ROOT
HETATM    1  C   UNL     1      -7.056   2.450  65.263  1.00  0.00    -0.057 C  
HETATM    2  C   UNL     1      -6.706   2.911  66.668  1.00  0.00    -0.041 C  
ENDROOT
BRANCH   2   3
HETATM    3  C   UNL     1      -7.964   3.228  67.475  1.00  0.00    -0.077 C  
BRANCH   3   4
HETATM    4  C   UNL     1      -9.068   3.791  66.589  1.00  0.00    -0.157 C  
BRANCH   4   5
HETATM    5  O   UNL     1     -10.033   4.437  67.428  1.00  0.00    -0.170 OA 
BRANCH   5   6
HETATM    6  C   UNL     1      -9.608   5.614  67.998  1.00  0.00    -0.120 A  
HETATM    7  C   UNL     1      -9.748   5.728  69.395  1.00  0.00    -0.155 A  
HETATM    8  C   UNL     1      -9.255   6.869  70.035  1.00  0.00    -0.155 A  
HETATM    9  N   UNL     1     -10.176   4.631  70.164  1.00  0.00    -0.209 NA 
HETATM   10  H1  UNL     1     -10.277   4.713  71.175  1.00  0.00     0.000 HD 
HETATM   11  C   UNL     1      -8.765   7.948  69.295  1.00  0.00    -0.138 A  
HETATM   12  H2  UNL     1      -9.557   3.844  69.969  1.00  0.00     0.000 HD 
HETATM   13  C   UNL     1      -8.731   7.874  67.900  1.00  0.00    -0.124 A  
HETATM   14  C   UNL     1      -9.132   6.696  67.258  1.00  0.00    -0.119 A  
BRANCH  13  15
HETATM   15  C   UNL     1      -8.403   9.104  67.131  1.00  0.00    -0.117 C  
HETATM   16  O   UNL     1      -7.638   9.970  67.518  1.00  0.00    -0.091 OA 
BRANCH  15  17
HETATM   17  O   UNL     1      -9.214   9.180  66.049  1.00  0.00    -0.181 OA 
BRANCH  17  18
HETATM   18  C   UNL     1     -10.459   9.860  66.281  1.00  0.00    -0.101 C  
BRANCH  18  19
HETATM   19  C   UNL     1     -10.322  11.271  65.672  1.00  0.00    -0.256 C  
BRANCH  19  20
HETATM   20  N   UNL     1     -10.724  12.410  66.517  1.00  0.00    -0.232 NA 
BRANCH  20  21
HETATM   21  C   UNL     1     -10.409  12.221  67.940  1.00  0.00    -0.208 C  
HETATM   22  C   UNL     1     -11.597  12.005  68.871  1.00  0.00    -0.377 C  
ENDBRANCH  20  21
BRANCH  20  23
HETATM   23  C   UNL     1     -10.184  13.655  65.938  1.00  0.00    -0.311 C  
HETATM   24  C   UNL     1     -10.852  14.087  64.639  1.00  0.00    -0.416 C  
ENDBRANCH  20  23
ENDBRANCH  19  20
ENDBRANCH  18  19
ENDBRANCH  17  18
ENDBRANCH  15  17
ENDBRANCH  13  15
ENDBRANCH   5   6
ENDBRANCH   4   5
ENDBRANCH   3   4
ENDBRANCH   2   3
TORSDOF 11
ENDMDL
MODEL      264
REMARK 921   NORMALIZED FREE ENERGY PREDICTED BY IDOCK:   -2.17 KCAL/MOL
REMARK 922        TOTAL FREE ENERGY PREDICTED BY IDOCK:   -4.57 KCAL/MOL
REMARK 923 INTER-LIGAND FREE ENERGY PREDICTED BY IDOCK:   -4.72 KCAL/MOL
REMARK 924 INTRA-LIGAND FREE ENERGY PREDICTED BY IDOCK:    0.15 KCAL/MOL
REMARK 927      BINDING AFFINITY PREDICTED BY RF-SCORE:    0.00 PKD
ROOT
HETATM    1  C   UNL     1     -11.363   9.894  71.356  1.00  0.00    -0.344 C  
HETATM    2  C   UNL     1     -10.470   9.627  70.156  1.00  0.00    -0.321 C  
ENDROOT
BRANCH   2   3
HETATM    3  C   UNL     1     -10.610  10.728  69.107  1.00  0.00    -0.254 C  
BRANCH   3   4
HETATM    4  C   UNL     1     -12.068  10.961  68.734  1.00  0.00    -0.054 C  
BRANCH   4   5
HETATM    5  O   UNL     1     -12.528  12.130  69.423  1.00  0.00    -0.013 OA 
BRANCH   5   6
HETATM    6  C   UNL     1     -11.639  13.179  69.438  1.00  0.00    -0.300 A  
HETATM    7  C   UNL     1     -11.786  14.119  70.476  1.00  0.00    -0.216 A  
HETATM    8  C   UNL     1     -10.856  15.158  70.587  1.00  0.00    -0.217 A  
HETATM    9  N   UNL     1     -12.712  13.903  71.513  1.00  0.00    -0.354 NA 
HETATM   10  H1  UNL     1     -12.818  14.584  72.265  1.00  0.00     0.000 HD 
HETATM   11  C   UNL     1      -9.885  15.355  69.603  1.00  0.00    -0.263 A  
HETATM   12  H2  UNL     1     -12.517  12.994  71.931  1.00  0.00     0.000 HD 
HETATM   13  C   UNL     1      -9.814  14.484  68.513  1.00  0.00    -0.231 A  
HETATM   14  C   UNL     1     -10.679  13.384  68.447  1.00  0.00    -0.271 A  
BRANCH  13  15
HETATM   15  C   UNL     1      -8.914  14.832  67.381  1.00  0.00    -0.192 C  
HETATM   16  O   UNL     1      -7.856  14.274  67.150  1.00  0.00    -0.170 OA 
BRANCH  15  17
HETATM   17  O   UNL     1      -9.370  15.959  66.783  1.00  0.00    -0.217 OA 
BRANCH  17  18
HETATM   18  C   UNL     1     -10.645  15.818  66.134  1.00  0.00    -0.313 C  
BRANCH  18  19
HETATM   19  C   UNL     1     -10.386  15.136  64.775  1.00  0.00    -0.135 C  
BRANCH  19  20
HETATM   20  N   UNL     1     -10.998  13.813  64.559  1.00  0.00    -0.399 NA 
BRANCH  20  21
HETATM   21  C   UNL     1     -10.020  12.716  64.521  1.00  0.00    -0.160 C  
HETATM   22  C   UNL     1     -10.576  11.309  64.708  1.00  0.00    -0.376 C  
ENDBRANCH  20  21
BRANCH  20  23
HETATM   23  C   UNL     1     -12.086  13.619  65.535  1.00  0.00    -0.411 C  
HETATM   24  C   UNL     1     -13.399  14.293  65.158  1.00  0.00     0.486 C  
ENDBRANCH  20  23
ENDBRANCH  19  20
ENDBRANCH  18  19
ENDBRANCH  17  18
ENDBRANCH  15  17
ENDBRANCH  13  15
ENDBRANCH   5   6
ENDBRANCH   4   5
ENDBRANCH   3   4
ENDBRANCH   2   3
TORSDOF 11
ENDMDL
MODEL      265
REMARK 921   NORMALIZED FREE ENERGY PREDICTED BY IDOCK:   -2.05 KCAL/MOL
REMARK 922        TOTAL FREE ENERGY PREDICTED BY IDOCK:   -4.39 KCAL/MOL
REMARK 923 INTER-LIGAND FREE ENERGY PREDICTED BY IDOCK:   -4.11 KCAL/MOL
REMARK 924 INTRA-LIGAND FREE ENERGY PREDICTED BY IDOCK:   -0.28 KCAL/MOL
REMARK 927      BINDING AFFINITY PREDICTED BY RF-SCORE:    0.00 PKD
ROOT
HETATM    1  C   UNL     1     -10.181  18.697  68.398  1.00  0.00    -0.415 C  
HETATM    2  C   UNL     1     -10.116  18.797  66.883  1.00  0.00    -0.398 C  
ENDROOT
BRANCH   2   3
HETATM    3  C   UNL     1     -10.528  17.482  66.224  1.00  0.00    -0.283 C  
BRANCH   3   4
HETATM    4  C   UNL     1      -9.499  16.386  66.475  1.00  0.00    -0.272 C  
BRANCH   4   5
HETATM    5  O   UNL     1      -9.863  15.693  67.674  1.00  0.00    -0.225 OA 
BRANCH   5   6
HETATM    6  C   UNL     1      -9.023  14.662  68.023  1.00  0.00    -0.174 A  
HETATM    7  C   UNL     1      -7.777  15.019  68.575  1.00  0.00    -0.121 A  
HETATM    8  C   UNL     1      -6.920  14.009  69.025  1.00  0.00    -0.112 A  
HETATM    9  N   UNL     1      -7.483  16.362  68.872  1.00  0.00    -0.202 NA 
HETATM   10  H1  UNL     1      -6.582  16.620  69.272  1.00  0.00     0.000 HD 
HETATM   11  C   UNL     1      -7.221  12.664  68.799  1.00  0.00    -0.083 A  
HETATM   12  H2  UNL     1      -8.217  16.722  69.482  1.00  0.00     0.000 HD 
HETATM   13  C   UNL     1      -8.409  12.318  68.150  1.00  0.00    -0.174 A  
HETATM   14  C   UNL     1      -9.317  13.319  67.784  1.00  0.00    -0.209 A  
BRANCH  13  15
HETATM   15  C   UNL     1      -8.607  10.903  67.737  1.00  0.00    -0.128 C  
HETATM   16  O   UNL     1      -8.239  10.442  66.671  1.00  0.00    -0.123 OA 
BRANCH  15  17
HETATM   17  O   UNL     1      -9.402  10.283  68.643  1.00  0.00    -0.148 OA 
BRANCH  17  18
HETATM   18  C   UNL     1     -10.359   9.373  68.075  1.00  0.00    -0.220 C  
BRANCH  18  19
HETATM   19  C   UNL     1      -9.945   7.953  68.516  1.00  0.00    -0.187 C  
BRANCH  19  20
HETATM   20  N   UNL     1      -8.650   7.814  69.206  1.00  0.00    -0.137 NA 
BRANCH  20  21
HETATM   21  C   UNL     1      -8.780   7.439  70.622  1.00  0.00    -0.142 C  
HETATM   22  C   UNL     1      -7.803   8.100  71.588  1.00  0.00    -0.130 C  
ENDBRANCH  20  21
BRANCH  20  23
HETATM   23  C   UNL     1      -7.778   6.921  68.422  1.00  0.00    -0.116 C  
HETATM   24  C   UNL     1      -8.158   6.800  66.951  1.00  0.00    -0.109 C  
ENDBRANCH  20  23
ENDBRANCH  19  20
ENDBRANCH  18  19
ENDBRANCH  17  18
ENDBRANCH  15  17
ENDBRANCH  13  15
ENDBRANCH   5   6
ENDBRANCH   4   5
ENDBRANCH   3   4
ENDBRANCH   2   3
TORSDOF 11
ENDMDL
MODEL      266
REMARK 921   NORMALIZED FREE ENERGY PREDICTED BY IDOCK:   -2.04 KCAL/MOL
REMARK 922        TOTAL FREE ENERGY PREDICTED BY IDOCK:   -4.36 KCAL/MOL
REMARK 923 INTER-LIGAND FREE ENERGY PREDICTED BY IDOCK:   -3.72 KCAL/MOL
REMARK 924 INTRA-LIGAND FREE ENERGY PREDICTED BY IDOCK:   -0.65 KCAL/MOL
REMARK 927      BINDING AFFINITY PREDICTED BY RF-SCORE:    0.00 PKD
ROOT
HETATM    1  C   UNL     1      -9.879   9.888  66.460  1.00  0.00    -0.274 C  
HETATM    2  C   UNL     1      -8.860   9.615  65.366  1.00  0.00    -0.204 C  
ENDROOT
BRANCH   2   3
HETATM    3  C   UNL     1      -7.435   9.825  65.874  1.00  0.00    -0.103 C  
BRANCH   3   4
HETATM    4  C   UNL     1      -6.479   8.790  65.296  1.00  0.00    -0.064 C  
BRANCH   4   5
HETATM    5  O   UNL     1      -5.781   8.167  66.381  1.00  0.00    -0.038 OA 
BRANCH   5   6
HETATM    6  C   UNL     1      -6.586   7.682  67.385  1.00  0.00    -0.063 A  
HETATM    7  C   UNL     1      -7.207   6.439  67.153  1.00  0.00    -0.075 A  
HETATM    8  C   UNL     1      -7.969   5.861  68.174  1.00  0.00    -0.109 A  
HETATM    9  N   UNL     1      -6.899   5.686  66.006  1.00  0.00    -0.056 NA 
HETATM   10  H1  UNL     1      -7.349   4.786  65.839  1.00  0.00     0.000 HD 
HETATM   11  C   UNL     1      -8.236   6.565  69.351  1.00  0.00    -0.119 A  
HETATM   12  H2  UNL     1      -5.889   5.547  65.978  1.00  0.00     0.000 HD 
HETATM   13  C   UNL     1      -7.708   7.846  69.530  1.00  0.00    -0.104 A  
HETATM   14  C   UNL     1      -6.865   8.391  68.553  1.00  0.00    -0.064 A  
BRANCH  13  15
HETATM   15  C   UNL     1      -8.174   8.651  70.690  1.00  0.00    -0.137 C  
HETATM   16  O   UNL     1      -8.008   9.853  70.800  1.00  0.00    -0.243 OA 
BRANCH  15  17
HETATM   17  O   UNL     1      -8.634   7.817  71.653  1.00  0.00    -0.112 OA 
BRANCH  17  18
HETATM   18  C   UNL     1      -9.670   8.374  72.481  1.00  0.00    -0.289 C  
BRANCH  18  19
HETATM   19  C   UNL     1     -10.197   7.230  73.372  1.00  0.00    -0.347 C  
BRANCH  19  20
HETATM   20  N   UNL     1     -11.176   6.307  72.771  1.00  0.00    -0.255 NA 
BRANCH  20  21
HETATM   21  C   UNL     1     -12.079   6.957  71.811  1.00  0.00    -0.346 C  
HETATM   22  C   UNL     1     -11.920   6.547  70.350  1.00  0.00    -0.295 C  
ENDBRANCH  20  21
BRANCH  20  23
HETATM   23  C   UNL     1     -10.465   5.133  72.232  1.00  0.00    -0.219 C  
HETATM   24  C   UNL     1     -10.073   4.098  73.280  1.00  0.00    -0.200 C  
ENDBRANCH  20  23
ENDBRANCH  19  20
ENDBRANCH  18  19
ENDBRANCH  17  18
ENDBRANCH  15  17
ENDBRANCH  13  15
ENDBRANCH   5   6
ENDBRANCH   4   5
ENDBRANCH   3   4
ENDBRANCH   2   3
TORSDOF 11
ENDMDL
MODEL      267
REMARK 921   NORMALIZED FREE ENERGY PREDICTED BY IDOCK:   -2.04 KCAL/MOL
REMARK 922        TOTAL FREE ENERGY PREDICTED BY IDOCK:   -4.36 KCAL/MOL
REMARK 923 INTER-LIGAND FREE ENERGY PREDICTED BY IDOCK:   -3.75 KCAL/MOL
REMARK 924 INTRA-LIGAND FREE ENERGY PREDICTED BY IDOCK:   -0.61 KCAL/MOL
REMARK 927      BINDING AFFINITY PREDICTED BY RF-SCORE:    0.00 PKD
ROOT
HETATM    1  C   UNL     1      -7.481   4.742  65.561  1.00  0.00    -0.081 C  
HETATM    2  C   UNL     1      -7.504   6.061  66.316  1.00  0.00    -0.086 C  
ENDROOT
BRANCH   2   3
HETATM    3  C   UNL     1      -7.414   7.247  65.359  1.00  0.00    -0.087 C  
BRANCH   3   4
HETATM    4  C   UNL     1      -8.624   8.163  65.491  1.00  0.00    -0.149 C  
BRANCH   4   5
HETATM    5  O   UNL     1      -8.760   8.534  66.868  1.00  0.00    -0.124 OA 
BRANCH   5   6
HETATM    6  C   UNL     1      -8.510   9.859  67.138  1.00  0.00    -0.121 A  
HETATM    7  C   UNL     1      -7.394  10.141  67.950  1.00  0.00    -0.087 A  
HETATM    8  C   UNL     1      -7.046  11.475  68.185  1.00  0.00    -0.076 A  
HETATM    9  N   UNL     1      -6.516   9.114  68.342  1.00  0.00    -0.054 NA 
HETATM   10  H1  UNL     1      -5.709   9.318  68.930  1.00  0.00     0.000 HD 
HETATM   11  C   UNL     1      -7.869  12.515  67.750  1.00  0.00    -0.151 A  
HETATM   12  H2  UNL     1      -6.187   8.638  67.503  1.00  0.00     0.000 HD 
HETATM   13  C   UNL     1      -9.036  12.226  67.038  1.00  0.00    -0.201 A  
HETATM   14  C   UNL     1      -9.340  10.897  66.715  1.00  0.00    -0.185 A  
BRANCH  13  15
HETATM   15  C   UNL     1      -9.997  13.329  66.769  1.00  0.00    -0.263 C  
HETATM   16  O   UNL     1     -11.054  13.188  66.180  1.00  0.00    -0.278 OA 
BRANCH  15  17
HETATM   17  O   UNL     1      -9.427  14.508  67.115  1.00  0.00    -0.216 OA 
BRANCH  17  18
HETATM   18  C   UNL     1     -10.016  15.142  68.263  1.00  0.00    -0.223 C  
BRANCH  18  19
HETATM   19  C   UNL     1      -9.752  16.656  68.126  1.00  0.00    -0.244 C  
BRANCH  19  20
HETATM   20  N   UNL     1      -8.398  17.135  68.457  1.00  0.00    -0.254 NA 
BRANCH  20  21
HETATM   21  C   UNL     1      -7.610  16.168  69.234  1.00  0.00    -0.218 C  
HETATM   22  C   UNL     1      -6.273  16.665  69.775  1.00  0.00    -0.209 C  
ENDBRANCH  20  21
BRANCH  20  23
HETATM   23  C   UNL     1      -7.736  17.604  67.225  1.00  0.00    -0.204 C  
HETATM   24  C   UNL     1      -7.351  19.078  67.239  1.00  0.00    -0.237 C  
ENDBRANCH  20  23
ENDBRANCH  19  20
ENDBRANCH  18  19
ENDBRANCH  17  18
ENDBRANCH  15  17
ENDBRANCH  13  15
ENDBRANCH   5   6
ENDBRANCH   4   5
ENDBRANCH   3   4
ENDBRANCH   2   3
TORSDOF 11
ENDMDL
MODEL      268
REMARK 921   NORMALIZED FREE ENERGY PREDICTED BY IDOCK:   -1.97 KCAL/MOL
REMARK 922        TOTAL FREE ENERGY PREDICTED BY IDOCK:   -4.25 KCAL/MOL
REMARK 923 INTER-LIGAND FREE ENERGY PREDICTED BY IDOCK:   -2.98 KCAL/MOL
REMARK 924 INTRA-LIGAND FREE ENERGY PREDICTED BY IDOCK:   -1.27 KCAL/MOL
REMARK 927      BINDING AFFINITY PREDICTED BY RF-SCORE:    0.00 PKD
ROOT
HETATM    1  C   UNL     1      -8.781   9.828  66.393  1.00  0.00    -0.144 C  
HETATM    2  C   UNL     1      -8.917   9.085  65.074  1.00  0.00    -0.198 C  
ENDROOT
BRANCH   2   3
HETATM    3  C   UNL     1      -8.182   7.747  65.116  1.00  0.00    -0.135 C  
BRANCH   3   4
HETATM    4  C   UNL     1      -9.064   6.643  65.685  1.00  0.00     0.110 C  
BRANCH   4   5
HETATM    5  O   UNL     1      -8.258   5.811  66.527  1.00  0.00    -0.105 OA 
BRANCH   5   6
HETATM    6  C   UNL     1      -8.054   6.298  67.797  1.00  0.00    -0.114 A  
HETATM    7  C   UNL     1      -6.820   5.992  68.402  1.00  0.00    -0.074 A  
HETATM    8  C   UNL     1      -6.529   6.532  69.659  1.00  0.00    -0.047 A  
HETATM    9  N   UNL     1      -5.808   5.338  67.676  1.00  0.00    -0.017 NA 
HETATM   10  H1  UNL     1      -4.915   5.117  68.114  1.00  0.00     0.000 HD 
HETATM   11  C   UNL     1      -7.497   7.241  70.373  1.00  0.00    -0.083 A  
HETATM   12  H2  UNL     1      -5.623   5.877  66.830  1.00  0.00     0.000 HD 
HETATM   13  C   UNL     1      -8.761   7.447  69.813  1.00  0.00    -0.141 A  
HETATM   14  C   UNL     1      -9.027   6.993  68.515  1.00  0.00    -0.122 A  
BRANCH  13  15
HETATM   15  C   UNL     1      -9.834   8.019  70.670  1.00  0.00    -0.184 C  
HETATM   16  O   UNL     1     -10.994   8.147  70.322  1.00  0.00    -0.248 OA 
BRANCH  15  17
HETATM   17  O   UNL     1      -9.279   8.524  71.798  1.00  0.00    -0.198 OA 
BRANCH  17  18
HETATM   18  C   UNL     1      -9.952   8.153  73.014  1.00  0.00    -0.233 C  
BRANCH  18  19
HETATM   19  C   UNL     1      -8.872   7.631  73.984  1.00  0.00    -0.252 C  
BRANCH  19  20
HETATM   20  N   UNL     1      -8.714   6.170  74.092  1.00  0.00    -0.119 NA 
BRANCH  20  21
HETATM   21  C   UNL     1      -9.577   5.420  73.167  1.00  0.00    -0.145 C  
HETATM   22  C   UNL     1     -10.804   4.753  73.780  1.00  0.00    -0.379 C  
ENDBRANCH  20  21
BRANCH  20  23
HETATM   23  C   UNL     1      -7.283   5.830  73.993  1.00  0.00    -0.082 C  
HETATM   24  C   UNL     1      -6.972   4.684  73.037  1.00  0.00    -0.072 C  
ENDBRANCH  20  23
ENDBRANCH  19  20
ENDBRANCH  18  19
ENDBRANCH  17  18
ENDBRANCH  15  17
ENDBRANCH  13  15
ENDBRANCH   5   6
ENDBRANCH   4   5
ENDBRANCH   3   4
ENDBRANCH   2   3
TORSDOF 11
ENDMDL
MODEL      269
REMARK 921   NORMALIZED FREE ENERGY PREDICTED BY IDOCK:   -1.85 KCAL/MOL
REMARK 922        TOTAL FREE ENERGY PREDICTED BY IDOCK:   -4.05 KCAL/MOL
REMARK 923 INTER-LIGAND FREE ENERGY PREDICTED BY IDOCK:   -3.12 KCAL/MOL
REMARK 924 INTRA-LIGAND FREE ENERGY PREDICTED BY IDOCK:   -0.94 KCAL/MOL
REMARK 927      BINDING AFFINITY PREDICTED BY RF-SCORE:    0.00 PKD
ROOT
HETATM    1  C   UNL     1     -12.143  13.197  63.213  1.00  0.00    -0.460 C  
HETATM    2  C   UNL     1     -12.254  13.701  64.642  1.00  0.00    -0.448 C  
ENDROOT
BRANCH   2   3
HETATM    3  C   UNL     1     -12.767  12.607  65.576  1.00  0.00     0.019 C  
BRANCH   3   4
HETATM    4  C   UNL     1     -11.886  12.471  66.811  1.00  0.00    -0.346 C  
BRANCH   4   5
HETATM    5  O   UNL     1     -11.299  13.747  67.089  1.00  0.00    -0.301 OA 
BRANCH   5   6
HETATM    6  C   UNL     1      -9.944  13.721  67.324  1.00  0.00    -0.239 A  
HETATM    7  C   UNL     1      -9.401  14.819  68.019  1.00  0.00    -0.196 A  
HETATM    8  C   UNL     1      -8.043  14.803  68.358  1.00  0.00    -0.144 A  
HETATM    9  N   UNL     1     -10.238  15.813  68.556  1.00  0.00    -0.212 NA 
HETATM   10  H1  UNL     1      -9.845  16.608  69.059  1.00  0.00     0.000 HD 
HETATM   11  C   UNL     1      -7.203  13.791  67.889  1.00  0.00    -0.156 A  
HETATM   12  H2  UNL     1     -10.923  15.360  69.160  1.00  0.00     0.000 HD 
HETATM   13  C   UNL     1      -7.727  12.760  67.105  1.00  0.00    -0.072 A  
HETATM   14  C   UNL     1      -9.102  12.718  66.843  1.00  0.00    -0.221 A  
BRANCH  13  15
HETATM   15  C   UNL     1      -6.783  11.815  66.449  1.00  0.00     0.238 C  
HETATM   16  O   UNL     1      -5.678  12.124  66.040  1.00  0.00     0.303 OA 
BRANCH  15  17
HETATM   17  O   UNL     1      -7.416  10.638  66.230  1.00  0.00    -0.126 OA 
BRANCH  17  18
HETATM   18  C   UNL     1      -6.565   9.583  65.749  1.00  0.00    -0.075 C  
BRANCH  18  19
HETATM   19  C   UNL     1      -7.482   8.526  65.099  1.00  0.00    -0.091 C  
BRANCH  19  20
HETATM   20  N   UNL     1      -8.120   7.546  65.996  1.00  0.00    -0.116 NA 
BRANCH  20  21
HETATM   21  C   UNL     1      -9.576   7.713  66.105  1.00  0.00    -0.006 C  
HETATM   22  C   UNL     1     -10.066   8.693  67.166  1.00  0.00    -0.329 C  
ENDBRANCH  20  21
BRANCH  20  23
HETATM   23  C   UNL     1      -7.695   6.188  65.608  1.00  0.00    -0.092 C  
HETATM   24  C   UNL     1      -6.471   5.673  66.356  1.00  0.00    -0.044 C  
ENDBRANCH  20  23
ENDBRANCH  19  20
ENDBRANCH  18  19
ENDBRANCH  17  18
ENDBRANCH  15  17
ENDBRANCH  13  15
ENDBRANCH   5   6
ENDBRANCH   4   5
ENDBRANCH   3   4
ENDBRANCH   2   3
TORSDOF 11
ENDMDL
MODEL      270
REMARK 921   NORMALIZED FREE ENERGY PREDICTED BY IDOCK:   -1.77 KCAL/MOL
REMARK 922        TOTAL FREE ENERGY PREDICTED BY IDOCK:   -3.92 KCAL/MOL
REMARK 923 INTER-LIGAND FREE ENERGY PREDICTED BY IDOCK:   -4.06 KCAL/MOL
REMARK 924 INTRA-LIGAND FREE ENERGY PREDICTED BY IDOCK:    0.13 KCAL/MOL
REMARK 927      BINDING AFFINITY PREDICTED BY RF-SCORE:    0.00 PKD
ROOT
HETATM    1  C   UNL     1     -10.233  18.471  68.669  1.00  0.00    -0.363 C  
HETATM    2  C   UNL     1      -9.848  19.105  67.342  1.00  0.00    -0.404 C  
ENDROOT
BRANCH   2   3
HETATM    3  C   UNL     1      -9.791  18.063  66.228  1.00  0.00    -0.310 C  
BRANCH   3   4
HETATM    4  C   UNL     1      -8.744  16.995  66.515  1.00  0.00    -0.263 C  
BRANCH   4   5
HETATM    5  O   UNL     1      -9.334  16.001  67.360  1.00  0.00    -0.214 OA 
BRANCH   5   6
HETATM    6  C   UNL     1      -8.494  14.972  67.718  1.00  0.00    -0.156 A  
HETATM    7  C   UNL     1      -7.491  15.272  68.659  1.00  0.00    -0.126 A  
HETATM    8  C   UNL     1      -6.663  14.243  69.120  1.00  0.00    -0.118 A  
HETATM    9  N   UNL     1      -7.453  16.528  69.291  1.00  0.00    -0.226 NA 
HETATM   10  H1  UNL     1      -6.726  16.745  69.973  1.00  0.00     0.000 HD 
HETATM   11  C   UNL     1      -6.726  12.968  68.551  1.00  0.00    -0.092 A  
HETATM   12  H2  UNL     1      -8.359  16.693  69.728  1.00  0.00     0.000 HD 
HETATM   13  C   UNL     1      -7.650  12.705  67.537  1.00  0.00    -0.160 A  
HETATM   14  C   UNL     1      -8.547  13.704  67.140  1.00  0.00    -0.203 A  
BRANCH  13  15
HETATM   15  C   UNL     1      -7.557  11.411  66.809  1.00  0.00    -0.143 C  
HETATM   16  O   UNL     1      -6.659  11.121  66.039  1.00  0.00    -0.080 OA 
BRANCH  15  17
HETATM   17  O   UNL     1      -8.700  10.709  67.004  1.00  0.00    -0.127 OA 
BRANCH  17  18
HETATM   18  C   UNL     1      -9.596  10.702  65.880  1.00  0.00    -0.205 C  
BRANCH  18  19
HETATM   19  C   UNL     1      -9.963   9.228  65.606  1.00  0.00    -0.060 C  
BRANCH  19  20
HETATM   20  N   UNL     1      -9.321   8.208  66.454  1.00  0.00    -0.200 NA 
BRANCH  20  21
HETATM   21  C   UNL     1     -10.231   7.126  66.856  1.00  0.00    -0.260 C  
HETATM   22  C   UNL     1     -10.021   6.550  68.253  1.00  0.00    -0.145 C  
ENDBRANCH  20  21
BRANCH  20  23
HETATM   23  C   UNL     1      -8.083   7.745  65.800  1.00  0.00    -0.125 C  
HETATM   24  C   UNL     1      -8.114   7.807  64.278  1.00  0.00    -0.079 C  
ENDBRANCH  20  23
ENDBRANCH  19  20
ENDBRANCH  18  19
ENDBRANCH  17  18
ENDBRANCH  15  17
ENDBRANCH  13  15
ENDBRANCH   5   6
ENDBRANCH   4   5
ENDBRANCH   3   4
ENDBRANCH   2   3
TORSDOF 11
ENDMDL
MODEL      271
REMARK 921   NORMALIZED FREE ENERGY PREDICTED BY IDOCK:   -1.48 KCAL/MOL
REMARK 922        TOTAL FREE ENERGY PREDICTED BY IDOCK:   -3.44 KCAL/MOL
REMARK 923 INTER-LIGAND FREE ENERGY PREDICTED BY IDOCK:   -4.39 KCAL/MOL
REMARK 924 INTRA-LIGAND FREE ENERGY PREDICTED BY IDOCK:    0.96 KCAL/MOL
REMARK 927      BINDING AFFINITY PREDICTED BY RF-SCORE:    0.00 PKD
ROOT
HETATM    1  C   UNL     1      -9.596  17.539  68.823  1.00  0.00    -0.277 C  
HETATM    2  C   UNL     1      -8.930  18.612  67.977  1.00  0.00    -0.324 C  
ENDROOT
BRANCH   2   3
HETATM    3  C   UNL     1      -7.844  18.016  67.084  1.00  0.00    -0.231 C  
BRANCH   3   4
HETATM    4  C   UNL     1      -7.120  16.868  67.775  1.00  0.00    -0.141 C  
BRANCH   4   5
HETATM    5  O   UNL     1      -7.644  15.635  67.270  1.00  0.00    -0.175 OA 
BRANCH   5   6
HETATM    6  C   UNL     1      -7.232  14.511  67.947  1.00  0.00    -0.158 A  
HETATM    7  C   UNL     1      -6.557  14.717  69.165  1.00  0.00    -0.112 A  
HETATM    8  C   UNL     1      -6.191  13.607  69.935  1.00  0.00    -0.118 A  
HETATM    9  N   UNL     1      -6.441  16.008  69.711  1.00  0.00    -0.189 NA 
HETATM   10  H1  UNL     1      -5.952  16.158  70.593  1.00  0.00     0.000 HD 
HETATM   11  C   UNL     1      -6.355  12.311  69.441  1.00  0.00    -0.118 A  
HETATM   12  H2  UNL     1      -7.377  16.405  69.795  1.00  0.00     0.000 HD 
HETATM   13  C   UNL     1      -6.925  12.115  68.181  1.00  0.00    -0.082 A  
HETATM   14  C   UNL     1      -7.383  13.217  67.447  1.00  0.00    -0.125 A  
BRANCH  13  15
HETATM   15  C   UNL     1      -6.899  10.749  67.593  1.00  0.00    -0.073 C  
HETATM   16  O   UNL     1      -5.964   9.975  67.701  1.00  0.00    -0.052 OA 
BRANCH  15  17
HETATM   17  O   UNL     1      -7.979  10.590  66.791  1.00  0.00    -0.114 OA 
BRANCH  17  18
HETATM   18  C   UNL     1      -9.163  10.133  67.467  1.00  0.00    -0.137 C  
BRANCH  18  19
HETATM   19  C   UNL     1     -10.361  10.852  66.812  1.00  0.00    -0.241 C  
BRANCH  19  20
HETATM   20  N   UNL     1     -10.088  11.640  65.596  1.00  0.00    -0.230 NA 
BRANCH  20  21
HETATM   21  C   UNL     1     -10.512  10.971  64.358  1.00  0.00    -0.354 C  
HETATM   22  C   UNL     1      -9.832  11.433  63.074  1.00  0.00    -0.373 C  
ENDBRANCH  20  21
BRANCH  20  23
HETATM   23  C   UNL     1     -10.638  12.998  65.768  1.00  0.00    -0.277 C  
HETATM   24  C   UNL     1     -12.130  13.039  66.074  1.00  0.00    -0.493 C  
ENDBRANCH  20  23
ENDBRANCH  19  20
ENDBRANCH  18  19
ENDBRANCH  17  18
ENDBRANCH  15  17
ENDBRANCH  13  15
ENDBRANCH   5   6
ENDBRANCH   4   5
ENDBRANCH   3   4
ENDBRANCH   2   3
TORSDOF 11
ENDMDL
MODEL      272
REMARK 921   NORMALIZED FREE ENERGY PREDICTED BY IDOCK:   -0.96 KCAL/MOL
REMARK 922        TOTAL FREE ENERGY PREDICTED BY IDOCK:   -2.59 KCAL/MOL
REMARK 923 INTER-LIGAND FREE ENERGY PREDICTED BY IDOCK:   -3.78 KCAL/MOL
REMARK 924 INTRA-LIGAND FREE ENERGY PREDICTED BY IDOCK:    1.19 KCAL/MOL
REMARK 927      BINDING AFFINITY PREDICTED BY RF-SCORE:    0.00 PKD
ROOT
HETATM    1  C   UNL     1      -9.273  19.816  70.188  1.00  0.00     0.975 C  
HETATM    2  C   UNL     1      -9.200  19.553  68.694  1.00  0.00    -0.410 C  
ENDROOT
BRANCH   2   3
HETATM    3  C   UNL     1      -8.870  18.090  68.406  1.00  0.00    -0.300 C  
BRANCH   3   4
HETATM    4  C   UNL     1     -10.022  17.386  67.702  1.00  0.00    -0.300 C  
BRANCH   4   5
HETATM    5  O   UNL     1      -9.529  16.163  67.142  1.00  0.00    -0.219 OA 
BRANCH   5   6
HETATM    6  C   UNL     1     -10.164  15.026  67.585  1.00  0.00    -0.236 A  
HETATM    7  C   UNL     1     -11.423  15.200  68.191  1.00  0.00    -0.342 A  
HETATM    8  C   UNL     1     -12.149  14.070  68.582  1.00  0.00    -0.332 A  
HETATM    9  N   UNL     1     -12.042  16.462  68.209  1.00  0.00     0.195 NA 
HETATM   10  H1  UNL     1     -12.954  16.588  68.647  1.00  0.00     0.000 HD 
HETATM   11  C   UNL     1     -11.579  12.797  68.514  1.00  0.00    -0.358 A  
HETATM   12  H2  UNL     1     -12.101  16.803  67.249  1.00  0.00     0.000 HD 
HETATM   13  C   UNL     1     -10.284  12.641  68.015  1.00  0.00    -0.230 A  
HETATM   14  C   UNL     1      -9.589  13.757  67.530  1.00  0.00    -0.219 A  
BRANCH  13  15
HETATM   15  C   UNL     1      -9.626  11.314  68.145  1.00  0.00    -0.186 C  
HETATM   16  O   UNL     1      -8.872  10.838  67.314  1.00  0.00    -0.133 OA 
BRANCH  15  17
HETATM   17  O   UNL     1     -10.135  10.670  69.222  1.00  0.00    -0.217 OA 
BRANCH  17  18
HETATM   18  C   UNL     1     -10.062   9.235  69.151  1.00  0.00    -0.199 C  
BRANCH  18  19
HETATM   19  C   UNL     1      -9.299   8.761  70.406  1.00  0.00    -0.180 C  
BRANCH  19  20
HETATM   20  N   UNL     1      -9.428   7.340  70.774  1.00  0.00    -0.164 NA 
BRANCH  20  21
HETATM   21  C   UNL     1      -9.433   7.110  72.226  1.00  0.00    -0.138 C  
HETATM   22  C   UNL     1      -9.006   5.722  72.691  1.00  0.00    -0.131 C  
ENDBRANCH  20  21
BRANCH  20  23
HETATM   23  C   UNL     1     -10.585   6.760  70.067  1.00  0.00    -0.220 C  
HETATM   24  C   UNL     1     -11.851   6.659  70.908  1.00  0.00    -0.434 C  
ENDBRANCH  20  23
ENDBRANCH  19  20
ENDBRANCH  18  19
ENDBRANCH  17  18
ENDBRANCH  15  17
ENDBRANCH  13  15
ENDBRANCH   5   6
ENDBRANCH   4   5
ENDBRANCH   3   4
ENDBRANCH   2   3
TORSDOF 11
ENDMDL
MODEL      273
REMARK 921   NORMALIZED FREE ENERGY PREDICTED BY IDOCK:    0.62 KCAL/MOL
REMARK 922        TOTAL FREE ENERGY PREDICTED BY IDOCK:    0.02 KCAL/MOL
REMARK 923 INTER-LIGAND FREE ENERGY PREDICTED BY IDOCK:   -0.77 KCAL/MOL
REMARK 924 INTRA-LIGAND FREE ENERGY PREDICTED BY IDOCK:    0.78 KCAL/MOL
REMARK 927      BINDING AFFINITY PREDICTED BY RF-SCORE:    0.00 PKD
ROOT
HETATM    1  C   UNL     1     -10.791   7.918  66.819  1.00  0.00     0.105 C  
HETATM    2  C   UNL     1     -11.469   6.906  67.728  1.00  0.00     0.278 C  
ENDROOT
BRANCH   2   3
HETATM    3  C   UNL     1     -10.621   6.620  68.965  1.00  0.00    -0.273 C  
BRANCH   3   4
HETATM    4  C   UNL     1      -9.250   6.074  68.587  1.00  0.00    -0.115 C  
BRANCH   4   5
HETATM    5  O   UNL     1      -8.273   6.677  69.443  1.00  0.00    -0.120 OA 
BRANCH   5   6
HETATM    6  C   UNL     1      -7.345   5.807  69.965  1.00  0.00    -0.074 A  
HETATM    7  C   UNL     1      -6.141   5.661  69.250  1.00  0.00    -0.024 A  
HETATM    8  C   UNL     1      -5.129   4.853  69.781  1.00  0.00     0.000 A  
HETATM    9  N   UNL     1      -5.865   6.475  68.136  1.00  0.00    -0.015 NA 
HETATM   10  H1  UNL     1      -4.993   6.369  67.618  1.00  0.00     0.000 HD 
HETATM   11  C   UNL     1      -5.358   4.084  70.924  1.00  0.00    -0.004 A  
HETATM   12  H2  UNL     1      -5.948   7.449  68.425  1.00  0.00     0.000 HD 
HETATM   13  C   UNL     1      -6.595   4.147  71.569  1.00  0.00    -0.026 A  
HETATM   14  C   UNL     1      -7.578   5.028  71.099  1.00  0.00    -0.086 A  
BRANCH  13  15
HETATM   15  C   UNL     1      -6.884   3.171  72.653  1.00  0.00    -0.027 C  
HETATM   16  O   UNL     1      -6.034   2.508  73.222  1.00  0.00    -0.007 OA 
BRANCH  15  17
HETATM   17  O   UNL     1      -8.225   3.017  72.767  1.00  0.00    -0.072 OA 
BRANCH  17  18
HETATM   18  C   UNL     1      -8.816   3.723  73.872  1.00  0.00    -0.088 C  
BRANCH  18  19
HETATM   19  C   UNL     1      -8.984   5.191  73.429  1.00  0.00    -0.119 C  
BRANCH  19  20
HETATM   20  N   UNL     1     -10.314   5.598  72.942  1.00  0.00    -0.186 NA 
BRANCH  20  21
HETATM   21  C   UNL     1     -11.395   4.700  73.374  1.00  0.00    -0.305 C  
HETATM   22  C   UNL     1     -12.815   5.136  73.028  1.00  0.00     1.075 C  
ENDBRANCH  20  21
BRANCH  20  23
HETATM   23  C   UNL     1     -10.538   7.017  73.276  1.00  0.00    -0.344 C  
HETATM   24  C   UNL     1     -10.945   7.886  72.092  1.00  0.00    -0.339 C  
ENDBRANCH  20  23
ENDBRANCH  19  20
ENDBRANCH  18  19
ENDBRANCH  17  18
ENDBRANCH  15  17
ENDBRANCH  13  15
ENDBRANCH   5   6
ENDBRANCH   4   5
ENDBRANCH   3   4
ENDBRANCH   2   3
TORSDOF 11
ENDMDL
