MODEL        1
REMARK 921   NORMALIZED FREE ENERGY PREDICTED BY IDOCK:   -6.36 KCAL/MOL
REMARK 922        TOTAL FREE ENERGY PREDICTED BY IDOCK:  -10.21 KCAL/MOL
REMARK 923 INTER-LIGAND FREE ENERGY PREDICTED BY IDOCK:   -8.97 KCAL/MOL
REMARK 924 INTRA-LIGAND FREE ENERGY PREDICTED BY IDOCK:   -1.24 KCAL/MOL
REMARK 927      BINDING AFFINITY PREDICTED BY RF-SCORE:    0.00 PKD
ROOT
HETATM    1  C   UNL     1     -10.313   8.134  72.558  1.00  0.00    -0.401 C  
HETATM    2  C   UNL     1     -10.786   9.119  71.491  1.00  0.00    -0.366 C  
ENDROOT
BRANCH   2   3
HETATM    3  N   UNL     1     -12.206   8.985  71.122  1.00  0.00    -0.295 NA 
BRANCH   3   4
HETATM    4  C   UNL     1     -12.776   7.659  71.411  1.00  0.00    -0.327 C  
HETATM    5  C   UNL     1     -14.293   7.581  71.547  1.00  0.00    -0.603 C  
ENDBRANCH   3   4
BRANCH   3   6
HETATM    6  C   UNL     1     -12.967  10.105  71.705  1.00  0.00    -0.462 C  
BRANCH   6   7
HETATM    7  C   UNL     1     -12.600  11.439  71.077  1.00  0.00    -0.487 C  
HETATM    8  C   UNL     1     -12.284  12.584  70.538  1.00  0.00    -0.382 C  
BRANCH   8   9
HETATM    9  C   UNL     1     -11.913  13.876  69.957  1.00  0.00    -0.336 C  
BRANCH   9  10
HETATM   10  O   UNL     1     -11.775  13.769  68.533  1.00  0.00    -0.313 OA 
BRANCH  10  11
HETATM   11  C   UNL     1     -10.548  13.335  68.106  1.00  0.00    -0.249 C  
HETATM   12  O   UNL     1      -9.478  13.757  68.530  1.00  0.00    -0.210 OA 
HETATM   13  C   UNL     1     -10.721  12.264  66.969  1.00  0.00    -0.231 C  
HETATM   14  C   UNL     1     -10.065  10.946  67.434  1.00  0.00    -0.223 A  
HETATM   15  C   UNL     1     -10.075  12.819  65.648  1.00  0.00    -0.281 C  
HETATM   16  O   UNL     1     -12.114  12.007  66.739  1.00  0.00    -0.613 OA 
HETATM   17  H   UNL     1     -12.219  11.360  66.052  1.00  0.00     0.000 HD 
HETATM   18  C   UNL     1     -10.800   9.749  67.526  1.00  0.00    -0.286 A  
HETATM   19  C   UNL     1     -10.135  11.849  64.446  1.00  0.00    -0.310 C  
HETATM   20  C   UNL     1     -10.211   8.567  67.981  1.00  0.00    -0.264 A  
HETATM   21  C   UNL     1     -11.499  11.765  63.763  1.00  0.00    -0.510 C  
HETATM   22  C   UNL     1     -12.041  13.136  63.376  1.00  0.00    -0.558 C  
HETATM   23  C   UNL     1      -8.871   8.553  68.358  1.00  0.00    -0.139 A  
HETATM   24  C   UNL     1      -8.118   9.720  68.267  1.00  0.00    -0.104 A  
HETATM   25  C   UNL     1     -11.998  14.139  64.522  1.00  0.00    -0.476 C  
HETATM   26  C   UNL     1     -10.628  14.191  65.194  1.00  0.00    -0.414 C  
HETATM   27  C   UNL     1      -8.707  10.900  67.803  1.00  0.00    -0.129 A  
ENDBRANCH  10  11
ENDBRANCH   9  10
ENDBRANCH   8   9
ENDBRANCH   6   7
ENDBRANCH   3   6
ENDBRANCH   2   3
TORSDOF 7
ENDMDL
MODEL        2
REMARK 921   NORMALIZED FREE ENERGY PREDICTED BY IDOCK:   -6.15 KCAL/MOL
REMARK 922        TOTAL FREE ENERGY PREDICTED BY IDOCK:   -9.91 KCAL/MOL
REMARK 923 INTER-LIGAND FREE ENERGY PREDICTED BY IDOCK:   -9.44 KCAL/MOL
REMARK 924 INTRA-LIGAND FREE ENERGY PREDICTED BY IDOCK:   -0.48 KCAL/MOL
REMARK 927      BINDING AFFINITY PREDICTED BY RF-SCORE:    0.00 PKD
ROOT
HETATM    1  C   UNL     1     -14.321   7.429  71.456  1.00  0.00    -0.594 C  
HETATM    2  C   UNL     1     -12.839   7.439  71.823  1.00  0.00    -0.329 C  
ENDROOT
BRANCH   2   3
HETATM    3  N   UNL     1     -12.330   8.744  72.280  1.00  0.00    -0.384 NA 
BRANCH   3   4
HETATM    4  C   UNL     1     -11.074   9.155  71.632  1.00  0.00    -0.375 C  
HETATM    5  C   UNL     1      -9.792   8.520  72.159  1.00  0.00    -0.388 C  
ENDBRANCH   3   4
BRANCH   3   6
HETATM    6  C   UNL     1     -13.408   9.744  72.189  1.00  0.00    -0.431 C  
BRANCH   6   7
HETATM    7  C   UNL     1     -12.932  11.050  71.576  1.00  0.00    -0.553 C  
HETATM    8  C   UNL     1     -12.523  12.171  71.049  1.00  0.00    -0.369 C  
BRANCH   8   9
HETATM    9  C   UNL     1     -12.049  13.414  70.437  1.00  0.00    -0.333 C  
BRANCH   9  10
HETATM   10  O   UNL     1     -12.269  13.396  69.019  1.00  0.00    -0.295 OA 
BRANCH  10  11
HETATM   11  C   UNL     1     -11.163  13.100  68.269  1.00  0.00    -0.274 C  
HETATM   12  O   UNL     1     -10.375  12.194  68.523  1.00  0.00    -0.220 OA 
HETATM   13  C   UNL     1     -11.030  14.117  67.078  1.00  0.00    -0.300 C  
HETATM   14  C   UNL     1     -11.075  13.328  65.753  1.00  0.00    -0.296 A  
HETATM   15  C   UNL     1      -9.693  14.924  67.248  1.00  0.00    -0.228 C  
HETATM   16  O   UNL     1     -12.136  15.033  67.085  1.00  0.00    -0.333 OA 
HETATM   17  H   UNL     1     -12.056  15.647  66.366  1.00  0.00     0.000 HD 
HETATM   18  C   UNL     1     -12.050  13.589  64.772  1.00  0.00    -0.442 A  
HETATM   19  C   UNL     1      -9.408  15.942  66.119  1.00  0.00    -0.385 C  
HETATM   20  C   UNL     1     -12.109  12.847  63.589  1.00  0.00    -0.611 A  
HETATM   21  C   UNL     1     -10.218  17.234  66.208  1.00  0.00    -0.347 C  
HETATM   22  C   UNL     1     -10.104  17.899  67.575  1.00  0.00    -0.343 C  
HETATM   23  C   UNL     1     -11.194  11.825  63.359  1.00  0.00    -0.440 A  
HETATM   24  C   UNL     1     -10.211  11.552  64.307  1.00  0.00    -0.361 A  
HETATM   25  C   UNL     1     -10.365  16.940  68.729  1.00  0.00    -0.324 C  
HETATM   26  C   UNL     1      -9.553  15.653  68.607  1.00  0.00    -0.202 C  
HETATM   27  C   UNL     1     -10.149  12.300  65.486  1.00  0.00    -0.279 A  
ENDBRANCH  10  11
ENDBRANCH   9  10
ENDBRANCH   8   9
ENDBRANCH   6   7
ENDBRANCH   3   6
ENDBRANCH   2   3
TORSDOF 7
ENDMDL
MODEL        3
REMARK 921   NORMALIZED FREE ENERGY PREDICTED BY IDOCK:   -6.07 KCAL/MOL
REMARK 922        TOTAL FREE ENERGY PREDICTED BY IDOCK:   -9.80 KCAL/MOL
REMARK 923 INTER-LIGAND FREE ENERGY PREDICTED BY IDOCK:   -9.30 KCAL/MOL
REMARK 924 INTRA-LIGAND FREE ENERGY PREDICTED BY IDOCK:   -0.49 KCAL/MOL
REMARK 927      BINDING AFFINITY PREDICTED BY RF-SCORE:    0.00 PKD
ROOT
HETATM    1  C   UNL     1     -14.224   7.257  71.341  1.00  0.00    -0.476 C  
HETATM    2  C   UNL     1     -14.344   8.536  72.167  1.00  0.00    -0.436 C  
ENDROOT
BRANCH   2   3
HETATM    3  N   UNL     1     -13.063   9.214  72.434  1.00  0.00    -0.429 NA 
BRANCH   3   4
HETATM    4  C   UNL     1     -11.882   8.459  71.984  1.00  0.00    -0.353 C  
HETATM    5  C   UNL     1     -11.022   7.824  73.070  1.00  0.00    -0.442 C  
ENDBRANCH   3   4
BRANCH   3   6
HETATM    6  C   UNL     1     -13.127  10.593  71.917  1.00  0.00    -0.458 C  
BRANCH   6   7
HETATM    7  C   UNL     1     -12.193  10.810  70.738  1.00  0.00    -0.480 C  
HETATM    8  C   UNL     1     -11.391  10.995  69.727  1.00  0.00    -0.366 C  
BRANCH   8   9
HETATM    9  C   UNL     1     -10.468  11.194  68.607  1.00  0.00    -0.197 C  
BRANCH   9  10
HETATM   10  O   UNL     1     -10.107  12.578  68.490  1.00  0.00    -0.221 OA 
BRANCH  10  11
HETATM   11  C   UNL     1     -11.163  13.450  68.500  1.00  0.00    -0.283 C  
HETATM   12  O   UNL     1     -12.273  13.199  68.043  1.00  0.00    -0.260 OA 
HETATM   13  C   UNL     1     -10.726  14.819  69.136  1.00  0.00    -0.254 C  
HETATM   14  C   UNL     1     -11.607  15.088  70.374  1.00  0.00    -0.330 A  
HETATM   15  C   UNL     1     -10.861  15.947  68.050  1.00  0.00    -0.317 C  
HETATM   16  O   UNL     1      -9.360  14.747  69.571  1.00  0.00    -0.412 OA 
HETATM   17  H   UNL     1      -9.096  15.575  69.955  1.00  0.00     0.000 HD 
HETATM   18  C   UNL     1     -11.046  15.269  71.652  1.00  0.00    -0.251 A  
HETATM   19  C   UNL     1     -10.500  17.366  68.547  1.00  0.00    -0.370 C  
HETATM   20  C   UNL     1     -11.849  15.477  72.777  1.00  0.00    -0.575 A  
HETATM   21  C   UNL     1      -9.001  17.636  68.665  1.00  0.00    -0.261 C  
HETATM   22  C   UNL     1      -8.248  17.308  67.381  1.00  0.00    -0.204 C  
HETATM   23  C   UNL     1     -13.234  15.507  72.650  1.00  0.00    -0.579 A  
HETATM   24  C   UNL     1     -13.816  15.342  71.396  1.00  0.00    -0.577 A  
HETATM   25  C   UNL     1      -8.572  15.922  66.837  1.00  0.00    -0.274 C  
HETATM   26  C   UNL     1     -10.076  15.675  66.744  1.00  0.00    -0.277 C  
HETATM   27  C   UNL     1     -13.010  15.143  70.271  1.00  0.00    -0.220 A  
ENDBRANCH  10  11
ENDBRANCH   9  10
ENDBRANCH   8   9
ENDBRANCH   6   7
ENDBRANCH   3   6
ENDBRANCH   2   3
TORSDOF 7
ENDMDL
MODEL        4
REMARK 921   NORMALIZED FREE ENERGY PREDICTED BY IDOCK:   -5.94 KCAL/MOL
REMARK 922        TOTAL FREE ENERGY PREDICTED BY IDOCK:   -9.61 KCAL/MOL
REMARK 923 INTER-LIGAND FREE ENERGY PREDICTED BY IDOCK:   -8.46 KCAL/MOL
REMARK 924 INTRA-LIGAND FREE ENERGY PREDICTED BY IDOCK:   -1.15 KCAL/MOL
REMARK 927      BINDING AFFINITY PREDICTED BY RF-SCORE:    0.00 PKD
ROOT
HETATM    1  C   UNL     1     -11.386  15.860  70.714  1.00  0.00    -0.424 C  
HETATM    2  C   UNL     1     -12.830  15.420  70.941  1.00  0.00    -0.476 C  
ENDROOT
BRANCH   2   3
HETATM    3  N   UNL     1     -13.091  14.839  72.269  1.00  0.00    -0.331 NA 
BRANCH   3   4
HETATM    4  C   UNL     1     -13.357  15.839  73.317  1.00  0.00    -0.549 C  
HETATM    5  C   UNL     1     -12.403  15.854  74.505  1.00  0.00    -0.752 C  
ENDBRANCH   3   4
BRANCH   3   6
HETATM    6  C   UNL     1     -14.133  13.803  72.150  1.00  0.00    -0.511 C  
BRANCH   6   7
HETATM    7  C   UNL     1     -13.546  12.414  71.967  1.00  0.00    -0.349 C  
HETATM    8  C   UNL     1     -13.041  11.222  71.810  1.00  0.00    -0.527 C  
BRANCH   8   9
HETATM    9  C   UNL     1     -12.455   9.894  71.614  1.00  0.00    -0.415 C  
BRANCH   9  10
HETATM   10  O   UNL     1     -12.083   9.703  70.242  1.00  0.00    -0.134 OA 
BRANCH  10  11
HETATM   11  C   UNL     1     -10.746   9.847  69.984  1.00  0.00    -0.292 C  
HETATM   12  O   UNL     1      -9.867   9.812  70.838  1.00  0.00    -0.180 OA 
HETATM   13  C   UNL     1     -10.518  10.109  68.451  1.00  0.00    -0.208 C  
HETATM   14  C   UNL     1      -9.624   8.983  67.889  1.00  0.00    -0.170 A  
HETATM   15  C   UNL     1      -9.872  11.530  68.271  1.00  0.00    -0.203 C  
HETATM   16  O   UNL     1     -11.771  10.070  67.751  1.00  0.00    -0.525 OA 
HETATM   17  H   UNL     1     -11.633  10.228  66.825  1.00  0.00     0.000 HD 
HETATM   18  C   UNL     1     -10.055   8.158  66.832  1.00  0.00    -0.367 A  
HETATM   19  C   UNL     1      -9.552  11.911  66.807  1.00  0.00    -0.214 C  
HETATM   20  C   UNL     1      -9.256   7.117  66.351  1.00  0.00    -0.196 A  
HETATM   21  C   UNL     1     -10.764  12.339  65.982  1.00  0.00    -0.296 C  
HETATM   22  C   UNL     1     -11.571  13.441  66.661  1.00  0.00    -0.399 C  
HETATM   23  C   UNL     1      -8.008   6.875  66.915  1.00  0.00    -0.109 A  
HETATM   24  C   UNL     1      -7.553   7.682  67.954  1.00  0.00    -0.117 A  
HETATM   25  C   UNL     1     -11.907  13.124  68.112  1.00  0.00    -0.386 C  
HETATM   26  C   UNL     1     -10.681  12.686  68.909  1.00  0.00    -0.201 C  
HETATM   27  C   UNL     1      -8.349   8.728  68.429  1.00  0.00    -0.126 A  
ENDBRANCH  10  11
ENDBRANCH   9  10
ENDBRANCH   8   9
ENDBRANCH   6   7
ENDBRANCH   3   6
ENDBRANCH   2   3
TORSDOF 7
ENDMDL
MODEL        5
REMARK 921   NORMALIZED FREE ENERGY PREDICTED BY IDOCK:   -5.83 KCAL/MOL
REMARK 922        TOTAL FREE ENERGY PREDICTED BY IDOCK:   -9.46 KCAL/MOL
REMARK 923 INTER-LIGAND FREE ENERGY PREDICTED BY IDOCK:   -8.92 KCAL/MOL
REMARK 924 INTRA-LIGAND FREE ENERGY PREDICTED BY IDOCK:   -0.55 KCAL/MOL
REMARK 927      BINDING AFFINITY PREDICTED BY RF-SCORE:    0.00 PKD
ROOT
HETATM    1  C   UNL     1      -9.758   8.918  70.800  1.00  0.00    -0.281 C  
HETATM    2  C   UNL     1     -10.756   8.550  71.896  1.00  0.00    -0.324 C  
ENDROOT
BRANCH   2   3
HETATM    3  N   UNL     1     -12.135   8.336  71.421  1.00  0.00    -0.296 NA 
BRANCH   3   4
HETATM    4  C   UNL     1     -12.633   6.967  71.632  1.00  0.00    -0.367 C  
HETATM    5  C   UNL     1     -11.747   6.036  72.453  1.00  0.00    -0.322 C  
ENDBRANCH   3   4
BRANCH   3   6
HETATM    6  C   UNL     1     -13.008   9.385  71.977  1.00  0.00    -0.423 C  
BRANCH   6   7
HETATM    7  C   UNL     1     -12.684  10.760  71.418  1.00  0.00    -0.544 C  
HETATM    8  C   UNL     1     -12.407  11.940  70.939  1.00  0.00    -0.400 C  
BRANCH   8   9
HETATM    9  C   UNL     1     -12.119  13.265  70.383  1.00  0.00    -0.327 C  
BRANCH   9  10
HETATM   10  O   UNL     1     -12.273  13.259  68.956  1.00  0.00    -0.277 OA 
BRANCH  10  11
HETATM   11  C   UNL     1     -11.123  13.009  68.256  1.00  0.00    -0.263 C  
HETATM   12  O   UNL     1     -10.314  12.132  68.541  1.00  0.00    -0.220 OA 
HETATM   13  C   UNL     1     -10.976  14.036  67.076  1.00  0.00    -0.297 C  
HETATM   14  C   UNL     1     -10.931  13.253  65.747  1.00  0.00    -0.284 A  
HETATM   15  C   UNL     1      -9.679  14.893  67.308  1.00  0.00    -0.228 C  
HETATM   16  O   UNL     1     -12.115  14.909  67.037  1.00  0.00    -0.357 OA 
HETATM   17  H   UNL     1     -12.027  15.530  66.324  1.00  0.00     0.000 HD 
HETATM   18  C   UNL     1     -11.871  13.482  64.724  1.00  0.00    -0.412 A  
HETATM   19  C   UNL     1      -9.383  15.926  66.197  1.00  0.00    -0.385 C  
HETATM   20  C   UNL     1     -11.848  12.745  63.537  1.00  0.00    -0.618 A  
HETATM   21  C   UNL     1     -10.245  17.186  66.255  1.00  0.00    -0.340 C  
HETATM   22  C   UNL     1     -10.217  17.848  67.627  1.00  0.00    -0.369 C  
HETATM   23  C   UNL     1     -10.885  11.759  63.344  1.00  0.00    -0.460 A  
HETATM   24  C   UNL     1      -9.937  11.519  64.335  1.00  0.00    -0.311 A  
HETATM   25  C   UNL     1     -10.494  16.874  68.765  1.00  0.00    -0.343 C  
HETATM   26  C   UNL     1      -9.628  15.619  68.675  1.00  0.00    -0.202 C  
HETATM   27  C   UNL     1      -9.956  12.263  65.519  1.00  0.00    -0.264 A  
ENDBRANCH  10  11
ENDBRANCH   9  10
ENDBRANCH   8   9
ENDBRANCH   6   7
ENDBRANCH   3   6
ENDBRANCH   2   3
TORSDOF 7
ENDMDL
MODEL        6
REMARK 921   NORMALIZED FREE ENERGY PREDICTED BY IDOCK:   -5.82 KCAL/MOL
REMARK 922        TOTAL FREE ENERGY PREDICTED BY IDOCK:   -9.44 KCAL/MOL
REMARK 923 INTER-LIGAND FREE ENERGY PREDICTED BY IDOCK:   -8.53 KCAL/MOL
REMARK 924 INTRA-LIGAND FREE ENERGY PREDICTED BY IDOCK:   -0.91 KCAL/MOL
REMARK 927      BINDING AFFINITY PREDICTED BY RF-SCORE:    0.00 PKD
ROOT
HETATM    1  C   UNL     1     -10.087   9.843  70.002  1.00  0.00    -0.308 C  
HETATM    2  C   UNL     1     -10.806   9.456  71.293  1.00  0.00    -0.361 C  
ENDROOT
BRANCH   2   3
HETATM    3  N   UNL     1     -12.145   8.873  71.097  1.00  0.00    -0.291 NA 
BRANCH   3   4
HETATM    4  C   UNL     1     -12.188   7.410  71.257  1.00  0.00    -0.341 C  
HETATM    5  C   UNL     1     -11.535   6.582  70.157  1.00  0.00    -0.477 C  
ENDBRANCH   3   4
BRANCH   3   6
HETATM    6  C   UNL     1     -13.116   9.598  71.935  1.00  0.00    -0.436 C  
BRANCH   6   7
HETATM    7  C   UNL     1     -13.047  11.101  71.727  1.00  0.00    -0.536 C  
HETATM    8  C   UNL     1     -12.987  12.392  71.550  1.00  0.00    -0.385 C  
BRANCH   8   9
HETATM    9  C   UNL     1     -12.939  13.845  71.374  1.00  0.00    -0.355 C  
BRANCH   9  10
HETATM   10  O   UNL     1     -11.699  14.240  70.770  1.00  0.00    -0.288 OA 
BRANCH  10  11
HETATM   11  C   UNL     1     -11.814  15.184  69.785  1.00  0.00    -0.333 C  
HETATM   12  O   UNL     1     -12.707  16.023  69.730  1.00  0.00    -0.101 OA 
HETATM   13  C   UNL     1     -10.670  14.999  68.724  1.00  0.00    -0.241 C  
HETATM   14  C   UNL     1      -9.835  16.296  68.673  1.00  0.00    -0.230 A  
HETATM   15  C   UNL     1     -11.319  14.651  67.335  1.00  0.00    -0.368 C  
HETATM   16  O   UNL     1      -9.800  13.927  69.118  1.00  0.00    -0.425 OA 
HETATM   17  H   UNL     1      -9.108  13.815  68.476  1.00  0.00     0.000 HD 
HETATM   18  C   UNL     1      -8.451  16.292  68.935  1.00  0.00    -0.253 A  
HETATM   19  C   UNL     1     -10.308  14.479  66.178  1.00  0.00    -0.305 C  
HETATM   20  C   UNL     1      -7.706  17.474  68.923  1.00  0.00    -0.207 A  
HETATM   21  C   UNL     1      -9.560  13.147  66.180  1.00  0.00    -0.209 C  
HETATM   22  C   UNL     1     -10.501  11.951  66.255  1.00  0.00    -0.274 C  
HETATM   23  C   UNL     1      -8.326  18.689  68.649  1.00  0.00    -0.344 A  
HETATM   24  C   UNL     1      -9.691  18.720  68.376  1.00  0.00    -0.421 A  
HETATM   25  C   UNL     1     -11.528  12.070  67.374  1.00  0.00    -0.406 C  
HETATM   26  C   UNL     1     -12.250  13.415  67.356  1.00  0.00    -0.262 C  
HETATM   27  C   UNL     1     -10.433  17.536  68.380  1.00  0.00    -0.372 A  
ENDBRANCH  10  11
ENDBRANCH   9  10
ENDBRANCH   8   9
ENDBRANCH   6   7
ENDBRANCH   3   6
ENDBRANCH   2   3
TORSDOF 7
ENDMDL
MODEL        7
REMARK 921   NORMALIZED FREE ENERGY PREDICTED BY IDOCK:   -5.81 KCAL/MOL
REMARK 922        TOTAL FREE ENERGY PREDICTED BY IDOCK:   -9.44 KCAL/MOL
REMARK 923 INTER-LIGAND FREE ENERGY PREDICTED BY IDOCK:   -8.85 KCAL/MOL
REMARK 924 INTRA-LIGAND FREE ENERGY PREDICTED BY IDOCK:   -0.59 KCAL/MOL
REMARK 927      BINDING AFFINITY PREDICTED BY RF-SCORE:    0.00 PKD
ROOT
HETATM    1  C   UNL     1     -11.362   6.365  69.903  1.00  0.00    -0.500 C  
HETATM    2  C   UNL     1     -11.627   7.704  70.589  1.00  0.00    -0.232 C  
ENDROOT
BRANCH   2   3
HETATM    3  N   UNL     1     -12.068   7.597  71.990  1.00  0.00    -0.295 NA 
BRANCH   3   4
HETATM    4  C   UNL     1     -10.964   7.599  72.965  1.00  0.00    -0.400 C  
HETATM    5  C   UNL     1     -10.585   6.252  73.570  1.00  0.00    -0.288 C  
ENDBRANCH   3   4
BRANCH   3   6
HETATM    6  C   UNL     1     -13.102   8.614  72.253  1.00  0.00    -0.372 C  
BRANCH   6   7
HETATM    7  C   UNL     1     -12.745   9.965  71.657  1.00  0.00    -0.527 C  
HETATM    8  C   UNL     1     -12.438  11.125  71.146  1.00  0.00    -0.498 C  
BRANCH   8   9
HETATM    9  C   UNL     1     -12.064  12.420  70.573  1.00  0.00    -0.275 C  
BRANCH   9  10
HETATM   10  O   UNL     1     -12.276  12.426  69.154  1.00  0.00    -0.191 OA 
BRANCH  10  11
HETATM   11  C   UNL     1     -11.138  12.300  68.404  1.00  0.00    -0.243 C  
HETATM   12  O   UNL     1     -10.272  11.452  68.593  1.00  0.00    -0.198 OA 
HETATM   13  C   UNL     1     -11.088  13.424  67.307  1.00  0.00    -0.282 C  
HETATM   14  C   UNL     1     -11.044  12.753  65.918  1.00  0.00    -0.318 A  
HETATM   15  C   UNL     1      -9.834  14.334  67.571  1.00  0.00    -0.231 C  
HETATM   16  O   UNL     1     -12.274  14.230  67.371  1.00  0.00    -0.572 OA 
HETATM   17  H   UNL     1     -12.244  14.910  66.708  1.00  0.00     0.000 HD 
HETATM   18  C   UNL     1     -12.028  13.007  64.944  1.00  0.00    -0.441 A  
HETATM   19  C   UNL     1      -9.632  15.468  66.539  1.00  0.00    -0.295 C  
HETATM   20  C   UNL     1     -12.004  12.369  63.701  1.00  0.00    -0.626 A  
HETATM   21  C   UNL     1     -10.561  16.667  66.723  1.00  0.00    -0.214 C  
HETATM   22  C   UNL     1     -10.524  17.219  68.143  1.00  0.00    -0.382 C  
HETATM   23  C   UNL     1     -10.994  11.460  63.402  1.00  0.00    -0.342 A  
HETATM   24  C   UNL     1     -10.002  11.197  64.342  1.00  0.00    -0.354 A  
HETATM   25  C   UNL     1     -10.708  16.142  69.206  1.00  0.00    -0.295 C  
HETATM   26  C   UNL     1      -9.778  14.951  68.989  1.00  0.00    -0.212 C  
HETATM   27  C   UNL     1     -10.023  11.843  65.582  1.00  0.00    -0.269 A  
ENDBRANCH  10  11
ENDBRANCH   9  10
ENDBRANCH   8   9
ENDBRANCH   6   7
ENDBRANCH   3   6
ENDBRANCH   2   3
TORSDOF 7
ENDMDL
MODEL        8
REMARK 921   NORMALIZED FREE ENERGY PREDICTED BY IDOCK:   -5.79 KCAL/MOL
REMARK 922        TOTAL FREE ENERGY PREDICTED BY IDOCK:   -9.41 KCAL/MOL
REMARK 923 INTER-LIGAND FREE ENERGY PREDICTED BY IDOCK:   -8.40 KCAL/MOL
REMARK 924 INTRA-LIGAND FREE ENERGY PREDICTED BY IDOCK:   -1.00 KCAL/MOL
REMARK 927      BINDING AFFINITY PREDICTED BY RF-SCORE:    0.00 PKD
ROOT
HETATM    1  C   UNL     1     -12.528  16.035  74.224  1.00  0.00    -0.725 C  
HETATM    2  C   UNL     1     -12.075  16.037  72.765  1.00  0.00    -0.531 C  
ENDROOT
BRANCH   2   3
HETATM    3  N   UNL     1     -13.090  15.561  71.809  1.00  0.00    -0.437 NA 
BRANCH   3   4
HETATM    4  C   UNL     1     -12.546  15.208  70.487  1.00  0.00    -0.380 C  
HETATM    5  C   UNL     1     -11.070  15.508  70.254  1.00  0.00    -0.345 C  
ENDBRANCH   3   4
BRANCH   3   6
HETATM    6  C   UNL     1     -13.883  14.490  72.437  1.00  0.00    -0.483 C  
BRANCH   6   7
HETATM    7  C   UNL     1     -13.405  13.106  72.031  1.00  0.00    -0.587 C  
HETATM    8  C   UNL     1     -12.995  11.918  71.684  1.00  0.00    -0.447 C  
BRANCH   8   9
HETATM    9  C   UNL     1     -12.507  10.590  71.305  1.00  0.00    -0.419 C  
BRANCH   9  10
HETATM   10  O   UNL     1     -11.283  10.693  70.563  1.00  0.00    -0.300 OA 
BRANCH  10  11
HETATM   11  C   UNL     1     -11.442  10.926  69.223  1.00  0.00    -0.302 C  
HETATM   12  O   UNL     1     -12.527  11.047  68.664  1.00  0.00    -0.462 OA 
HETATM   13  C   UNL     1     -10.041  10.966  68.513  1.00  0.00    -0.183 C  
HETATM   14  C   UNL     1      -9.865  12.351  67.854  1.00  0.00    -0.202 A  
HETATM   15  C   UNL     1      -9.969   9.794  67.468  1.00  0.00    -0.230 C  
HETATM   16  O   UNL     1      -8.992  10.799  69.479  1.00  0.00    -0.398 OA 
HETATM   17  H   UNL     1      -8.145  10.823  69.050  1.00  0.00     0.000 HD 
HETATM   18  C   UNL     1      -8.788  13.194  68.188  1.00  0.00    -0.194 A  
HETATM   19  C   UNL     1      -8.653   9.733  66.659  1.00  0.00    -0.134 C  
HETATM   20  C   UNL     1      -8.653  14.462  67.615  1.00  0.00    -0.189 A  
HETATM   21  C   UNL     1      -7.465   9.148  67.421  1.00  0.00    -0.084 C  
HETATM   22  C   UNL     1      -7.781   7.791  68.039  1.00  0.00    -0.126 C  
HETATM   23  C   UNL     1      -9.592  14.917  66.695  1.00  0.00    -0.284 A  
HETATM   24  C   UNL     1     -10.661  14.100  66.339  1.00  0.00    -0.280 A  
HETATM   25  C   UNL     1      -9.075   7.789  68.842  1.00  0.00    -0.141 C  
HETATM   26  C   UNL     1     -10.241   8.391  68.062  1.00  0.00    -0.263 C  
HETATM   27  C   UNL     1     -10.790  12.829  66.906  1.00  0.00    -0.278 A  
ENDBRANCH  10  11
ENDBRANCH   9  10
ENDBRANCH   8   9
ENDBRANCH   6   7
ENDBRANCH   3   6
ENDBRANCH   2   3
TORSDOF 7
ENDMDL
MODEL        9
REMARK 921   NORMALIZED FREE ENERGY PREDICTED BY IDOCK:   -5.75 KCAL/MOL
REMARK 922        TOTAL FREE ENERGY PREDICTED BY IDOCK:   -9.34 KCAL/MOL
REMARK 923 INTER-LIGAND FREE ENERGY PREDICTED BY IDOCK:   -8.49 KCAL/MOL
REMARK 924 INTRA-LIGAND FREE ENERGY PREDICTED BY IDOCK:   -0.86 KCAL/MOL
REMARK 927      BINDING AFFINITY PREDICTED BY RF-SCORE:    0.00 PKD
ROOT
HETATM    1  C   UNL     1     -13.966   7.679  71.766  1.00  0.00    -0.471 C  
HETATM    2  C   UNL     1     -13.695   9.096  72.267  1.00  0.00    -0.487 C  
ENDROOT
BRANCH   2   3
HETATM    3  N   UNL     1     -12.387   9.646  71.871  1.00  0.00    -0.374 NA 
BRANCH   3   4
HETATM    4  C   UNL     1     -11.266   8.709  72.049  1.00  0.00    -0.364 C  
HETATM    5  C   UNL     1     -10.123   8.812  71.046  1.00  0.00    -0.301 C  
ENDBRANCH   3   4
BRANCH   3   6
HETATM    6  C   UNL     1     -12.489  10.209  70.513  1.00  0.00    -0.223 C  
BRANCH   6   7
HETATM    7  C   UNL     1     -12.260  11.711  70.493  1.00  0.00    -0.451 C  
HETATM    8  C   UNL     1     -12.063  13.000  70.476  1.00  0.00    -0.373 C  
BRANCH   8   9
HETATM    9  C   UNL     1     -11.863  14.450  70.436  1.00  0.00    -0.312 C  
BRANCH   9  10
HETATM   10  O   UNL     1     -10.781  14.787  69.555  1.00  0.00    -0.241 OA 
BRANCH  10  11
HETATM   11  C   UNL     1     -11.097  15.690  68.576  1.00  0.00    -0.322 C  
HETATM   12  O   UNL     1     -11.886  16.619  68.718  1.00  0.00     0.006 OA 
HETATM   13  C   UNL     1     -10.342  15.330  67.246  1.00  0.00    -0.264 C  
HETATM   14  C   UNL     1      -9.444  16.523  66.854  1.00  0.00    -0.250 A  
HETATM   15  C   UNL     1     -11.402  14.991  66.137  1.00  0.00    -0.270 C  
HETATM   16  O   UNL     1      -9.496  14.189  67.452  1.00  0.00    -0.208 OA 
HETATM   17  H   UNL     1      -9.039  13.971  66.648  1.00  0.00     0.000 HD 
HETATM   18  C   UNL     1      -8.052  16.379  66.702  1.00  0.00    -0.321 A  
HETATM   19  C   UNL     1     -10.801  14.654  64.753  1.00  0.00    -0.402 C  
HETATM   20  C   UNL     1      -7.239  17.470  66.382  1.00  0.00    -0.326 A  
HETATM   21  C   UNL     1     -10.211  13.249  64.641  1.00  0.00    -0.334 C  
HETATM   22  C   UNL     1     -11.193  12.169  65.079  1.00  0.00    -0.372 C  
HETATM   23  C   UNL     1      -7.799  18.732  66.207  1.00  0.00    -0.295 A  
HETATM   24  C   UNL     1      -9.174  18.900  66.341  1.00  0.00    -0.324 A  
HETATM   25  C   UNL     1     -11.826  12.453  66.435  1.00  0.00    -0.421 C  
HETATM   26  C   UNL     1     -12.395  13.867  66.523  1.00  0.00    -0.447 C  
HETATM   27  C   UNL     1      -9.987  17.806  66.652  1.00  0.00    -0.338 A  
ENDBRANCH  10  11
ENDBRANCH   9  10
ENDBRANCH   8   9
ENDBRANCH   6   7
ENDBRANCH   3   6
ENDBRANCH   2   3
TORSDOF 7
ENDMDL
MODEL       10
REMARK 921   NORMALIZED FREE ENERGY PREDICTED BY IDOCK:   -5.70 KCAL/MOL
REMARK 922        TOTAL FREE ENERGY PREDICTED BY IDOCK:   -9.28 KCAL/MOL
REMARK 923 INTER-LIGAND FREE ENERGY PREDICTED BY IDOCK:   -8.19 KCAL/MOL
REMARK 924 INTRA-LIGAND FREE ENERGY PREDICTED BY IDOCK:   -1.09 KCAL/MOL
REMARK 927      BINDING AFFINITY PREDICTED BY RF-SCORE:    0.00 PKD
ROOT
HETATM    1  C   UNL     1      -6.904  19.559  69.207  1.00  0.00    -0.381 C  
HETATM    2  C   UNL     1      -7.528  19.633  67.816  1.00  0.00    -0.278 C  
ENDROOT
BRANCH   2   3
HETATM    3  N   UNL     1      -8.175  18.388  67.367  1.00  0.00    -0.242 NA 
BRANCH   3   4
HETATM    4  C   UNL     1      -9.483  18.593  66.723  1.00  0.00    -0.316 C  
HETATM    5  C   UNL     1     -10.466  19.506  67.447  1.00  0.00    -0.593 C  
ENDBRANCH   3   4
BRANCH   3   6
HETATM    6  C   UNL     1      -7.221  17.611  66.555  1.00  0.00    -0.252 C  
BRANCH   6   7
HETATM    7  C   UNL     1      -7.147  16.157  66.989  1.00  0.00    -0.248 C  
HETATM    8  C   UNL     1      -7.084  14.909  67.362  1.00  0.00    -0.194 C  
BRANCH   8   9
HETATM    9  C   UNL     1      -7.026  13.514  67.805  1.00  0.00    -0.159 C  
BRANCH   9  10
HETATM   10  O   UNL     1      -7.834  12.681  66.961  1.00  0.00    -0.136 OA 
BRANCH  10  11
HETATM   11  C   UNL     1      -9.031  12.301  67.506  1.00  0.00    -0.180 C  
HETATM   12  O   UNL     1      -9.155  11.459  68.388  1.00  0.00    -0.169 OA 
HETATM   13  C   UNL     1     -10.211  13.064  66.802  1.00  0.00    -0.246 C  
HETATM   14  C   UNL     1     -10.970  13.883  67.867  1.00  0.00    -0.265 A  
HETATM   15  C   UNL     1     -11.136  12.016  66.084  1.00  0.00    -0.367 C  
HETATM   16  O   UNL     1      -9.694  13.981  65.825  1.00  0.00    -0.444 OA 
HETATM   17  H   UNL     1     -10.406  14.442  65.400  1.00  0.00     0.000 HD 
HETATM   18  C   UNL     1     -11.109  15.280  67.762  1.00  0.00    -0.318 A  
HETATM   19  C   UNL     1     -12.370  12.623  65.377  1.00  0.00    -0.499 C  
HETATM   20  C   UNL     1     -11.766  16.022  68.748  1.00  0.00    -0.302 A  
HETATM   21  C   UNL     1     -12.068  13.297  64.040  1.00  0.00    -0.508 C  
HETATM   22  C   UNL     1     -11.297  12.387  63.090  1.00  0.00    -0.220 C  
HETATM   23  C   UNL     1     -12.299  15.385  69.864  1.00  0.00    -0.324 A  
HETATM   24  C   UNL     1     -12.185  14.003  69.988  1.00  0.00    -0.414 A  
HETATM   25  C   UNL     1     -10.073  11.751  63.737  1.00  0.00    -0.421 C  
HETATM   26  C   UNL     1     -10.401  11.098  65.077  1.00  0.00    -0.362 C  
HETATM   27  C   UNL     1     -11.535  13.261  68.997  1.00  0.00    -0.350 A  
ENDBRANCH  10  11
ENDBRANCH   9  10
ENDBRANCH   8   9
ENDBRANCH   6   7
ENDBRANCH   3   6
ENDBRANCH   2   3
TORSDOF 7
ENDMDL
MODEL       11
REMARK 921   NORMALIZED FREE ENERGY PREDICTED BY IDOCK:   -5.67 KCAL/MOL
REMARK 922        TOTAL FREE ENERGY PREDICTED BY IDOCK:   -9.23 KCAL/MOL
REMARK 923 INTER-LIGAND FREE ENERGY PREDICTED BY IDOCK:   -8.21 KCAL/MOL
REMARK 924 INTRA-LIGAND FREE ENERGY PREDICTED BY IDOCK:   -1.03 KCAL/MOL
REMARK 927      BINDING AFFINITY PREDICTED BY RF-SCORE:    0.00 PKD
ROOT
HETATM    1  C   UNL     1     -10.406  19.636  68.018  1.00  0.00    -0.579 C  
HETATM    2  C   UNL     1      -8.959  19.205  68.244  1.00  0.00    -0.336 C  
ENDROOT
BRANCH   2   3
HETATM    3  N   UNL     1      -7.985  19.827  67.331  1.00  0.00    -0.273 NA 
BRANCH   3   4
HETATM    4  C   UNL     1      -6.750  20.278  67.993  1.00  0.00    -0.295 C  
HETATM    5  C   UNL     1      -6.528  19.803  69.425  1.00  0.00    -0.381 C  
ENDBRANCH   3   4
BRANCH   3   6
HETATM    6  C   UNL     1      -7.757  18.933  66.182  1.00  0.00    -0.257 C  
BRANCH   6   7
HETATM    7  C   UNL     1      -7.563  17.487  66.606  1.00  0.00    -0.286 C  
HETATM    8  C   UNL     1      -7.398  16.246  66.970  1.00  0.00    -0.264 C  
BRANCH   8   9
HETATM    9  C   UNL     1      -7.237  14.854  67.395  1.00  0.00    -0.183 C  
BRANCH   9  10
HETATM   10  O   UNL     1      -8.305  14.465  68.270  1.00  0.00    -0.143 OA 
BRANCH  10  11
HETATM   11  C   UNL     1      -8.776  13.194  68.072  1.00  0.00    -0.190 C  
HETATM   12  O   UNL     1      -8.071  12.191  68.039  1.00  0.00    -0.136 OA 
HETATM   13  C   UNL     1     -10.331  13.224  67.849  1.00  0.00    -0.238 C  
HETATM   14  C   UNL     1     -11.000  12.373  68.949  1.00  0.00    -0.268 A  
HETATM   15  C   UNL     1     -10.645  12.688  66.405  1.00  0.00    -0.272 C  
HETATM   16  O   UNL     1     -10.822  14.567  67.968  1.00  0.00    -0.238 OA 
HETATM   17  H   UNL     1     -11.762  14.585  67.833  1.00  0.00     0.000 HD 
HETATM   18  C   UNL     1     -11.955  12.922  69.826  1.00  0.00    -0.365 A  
HETATM   19  C   UNL     1     -12.150  12.621  66.057  1.00  0.00    -0.429 C  
HETATM   20  C   UNL     1     -12.532  12.157  70.844  1.00  0.00    -0.374 A  
HETATM   21  C   UNL     1     -12.783  13.969  65.712  1.00  0.00    -0.487 C  
HETATM   22  C   UNL     1     -12.011  14.713  64.628  1.00  0.00    -0.472 C  
HETATM   23  C   UNL     1     -12.167  10.825  71.010  1.00  0.00    -0.485 A  
HETATM   24  C   UNL     1     -11.233  10.254  70.150  1.00  0.00    -0.387 A  
HETATM   25  C   UNL     1     -10.518  14.801  64.914  1.00  0.00    -0.398 C  
HETATM   26  C   UNL     1      -9.916  13.444  65.269  1.00  0.00    -0.195 C  
HETATM   27  C   UNL     1     -10.663  11.018  69.127  1.00  0.00    -0.274 A  
ENDBRANCH  10  11
ENDBRANCH   9  10
ENDBRANCH   8   9
ENDBRANCH   6   7
ENDBRANCH   3   6
ENDBRANCH   2   3
TORSDOF 7
ENDMDL
MODEL       12
REMARK 921   NORMALIZED FREE ENERGY PREDICTED BY IDOCK:   -5.66 KCAL/MOL
REMARK 922        TOTAL FREE ENERGY PREDICTED BY IDOCK:   -9.22 KCAL/MOL
REMARK 923 INTER-LIGAND FREE ENERGY PREDICTED BY IDOCK:   -8.20 KCAL/MOL
REMARK 924 INTRA-LIGAND FREE ENERGY PREDICTED BY IDOCK:   -1.02 KCAL/MOL
REMARK 927      BINDING AFFINITY PREDICTED BY RF-SCORE:    0.00 PKD
ROOT
HETATM    1  C   UNL     1     -12.530  15.823  74.440  1.00  0.00    -0.790 C  
HETATM    2  C   UNL     1     -12.078  15.765  72.982  1.00  0.00    -0.495 C  
ENDROOT
BRANCH   2   3
HETATM    3  N   UNL     1     -13.159  15.499  72.017  1.00  0.00    -0.417 NA 
BRANCH   3   4
HETATM    4  C   UNL     1     -12.712  15.464  70.614  1.00  0.00    -0.437 C  
HETATM    5  C   UNL     1     -11.238  15.757  70.359  1.00  0.00    -0.383 C  
ENDBRANCH   3   4
BRANCH   3   6
HETATM    6  C   UNL     1     -13.903  14.299  72.440  1.00  0.00    -0.518 C  
BRANCH   6   7
HETATM    7  C   UNL     1     -13.344  13.028  71.823  1.00  0.00    -0.468 C  
HETATM    8  C   UNL     1     -12.864  11.937  71.295  1.00  0.00    -0.391 C  
BRANCH   8   9
HETATM    9  C   UNL     1     -12.298  10.720  70.708  1.00  0.00    -0.383 C  
BRANCH   9  10
HETATM   10  O   UNL     1     -11.056  11.007  70.049  1.00  0.00    -0.251 OA 
BRANCH  10  11
HETATM   11  C   UNL     1     -11.068  10.816  68.694  1.00  0.00    -0.259 C  
HETATM   12  O   UNL     1     -11.753   9.977  68.117  1.00  0.00    -0.096 OA 
HETATM   13  C   UNL     1     -10.047  11.790  68.002  1.00  0.00    -0.192 C  
HETATM   14  C   UNL     1     -10.819  12.689  67.014  1.00  0.00    -0.282 A  
HETATM   15  C   UNL     1      -8.935  10.937  67.291  1.00  0.00    -0.139 C  
HETATM   16  O   UNL     1      -9.432  12.638  68.984  1.00  0.00    -0.377 OA 
HETATM   17  H   UNL     1      -8.815  13.227  68.566  1.00  0.00     0.000 HD 
HETATM   18  C   UNL     1     -10.804  14.092  67.127  1.00  0.00    -0.291 A  
HETATM   19  C   UNL     1      -7.876  11.767  66.529  1.00  0.00     0.020 C  
HETATM   20  C   UNL     1     -11.534  14.900  66.251  1.00  0.00    -0.269 A  
HETATM   21  C   UNL     1      -6.824  12.425  67.420  1.00  0.00    -0.147 C  
HETATM   22  C   UNL     1      -6.154  11.431  68.362  1.00  0.00    -0.045 C  
HETATM   23  C   UNL     1     -12.299  14.325  65.242  1.00  0.00    -0.427 A  
HETATM   24  C   UNL     1     -12.324  12.940  65.100  1.00  0.00    -0.547 A  
HETATM   25  C   UNL     1      -7.151  10.576  69.133  1.00  0.00    -0.089 C  
HETATM   26  C   UNL     1      -8.198   9.943  68.220  1.00  0.00    -0.109 C  
HETATM   27  C   UNL     1     -11.586  12.133  65.972  1.00  0.00    -0.420 A  
ENDBRANCH  10  11
ENDBRANCH   9  10
ENDBRANCH   8   9
ENDBRANCH   6   7
ENDBRANCH   3   6
ENDBRANCH   2   3
TORSDOF 7
ENDMDL
MODEL       13
REMARK 921   NORMALIZED FREE ENERGY PREDICTED BY IDOCK:   -5.65 KCAL/MOL
REMARK 922        TOTAL FREE ENERGY PREDICTED BY IDOCK:   -9.21 KCAL/MOL
REMARK 923 INTER-LIGAND FREE ENERGY PREDICTED BY IDOCK:   -8.55 KCAL/MOL
REMARK 924 INTRA-LIGAND FREE ENERGY PREDICTED BY IDOCK:   -0.65 KCAL/MOL
REMARK 927      BINDING AFFINITY PREDICTED BY RF-SCORE:    0.00 PKD
ROOT
HETATM    1  C   UNL     1     -10.642   6.878  73.675  1.00  0.00    -0.371 C  
HETATM    2  C   UNL     1     -11.316   7.598  72.509  1.00  0.00    -0.355 C  
ENDROOT
BRANCH   2   3
HETATM    3  N   UNL     1     -12.150   6.734  71.656  1.00  0.00    -0.344 NA 
BRANCH   3   4
HETATM    4  C   UNL     1     -13.526   7.224  71.475  1.00  0.00    -0.363 C  
HETATM    5  C   UNL     1     -13.796   8.669  71.879  1.00  0.00    -0.481 C  
ENDBRANCH   3   4
BRANCH   3   6
HETATM    6  C   UNL     1     -11.438   6.465  70.394  1.00  0.00    -0.393 C  
BRANCH   6   7
HETATM    7  C   UNL     1     -10.901   7.734  69.754  1.00  0.00    -0.211 C  
HETATM    8  C   UNL     1     -10.439   8.822  69.204  1.00  0.00    -0.230 C  
BRANCH   8   9
HETATM    9  C   UNL     1      -9.894  10.039  68.598  1.00  0.00    -0.160 C  
BRANCH   9  10
HETATM   10  O   UNL     1     -10.092  11.167  69.463  1.00  0.00    -0.054 OA 
BRANCH  10  11
HETATM   11  C   UNL     1     -11.339  11.729  69.398  1.00  0.00    -0.272 C  
HETATM   12  O   UNL     1     -12.383  11.128  69.632  1.00  0.00    -0.296 OA 
HETATM   13  C   UNL     1     -11.233  13.227  68.937  1.00  0.00    -0.277 C  
HETATM   14  C   UNL     1     -11.831  14.124  70.042  1.00  0.00    -0.388 A  
HETATM   15  C   UNL     1     -11.982  13.390  67.565  1.00  0.00    -0.381 C  
HETATM   16  O   UNL     1      -9.855  13.595  68.767  1.00  0.00    -0.368 OA 
HETATM   17  H   UNL     1      -9.791  14.500  68.488  1.00  0.00     0.000 HD 
HETATM   18  C   UNL     1     -11.071  15.132  70.665  1.00  0.00    -0.298 A  
HETATM   19  C   UNL     1     -11.994  14.831  67.005  1.00  0.00    -0.225 C  
HETATM   20  C   UNL     1     -11.606  15.917  71.690  1.00  0.00    -0.541 A  
HETATM   21  C   UNL     1     -10.682  15.273  66.360  1.00  0.00    -0.318 C  
HETATM   22  C   UNL     1     -10.193  14.289  65.303  1.00  0.00    -0.408 C  
HETATM   23  C   UNL     1     -12.913  15.712  72.118  1.00  0.00    -0.527 A  
HETATM   24  C   UNL     1     -13.691  14.729  71.512  1.00  0.00    -0.511 A  
HETATM   25  C   UNL     1     -10.169  12.848  65.797  1.00  0.00    -0.298 C  
HETATM   26  C   UNL     1     -11.487  12.438  66.449  1.00  0.00    -0.427 C  
HETATM   27  C   UNL     1     -13.157  13.950  70.481  1.00  0.00    -0.056 A  
ENDBRANCH  10  11
ENDBRANCH   9  10
ENDBRANCH   8   9
ENDBRANCH   6   7
ENDBRANCH   3   6
ENDBRANCH   2   3
TORSDOF 7
ENDMDL
MODEL       14
REMARK 921   NORMALIZED FREE ENERGY PREDICTED BY IDOCK:   -5.63 KCAL/MOL
REMARK 922        TOTAL FREE ENERGY PREDICTED BY IDOCK:   -9.17 KCAL/MOL
REMARK 923 INTER-LIGAND FREE ENERGY PREDICTED BY IDOCK:   -7.76 KCAL/MOL
REMARK 924 INTRA-LIGAND FREE ENERGY PREDICTED BY IDOCK:   -1.41 KCAL/MOL
REMARK 927      BINDING AFFINITY PREDICTED BY RF-SCORE:    0.00 PKD
ROOT
HETATM    1  C   UNL     1     -12.567  13.767  65.832  1.00  0.00    -0.494 C  
HETATM    2  C   UNL     1     -12.097  13.436  67.246  1.00  0.00    -0.304 C  
ENDROOT
BRANCH   2   3
HETATM    3  N   UNL     1     -11.675  12.037  67.439  1.00  0.00    -0.541 NA 
BRANCH   3   4
HETATM    4  C   UNL     1     -10.941  11.472  66.295  1.00  0.00    -0.275 C  
HETATM    5  C   UNL     1      -9.420  11.552  66.352  1.00  0.00    -0.230 C  
ENDBRANCH   3   4
BRANCH   3   6
HETATM    6  C   UNL     1     -10.966  11.918  68.725  1.00  0.00    -0.235 C  
BRANCH   6   7
HETATM    7  C   UNL     1     -11.781  11.167  69.765  1.00  0.00    -0.419 C  
HETATM    8  C   UNL     1     -12.480  10.522  70.656  1.00  0.00    -0.456 C  
BRANCH   8   9
HETATM    9  C   UNL     1     -13.288   9.795  71.638  1.00  0.00    -0.399 C  
BRANCH   9  10
HETATM   10  O   UNL     1     -12.519   8.752  72.253  1.00  0.00    -0.372 OA 
BRANCH  10  11
HETATM   11  C   UNL     1     -12.378   7.619  71.498  1.00  0.00    -0.330 C  
HETATM   12  O   UNL     1     -13.313   6.939  71.087  1.00  0.00    -0.254 OA 
HETATM   13  C   UNL     1     -10.855   7.302  71.280  1.00  0.00    -0.235 C  
HETATM   14  C   UNL     1     -10.564   7.310  69.764  1.00  0.00    -0.247 A  
HETATM   15  C   UNL     1     -10.526   5.915  71.944  1.00  0.00    -0.267 C  
HETATM   16  O   UNL     1     -10.046   8.318  71.891  1.00  0.00    -0.202 OA 
HETATM   17  H   UNL     1      -9.125   8.126  71.760  1.00  0.00     0.000 HD 
HETATM   18  C   UNL     1      -9.607   8.176  69.202  1.00  0.00    -0.157 A  
HETATM   19  C   UNL     1      -9.062   5.451  71.773  1.00  0.00    -0.152 C  
HETATM   20  C   UNL     1      -9.373   8.205  67.824  1.00  0.00    -0.149 A  
HETATM   21  C   UNL     1      -8.063   6.147  72.696  1.00  0.00    -0.103 C  
HETATM   22  C   UNL     1      -8.481   6.084  74.160  1.00  0.00    -0.115 C  
HETATM   23  C   UNL     1     -10.091   7.369  66.975  1.00  0.00    -0.328 A  
HETATM   24  C   UNL     1     -11.036   6.495  67.506  1.00  0.00    -0.444 A  
HETATM   25  C   UNL     1      -9.922   6.522  74.388  1.00  0.00    -0.374 C  
HETATM   26  C   UNL     1     -10.896   5.821  73.444  1.00  0.00    -0.295 C  
HETATM   27  C   UNL     1     -11.263   6.461  68.885  1.00  0.00    -0.385 A  
ENDBRANCH  10  11
ENDBRANCH   9  10
ENDBRANCH   8   9
ENDBRANCH   6   7
ENDBRANCH   3   6
ENDBRANCH   2   3
TORSDOF 7
ENDMDL
MODEL       15
REMARK 921   NORMALIZED FREE ENERGY PREDICTED BY IDOCK:   -5.62 KCAL/MOL
REMARK 922        TOTAL FREE ENERGY PREDICTED BY IDOCK:   -9.16 KCAL/MOL
REMARK 923 INTER-LIGAND FREE ENERGY PREDICTED BY IDOCK:   -7.80 KCAL/MOL
REMARK 924 INTRA-LIGAND FREE ENERGY PREDICTED BY IDOCK:   -1.36 KCAL/MOL
REMARK 927      BINDING AFFINITY PREDICTED BY RF-SCORE:    0.00 PKD
ROOT
HETATM    1  C   UNL     1      -9.360  11.012  62.635  1.00  0.00    -0.348 C  
HETATM    2  C   UNL     1     -10.093  12.029  63.507  1.00  0.00    -0.424 C  
ENDROOT
BRANCH   2   3
HETATM    3  N   UNL     1     -10.826  11.444  64.643  1.00  0.00    -0.313 NA 
BRANCH   3   4
HETATM    4  C   UNL     1      -9.995  11.211  65.835  1.00  0.00    -0.239 C  
HETATM    5  C   UNL     1     -10.698  10.629  67.056  1.00  0.00    -0.317 C  
ENDBRANCH   3   4
BRANCH   3   6
HETATM    6  C   UNL     1     -12.036  12.244  64.903  1.00  0.00    -0.356 C  
BRANCH   6   7
HETATM    7  C   UNL     1     -11.763  13.738  64.843  1.00  0.00    -0.378 C  
HETATM    8  C   UNL     1     -11.529  15.019  64.790  1.00  0.00    -0.403 C  
BRANCH   8   9
HETATM    9  C   UNL     1     -11.269  16.458  64.702  1.00  0.00    -0.192 C  
BRANCH   9  10
HETATM   10  O   UNL     1     -10.058  16.796  65.395  1.00  0.00    -0.587 OA 
BRANCH  10  11
HETATM   11  C   UNL     1     -10.223  17.119  66.715  1.00  0.00    -0.311 C  
HETATM   12  O   UNL     1     -10.842  18.099  67.117  1.00  0.00    -0.333 OA 
HETATM   13  C   UNL     1      -9.468  16.082  67.622  1.00  0.00    -0.216 C  
HETATM   14  C   UNL     1     -10.496  15.403  68.552  1.00  0.00    -0.234 A  
HETATM   15  C   UNL     1      -8.344  16.835  68.423  1.00  0.00    -0.222 C  
HETATM   16  O   UNL     1      -8.865  15.063  66.811  1.00  0.00    -0.239 OA 
HETATM   17  H   UNL     1      -8.408  14.437  67.359  1.00  0.00     0.000 HD 
HETATM   18  C   UNL     1     -10.683  14.008  68.550  1.00  0.00    -0.266 A  
HETATM   19  C   UNL     1      -7.539  15.941  69.395  1.00  0.00    -0.210 C  
HETATM   20  C   UNL     1     -11.640  13.401  69.367  1.00  0.00    -0.365 A  
HETATM   21  C   UNL     1      -6.490  15.056  68.723  1.00  0.00    -0.082 C  
HETATM   22  C   UNL     1      -5.554  15.849  67.817  1.00  0.00    -0.161 C  
HETATM   23  C   UNL     1     -12.436  14.176  70.206  1.00  0.00    -0.416 A  
HETATM   24  C   UNL     1     -12.266  15.557  70.235  1.00  0.00    -0.432 A  
HETATM   25  C   UNL     1      -6.294  16.756  66.843  1.00  0.00    -0.229 C  
HETATM   26  C   UNL     1      -7.344  17.618  67.539  1.00  0.00    -0.202 C  
HETATM   27  C   UNL     1     -11.302  16.162  69.423  1.00  0.00    -0.323 A  
ENDBRANCH  10  11
ENDBRANCH   9  10
ENDBRANCH   8   9
ENDBRANCH   6   7
ENDBRANCH   3   6
ENDBRANCH   2   3
TORSDOF 7
ENDMDL
MODEL       16
REMARK 921   NORMALIZED FREE ENERGY PREDICTED BY IDOCK:   -5.60 KCAL/MOL
REMARK 922        TOTAL FREE ENERGY PREDICTED BY IDOCK:   -9.14 KCAL/MOL
REMARK 923 INTER-LIGAND FREE ENERGY PREDICTED BY IDOCK:   -8.09 KCAL/MOL
REMARK 924 INTRA-LIGAND FREE ENERGY PREDICTED BY IDOCK:   -1.05 KCAL/MOL
REMARK 927      BINDING AFFINITY PREDICTED BY RF-SCORE:    0.00 PKD
ROOT
HETATM    1  C   UNL     1     -10.848  14.572  65.926  1.00  0.00    -0.308 C  
HETATM    2  C   UNL     1     -12.086  13.803  66.380  1.00  0.00    -0.444 C  
ENDROOT
BRANCH   2   3
HETATM    3  N   UNL     1     -12.226  12.462  65.785  1.00  0.00    -0.638 NA 
BRANCH   3   4
HETATM    4  C   UNL     1     -12.262  12.462  64.314  1.00  0.00    -0.452 C  
HETATM    5  C   UNL     1     -11.136  11.719  63.603  1.00  0.00    -0.518 C  
ENDBRANCH   3   4
BRANCH   3   6
HETATM    6  C   UNL     1     -11.207  11.567  66.361  1.00  0.00    -0.243 C  
BRANCH   6   7
HETATM    7  C   UNL     1     -11.456  11.281  67.833  1.00  0.00    -0.360 C  
HETATM    8  C   UNL     1     -11.671  11.036  69.095  1.00  0.00    -0.403 C  
BRANCH   8   9
HETATM    9  C   UNL     1     -11.930  10.783  70.514  1.00  0.00    -0.361 C  
BRANCH   9  10
HETATM   10  O   UNL     1     -11.956   9.374  70.781  1.00  0.00    -0.279 OA 
BRANCH  10  11
HETATM   11  C   UNL     1     -10.748   8.833  71.129  1.00  0.00    -0.248 C  
HETATM   12  O   UNL     1      -9.832   9.460  71.652  1.00  0.00    -0.219 OA 
HETATM   13  C   UNL     1     -10.697   7.317  70.719  1.00  0.00    -0.231 C  
HETATM   14  C   UNL     1     -10.468   6.472  71.990  1.00  0.00    -0.227 A  
HETATM   15  C   UNL     1      -9.557   7.118  69.656  1.00  0.00    -0.154 C  
HETATM   16  O   UNL     1     -11.951   6.919  70.143  1.00  0.00    -0.600 OA 
HETATM   17  H   UNL     1     -11.920   6.003  69.895  1.00  0.00     0.000 HD 
HETATM   18  C   UNL     1     -11.378   5.473  72.386  1.00  0.00    -0.294 A  
HETATM   19  C   UNL     1      -9.362   5.658  69.185  1.00  0.00    -0.151 C  
HETATM   20  C   UNL     1     -11.184   4.736  73.557  1.00  0.00    -0.392 A  
HETATM   21  C   UNL     1     -10.406   5.169  68.182  1.00  0.00    -0.140 C  
HETATM   22  C   UNL     1     -10.548   6.106  66.987  1.00  0.00    -0.384 C  
HETATM   23  C   UNL     1     -10.076   4.979  74.361  1.00  0.00    -0.268 A  
HETATM   24  C   UNL     1      -9.154   5.954  73.988  1.00  0.00    -0.127 A  
HETATM   25  C   UNL     1     -10.732   7.563  67.391  1.00  0.00    -0.331 C  
HETATM   26  C   UNL     1      -9.685   8.020  68.404  1.00  0.00    -0.168 C  
HETATM   27  C   UNL     1      -9.345   6.685  72.812  1.00  0.00    -0.149 A  
ENDBRANCH  10  11
ENDBRANCH   9  10
ENDBRANCH   8   9
ENDBRANCH   6   7
ENDBRANCH   3   6
ENDBRANCH   2   3
TORSDOF 7
ENDMDL
MODEL       17
REMARK 921   NORMALIZED FREE ENERGY PREDICTED BY IDOCK:   -5.59 KCAL/MOL
REMARK 922        TOTAL FREE ENERGY PREDICTED BY IDOCK:   -9.12 KCAL/MOL
REMARK 923 INTER-LIGAND FREE ENERGY PREDICTED BY IDOCK:   -8.11 KCAL/MOL
REMARK 924 INTRA-LIGAND FREE ENERGY PREDICTED BY IDOCK:   -1.01 KCAL/MOL
REMARK 927      BINDING AFFINITY PREDICTED BY RF-SCORE:    0.00 PKD
ROOT
HETATM    1  C   UNL     1     -12.400  15.527  74.415  1.00  0.00    -0.798 C  
HETATM    2  C   UNL     1     -12.195  16.298  73.113  1.00  0.00    -0.523 C  
ENDROOT
BRANCH   2   3
HETATM    3  N   UNL     1     -12.150  15.458  71.904  1.00  0.00    -0.350 NA 
BRANCH   3   4
HETATM    4  C   UNL     1     -13.463  14.936  71.490  1.00  0.00    -0.410 C  
HETATM    5  C   UNL     1     -13.764  13.484  71.845  1.00  0.00    -0.478 C  
ENDBRANCH   3   4
BRANCH   3   6
HETATM    6  C   UNL     1     -11.427  16.177  70.840  1.00  0.00    -0.386 C  
BRANCH   6   7
HETATM    7  C   UNL     1     -11.597  15.517  69.481  1.00  0.00    -0.361 C  
HETATM    8  C   UNL     1     -11.743  14.951  68.316  1.00  0.00    -0.342 C  
BRANCH   8   9
HETATM    9  C   UNL     1     -11.900  14.288  67.019  1.00  0.00    -0.428 C  
BRANCH   9  10
HETATM   10  O   UNL     1     -10.690  13.613  66.646  1.00  0.00    -0.278 OA 
BRANCH  10  11
HETATM   11  C   UNL     1     -10.871  12.371  66.099  1.00  0.00    -0.273 C  
HETATM   12  O   UNL     1     -11.636  12.127  65.171  1.00  0.00    -0.339 OA 
HETATM   13  C   UNL     1      -9.997  11.312  66.863  1.00  0.00    -0.207 C  
HETATM   14  C   UNL     1      -9.021  10.665  65.858  1.00  0.00    -0.192 A  
HETATM   15  C   UNL     1     -10.950  10.258  67.533  1.00  0.00    -0.344 C  
HETATM   16  O   UNL     1      -9.219  11.957  67.882  1.00  0.00    -0.174 OA 
HETATM   17  H   UNL     1      -8.691  11.318  68.344  1.00  0.00     0.000 HD 
HETATM   18  C   UNL     1      -7.627  10.719  66.045  1.00  0.00    -0.130 A  
HETATM   19  C   UNL     1     -10.223   9.124  68.292  1.00  0.00    -0.242 C  
HETATM   20  C   UNL     1      -6.746  10.163  65.114  1.00  0.00    -0.131 A  
HETATM   21  C   UNL     1      -9.676   9.525  69.662  1.00  0.00    -0.215 C  
HETATM   22  C   UNL     1     -10.737  10.171  70.546  1.00  0.00    -0.295 C  
HETATM   23  C   UNL     1      -7.238   9.540  63.971  1.00  0.00    -0.111 A  
HETATM   24  C   UNL     1      -8.613   9.463  63.766  1.00  0.00    -0.224 A  
HETATM   25  C   UNL     1     -11.495  11.291  69.845  1.00  0.00    -0.373 C  
HETATM   26  C   UNL     1     -12.017  10.867  68.475  1.00  0.00    -0.137 C  
HETATM   27  C   UNL     1      -9.493  10.013  64.703  1.00  0.00    -0.367 A  
ENDBRANCH  10  11
ENDBRANCH   9  10
ENDBRANCH   8   9
ENDBRANCH   6   7
ENDBRANCH   3   6
ENDBRANCH   2   3
TORSDOF 7
ENDMDL
MODEL       18
REMARK 921   NORMALIZED FREE ENERGY PREDICTED BY IDOCK:   -5.58 KCAL/MOL
REMARK 922        TOTAL FREE ENERGY PREDICTED BY IDOCK:   -9.10 KCAL/MOL
REMARK 923 INTER-LIGAND FREE ENERGY PREDICTED BY IDOCK:   -8.26 KCAL/MOL
REMARK 924 INTRA-LIGAND FREE ENERGY PREDICTED BY IDOCK:   -0.84 KCAL/MOL
REMARK 927      BINDING AFFINITY PREDICTED BY RF-SCORE:    0.00 PKD
ROOT
HETATM    1  C   UNL     1     -10.753  15.762  70.157  1.00  0.00    -0.354 C  
HETATM    2  C   UNL     1     -12.160  15.174  70.244  1.00  0.00    -0.341 C  
ENDROOT
BRANCH   2   3
HETATM    3  N   UNL     1     -12.262  13.948  71.055  1.00  0.00    -0.356 NA 
BRANCH   3   4
HETATM    4  C   UNL     1     -13.438  13.914  71.939  1.00  0.00    -0.427 C  
HETATM    5  C   UNL     1     -14.028  15.259  72.346  1.00  0.00    -0.642 C  
ENDBRANCH   3   4
BRANCH   3   6
HETATM    6  C   UNL     1     -12.137  12.773  70.176  1.00  0.00    -0.298 C  
BRANCH   6   7
HETATM    7  C   UNL     1     -12.613  11.496  70.850  1.00  0.00    -0.438 C  
HETATM    8  C   UNL     1     -13.022  10.402  71.428  1.00  0.00    -0.545 C  
BRANCH   8   9
HETATM    9  C   UNL     1     -13.499   9.188  72.094  1.00  0.00    -0.469 C  
BRANCH   9  10
HETATM   10  O   UNL     1     -12.408   8.483  72.703  1.00  0.00    -0.378 OA 
BRANCH  10  11
HETATM   11  C   UNL     1     -11.972   7.387  72.006  1.00  0.00    -0.297 C  
HETATM   12  O   UNL     1     -12.614   6.351  71.871  1.00  0.00    -0.314 OA 
HETATM   13  C   UNL     1     -10.522   7.641  71.455  1.00  0.00    -0.204 C  
HETATM   14  C   UNL     1     -10.556   7.531  69.916  1.00  0.00    -0.243 A  
HETATM   15  C   UNL     1      -9.543   6.598  72.107  1.00  0.00    -0.149 C  
HETATM   16  O   UNL     1     -10.089   8.967  71.794  1.00  0.00    -0.302 OA 
HETATM   17  H   UNL     1      -9.213   9.120  71.462  1.00  0.00     0.000 HD 
HETATM   18  C   UNL     1     -10.156   8.600  69.092  1.00  0.00    -0.203 A  
HETATM   19  C   UNL     1      -8.078   6.702  71.624  1.00  0.00    -0.107 C  
HETATM   20  C   UNL     1     -10.223   8.508  67.699  1.00  0.00    -0.297 A  
HETATM   21  C   UNL     1      -7.286   7.855  72.240  1.00  0.00    -0.100 C  
HETATM   22  C   UNL     1      -7.354   7.858  73.763  1.00  0.00    -0.172 C  
HETATM   23  C   UNL     1     -10.693   7.346  67.096  1.00  0.00    -0.400 A  
HETATM   24  C   UNL     1     -11.086   6.269  67.887  1.00  0.00    -0.360 A  
HETATM   25  C   UNL     1      -8.776   7.748  74.297  1.00  0.00    -0.244 C  
HETATM   26  C   UNL     1      -9.547   6.597  73.655  1.00  0.00    -0.207 C  
HETATM   27  C   UNL     1     -11.010   6.359  69.280  1.00  0.00    -0.418 A  
ENDBRANCH  10  11
ENDBRANCH   9  10
ENDBRANCH   8   9
ENDBRANCH   6   7
ENDBRANCH   3   6
ENDBRANCH   2   3
TORSDOF 7
ENDMDL
MODEL       19
REMARK 921   NORMALIZED FREE ENERGY PREDICTED BY IDOCK:   -5.54 KCAL/MOL
REMARK 922        TOTAL FREE ENERGY PREDICTED BY IDOCK:   -9.05 KCAL/MOL
REMARK 923 INTER-LIGAND FREE ENERGY PREDICTED BY IDOCK:   -8.14 KCAL/MOL
REMARK 924 INTRA-LIGAND FREE ENERGY PREDICTED BY IDOCK:   -0.91 KCAL/MOL
REMARK 927      BINDING AFFINITY PREDICTED BY RF-SCORE:    0.00 PKD
ROOT
HETATM    1  C   UNL     1     -11.079   6.504  69.584  1.00  0.00    -0.435 C  
HETATM    2  C   UNL     1     -11.979   7.060  70.685  1.00  0.00    -0.313 C  
ENDROOT
BRANCH   2   3
HETATM    3  N   UNL     1     -11.745   8.478  71.008  1.00  0.00    -0.283 NA 
BRANCH   3   4
HETATM    4  C   UNL     1     -10.932   8.689  72.218  1.00  0.00    -0.322 C  
HETATM    5  C   UNL     1      -9.419   8.625  72.044  1.00  0.00    -0.370 C  
ENDBRANCH   3   4
BRANCH   3   6
HETATM    6  C   UNL     1     -11.232   9.170  69.813  1.00  0.00    -0.056 C  
BRANCH   6   7
HETATM    7  C   UNL     1     -11.510  10.664  69.848  1.00  0.00    -0.393 C  
HETATM    8  C   UNL     1     -11.748  11.945  69.877  1.00  0.00    -0.383 C  
BRANCH   8   9
HETATM    9  C   UNL     1     -11.986  13.390  69.910  1.00  0.00    -0.338 C  
BRANCH   9  10
HETATM   10  O   UNL     1     -10.892  14.097  69.308  1.00  0.00    -0.244 OA 
BRANCH  10  11
HETATM   11  C   UNL     1     -11.259  15.094  68.444  1.00  0.00    -0.299 C  
HETATM   12  O   UNL     1     -12.088  15.961  68.697  1.00  0.00    -0.252 OA 
HETATM   13  C   UNL     1     -10.499  14.930  67.078  1.00  0.00    -0.272 C  
HETATM   14  C   UNL     1      -9.661  16.202  66.827  1.00  0.00    -0.255 A  
HETATM   15  C   UNL     1     -11.553  14.675  65.940  1.00  0.00    -0.327 C  
HETATM   16  O   UNL     1      -9.599  13.813  67.144  1.00  0.00    -0.229 OA 
HETATM   17  H   UNL     1      -9.140  13.714  66.319  1.00  0.00     0.000 HD 
HETATM   18  C   UNL     1      -8.265  16.143  66.655  1.00  0.00    -0.321 A  
HETATM   19  C   UNL     1     -10.949  14.533  64.524  1.00  0.00    -0.264 C  
HETATM   20  C   UNL     1      -7.507  17.301  66.464  1.00  0.00    -0.315 A  
HETATM   21  C   UNL     1     -10.295  13.180  64.244  1.00  0.00    -0.361 C  
HETATM   22  C   UNL     1     -11.222  12.010  64.555  1.00  0.00    -0.390 C  
HETATM   23  C   UNL     1      -8.125  18.546  66.442  1.00  0.00    -0.295 A  
HETATM   24  C   UNL     1      -9.506  18.633  66.599  1.00  0.00    -0.328 A  
HETATM   25  C   UNL     1     -11.855  12.102  65.937  1.00  0.00    -0.342 C  
HETATM   26  C   UNL     1     -12.488  13.468  66.194  1.00  0.00    -0.424 C  
HETATM   27  C   UNL     1     -10.265  17.473  66.781  1.00  0.00    -0.327 A  
ENDBRANCH  10  11
ENDBRANCH   9  10
ENDBRANCH   8   9
ENDBRANCH   6   7
ENDBRANCH   3   6
ENDBRANCH   2   3
TORSDOF 7
ENDMDL
MODEL       20
REMARK 921   NORMALIZED FREE ENERGY PREDICTED BY IDOCK:   -5.54 KCAL/MOL
REMARK 922        TOTAL FREE ENERGY PREDICTED BY IDOCK:   -9.05 KCAL/MOL
REMARK 923 INTER-LIGAND FREE ENERGY PREDICTED BY IDOCK:   -7.40 KCAL/MOL
REMARK 924 INTRA-LIGAND FREE ENERGY PREDICTED BY IDOCK:   -1.64 KCAL/MOL
REMARK 927      BINDING AFFINITY PREDICTED BY RF-SCORE:    0.00 PKD
ROOT
HETATM    1  C   UNL     1     -10.460   7.928  66.840  1.00  0.00    -0.388 C  
HETATM    2  C   UNL     1      -9.054   7.845  66.248  1.00  0.00    -0.179 C  
ENDROOT
BRANCH   2   3
HETATM    3  N   UNL     1      -8.502   9.135  65.799  1.00  0.00    -0.134 NA 
BRANCH   3   4
HETATM    4  C   UNL     1      -7.084   9.329  66.140  1.00  0.00    -0.091 C  
HETATM    5  C   UNL     1      -6.576  10.767  66.162  1.00  0.00    -0.127 C  
ENDBRANCH   3   4
BRANCH   3   6
HETATM    6  C   UNL     1      -8.806   9.321  64.369  1.00  0.00    -0.159 C  
BRANCH   6   7
HETATM    7  C   UNL     1      -9.713  10.515  64.123  1.00  0.00    -0.388 C  
HETATM    8  C   UNL     1     -10.491  11.540  63.913  1.00  0.00    -0.439 C  
BRANCH   8   9
HETATM    9  C   UNL     1     -11.389  12.676  63.687  1.00  0.00    -0.481 C  
BRANCH   9  10
HETATM   10  O   UNL     1     -10.973  13.810  64.461  1.00  0.00    -0.387 OA 
BRANCH  10  11
HETATM   11  C   UNL     1     -11.542  13.898  65.703  1.00  0.00    -0.333 C  
HETATM   12  O   UNL     1     -12.750  13.945  65.911  1.00  0.00    -0.489 OA 
HETATM   13  C   UNL     1     -10.424  13.976  66.805  1.00  0.00    -0.277 C  
HETATM   14  C   UNL     1     -10.592  12.775  67.760  1.00  0.00    -0.231 A  
HETATM   15  C   UNL     1     -10.543  15.354  67.551  1.00  0.00    -0.283 C  
HETATM   16  O   UNL     1      -9.126  13.880  66.198  1.00  0.00    -0.485 OA 
HETATM   17  H   UNL     1      -8.450  13.928  66.864  1.00  0.00     0.000 HD 
HETATM   18  C   UNL     1      -9.557  11.842  67.960  1.00  0.00    -0.187 A  
HETATM   19  C   UNL     1      -9.524  15.556  68.696  1.00  0.00    -0.204 C  
HETATM   20  C   UNL     1      -9.726  10.737  68.799  1.00  0.00    -0.197 A  
HETATM   21  C   UNL     1      -8.111  15.909  68.235  1.00  0.00    -0.144 C  
HETATM   22  C   UNL     1      -8.091  17.097  67.280  1.00  0.00    -0.206 C  
HETATM   23  C   UNL     1     -10.936  10.537  69.456  1.00  0.00    -0.312 A  
HETATM   24  C   UNL     1     -11.973  11.450  69.285  1.00  0.00    -0.400 A  
HETATM   25  C   UNL     1      -9.084  16.958  66.134  1.00  0.00    -0.265 C  
HETATM   26  C   UNL     1     -10.483  16.591  66.622  1.00  0.00    -0.266 C  
HETATM   27  C   UNL     1     -11.799  12.560  68.452  1.00  0.00    -0.353 A  
ENDBRANCH  10  11
ENDBRANCH   9  10
ENDBRANCH   8   9
ENDBRANCH   6   7
ENDBRANCH   3   6
ENDBRANCH   2   3
TORSDOF 7
ENDMDL
MODEL       21
REMARK 921   NORMALIZED FREE ENERGY PREDICTED BY IDOCK:   -5.53 KCAL/MOL
REMARK 922        TOTAL FREE ENERGY PREDICTED BY IDOCK:   -9.03 KCAL/MOL
REMARK 923 INTER-LIGAND FREE ENERGY PREDICTED BY IDOCK:   -8.17 KCAL/MOL
REMARK 924 INTRA-LIGAND FREE ENERGY PREDICTED BY IDOCK:   -0.86 KCAL/MOL
REMARK 927      BINDING AFFINITY PREDICTED BY RF-SCORE:    0.00 PKD
ROOT
HETATM    1  C   UNL     1     -10.631   7.376  69.524  1.00  0.00    -0.244 C  
HETATM    2  C   UNL     1     -11.303   7.771  70.837  1.00  0.00    -0.275 C  
ENDROOT
BRANCH   2   3
HETATM    3  N   UNL     1     -12.124   8.992  70.761  1.00  0.00    -0.191 NA 
BRANCH   3   4
HETATM    4  C   UNL     1     -13.216   9.040  71.747  1.00  0.00    -0.389 C  
HETATM    5  C   UNL     1     -14.292   7.966  71.628  1.00  0.00    -0.595 C  
ENDBRANCH   3   4
BRANCH   3   6
HETATM    6  C   UNL     1     -11.241  10.172  70.786  1.00  0.00    -0.336 C  
BRANCH   6   7
HETATM    7  C   UNL     1     -11.514  11.119  69.629  1.00  0.00    -0.383 C  
HETATM    8  C   UNL     1     -11.748  11.932  68.637  1.00  0.00    -0.380 C  
BRANCH   8   9
HETATM    9  C   UNL     1     -12.020  12.821  67.505  1.00  0.00    -0.281 C  
BRANCH   9  10
HETATM   10  O   UNL     1     -11.811  14.191  67.877  1.00  0.00    -0.345 OA 
BRANCH  10  11
HETATM   11  C   UNL     1     -11.126  14.938  66.958  1.00  0.00    -0.338 C  
HETATM   12  O   UNL     1     -11.420  15.016  65.769  1.00  0.00    -0.327 OA 
HETATM   13  C   UNL     1      -9.891  15.632  67.638  1.00  0.00    -0.227 C  
HETATM   14  C   UNL     1     -10.042  17.160  67.487  1.00  0.00    -0.301 A  
HETATM   15  C   UNL     1      -8.575  15.093  66.970  1.00  0.00    -0.265 C  
HETATM   16  O   UNL     1      -9.864  15.327  69.041  1.00  0.00    -0.208 OA 
HETATM   17  H   UNL     1      -9.118  15.746  69.453  1.00  0.00     0.000 HD 
HETATM   18  C   UNL     1     -10.082  18.012  68.607  1.00  0.00    -0.401 A  
HETATM   19  C   UNL     1      -7.272  15.721  67.516  1.00  0.00    -0.212 C  
HETATM   20  C   UNL     1     -10.255  19.391  68.466  1.00  0.00    -0.492 A  
HETATM   21  C   UNL     1      -6.824  15.179  68.872  1.00  0.00    -0.120 C  
HETATM   22  C   UNL     1      -6.738  13.657  68.891  1.00  0.00    -0.108 C  
HETATM   23  C   UNL     1     -10.394  19.953  67.201  1.00  0.00    -0.581 A  
HETATM   24  C   UNL     1     -10.348  19.136  66.075  1.00  0.00    -0.538 A  
HETATM   25  C   UNL     1      -7.993  12.982  68.354  1.00  0.00    -0.135 C  
HETATM   26  C   UNL     1      -8.424  13.552  67.005  1.00  0.00    -0.137 C  
HETATM   27  C   UNL     1     -10.166  17.757  66.217  1.00  0.00    -0.364 A  
ENDBRANCH  10  11
ENDBRANCH   9  10
ENDBRANCH   8   9
ENDBRANCH   6   7
ENDBRANCH   3   6
ENDBRANCH   2   3
TORSDOF 7
ENDMDL
MODEL       22
REMARK 921   NORMALIZED FREE ENERGY PREDICTED BY IDOCK:   -5.52 KCAL/MOL
REMARK 922        TOTAL FREE ENERGY PREDICTED BY IDOCK:   -9.02 KCAL/MOL
REMARK 923 INTER-LIGAND FREE ENERGY PREDICTED BY IDOCK:   -8.44 KCAL/MOL
REMARK 924 INTRA-LIGAND FREE ENERGY PREDICTED BY IDOCK:   -0.57 KCAL/MOL
REMARK 927      BINDING AFFINITY PREDICTED BY RF-SCORE:    0.00 PKD
ROOT
HETATM    1  C   UNL     1     -11.466  14.553  69.348  1.00  0.00    -0.323 C  
HETATM    2  C   UNL     1     -12.483  15.069  70.364  1.00  0.00    -0.356 C  
ENDROOT
BRANCH   2   3
HETATM    3  N   UNL     1     -12.286  14.568  71.736  1.00  0.00    -0.343 NA 
BRANCH   3   4
HETATM    4  C   UNL     1     -11.856  15.601  72.693  1.00  0.00    -0.485 C  
HETATM    5  C   UNL     1     -12.731  15.799  73.925  1.00  0.00    -0.737 C  
ENDBRANCH   3   4
BRANCH   3   6
HETATM    6  C   UNL     1     -13.485  13.823  72.157  1.00  0.00    -0.502 C  
BRANCH   6   7
HETATM    7  C   UNL     1     -13.303  12.319  72.031  1.00  0.00    -0.491 C  
HETATM    8  C   UNL     1     -13.147  11.029  71.924  1.00  0.00    -0.525 C  
BRANCH   8   9
HETATM    9  C   UNL     1     -12.967   9.579  71.832  1.00  0.00    -0.425 C  
BRANCH   9  10
HETATM   10  O   UNL     1     -12.094   9.245  70.743  1.00  0.00    -0.263 OA 
BRANCH  10  11
HETATM   11  C   UNL     1     -10.896   8.697  71.115  1.00  0.00    -0.259 C  
HETATM   12  O   UNL     1      -9.997   9.313  71.679  1.00  0.00    -0.294 OA 
HETATM   13  C   UNL     1     -10.830   7.191  70.672  1.00  0.00    -0.245 C  
HETATM   14  C   UNL     1     -10.638   6.318  71.930  1.00  0.00    -0.258 A  
HETATM   15  C   UNL     1      -9.659   7.017  69.639  1.00  0.00    -0.150 C  
HETATM   16  O   UNL     1     -12.066   6.805  70.050  1.00  0.00    -0.650 OA 
HETATM   17  H   UNL     1     -12.026   5.895  69.782  1.00  0.00     0.000 HD 
HETATM   18  C   UNL     1     -11.558   5.310  72.275  1.00  0.00    -0.016 A  
HETATM   19  C   UNL     1      -9.449   5.568  69.142  1.00  0.00    -0.169 C  
HETATM   20  C   UNL     1     -11.398   4.546  73.435  1.00  0.00    -0.376 A  
HETATM   21  C   UNL     1     -10.461   5.102  68.097  1.00  0.00    -0.083 C  
HETATM   22  C   UNL     1     -10.568   6.065  66.920  1.00  0.00    -0.384 C  
HETATM   23  C   UNL     1     -10.315   4.772  74.277  1.00  0.00    -0.317 A  
HETATM   24  C   UNL     1      -9.384   5.755  73.954  1.00  0.00    -0.135 A  
HETATM   25  C   UNL     1     -10.767   7.512  67.351  1.00  0.00    -0.331 C  
HETATM   26  C   UNL     1      -9.751   7.947  68.405  1.00  0.00    -0.170 C  
HETATM   27  C   UNL     1      -9.540   6.513  72.790  1.00  0.00    -0.157 A  
ENDBRANCH  10  11
ENDBRANCH   9  10
ENDBRANCH   8   9
ENDBRANCH   6   7
ENDBRANCH   3   6
ENDBRANCH   2   3
TORSDOF 7
ENDMDL
MODEL       23
REMARK 921   NORMALIZED FREE ENERGY PREDICTED BY IDOCK:   -5.50 KCAL/MOL
REMARK 922        TOTAL FREE ENERGY PREDICTED BY IDOCK:   -8.99 KCAL/MOL
REMARK 923 INTER-LIGAND FREE ENERGY PREDICTED BY IDOCK:   -8.54 KCAL/MOL
REMARK 924 INTRA-LIGAND FREE ENERGY PREDICTED BY IDOCK:   -0.45 KCAL/MOL
REMARK 927      BINDING AFFINITY PREDICTED BY RF-SCORE:    0.00 PKD
ROOT
HETATM    1  C   UNL     1     -14.229   7.317  71.681  1.00  0.00    -0.558 C  
HETATM    2  C   UNL     1     -12.712   7.459  71.782  1.00  0.00    -0.334 C  
ENDROOT
BRANCH   2   3
HETATM    3  N   UNL     1     -12.249   8.791  72.207  1.00  0.00    -0.370 NA 
BRANCH   3   4
HETATM    4  C   UNL     1     -11.016   9.237  71.537  1.00  0.00    -0.375 C  
HETATM    5  C   UNL     1      -9.938   8.182  71.316  1.00  0.00    -0.225 C  
ENDBRANCH   3   4
BRANCH   3   6
HETATM    6  C   UNL     1     -13.366   9.747  72.108  1.00  0.00    -0.431 C  
BRANCH   6   7
HETATM    7  C   UNL     1     -12.931  11.082  71.526  1.00  0.00    -0.553 C  
HETATM    8  C   UNL     1     -12.559  12.227  71.026  1.00  0.00    -0.352 C  
BRANCH   8   9
HETATM    9  C   UNL     1     -12.144  13.503  70.437  1.00  0.00    -0.345 C  
BRANCH   9  10
HETATM   10  O   UNL     1     -11.992  13.378  69.016  1.00  0.00    -0.319 OA 
BRANCH  10  11
HETATM   11  C   UNL     1     -11.643  14.535  68.372  1.00  0.00    -0.326 C  
HETATM   12  O   UNL     1     -12.073  15.647  68.661  1.00  0.00    -0.270 OA 
HETATM   13  C   UNL     1     -10.656  14.219  67.191  1.00  0.00    -0.279 C  
HETATM   14  C   UNL     1      -9.334  14.976  67.440  1.00  0.00    -0.204 A  
HETATM   15  C   UNL     1     -11.336  14.635  65.837  1.00  0.00    -0.338 C  
HETATM   16  O   UNL     1     -10.361  12.814  67.157  1.00  0.00    -0.231 OA 
HETATM   17  H   UNL     1      -9.765  12.622  66.443  1.00  0.00     0.000 HD 
HETATM   18  C   UNL     1      -8.105  14.298  67.545  1.00  0.00    -0.200 A  
HETATM   19  C   UNL     1     -10.460  14.416  64.582  1.00  0.00    -0.286 C  
HETATM   20  C   UNL     1      -6.916  14.985  67.806  1.00  0.00    -0.193 A  
HETATM   21  C   UNL     1     -10.374  12.965  64.112  1.00  0.00    -0.385 C  
HETATM   22  C   UNL     1     -11.747  12.330  63.927  1.00  0.00    -0.536 C  
HETATM   23  C   UNL     1      -6.928  16.366  67.971  1.00  0.00    -0.150 A  
HETATM   24  C   UNL     1      -8.128  17.063  67.862  1.00  0.00    -0.196 A  
HETATM   25  C   UNL     1     -12.660  12.523  65.131  1.00  0.00    -0.358 C  
HETATM   26  C   UNL     1     -12.716  13.979  65.587  1.00  0.00    -0.515 C  
HETATM   27  C   UNL     1      -9.315  16.376  67.592  1.00  0.00    -0.212 A  
ENDBRANCH  10  11
ENDBRANCH   9  10
ENDBRANCH   8   9
ENDBRANCH   6   7
ENDBRANCH   3   6
ENDBRANCH   2   3
TORSDOF 7
ENDMDL
MODEL       24
REMARK 921   NORMALIZED FREE ENERGY PREDICTED BY IDOCK:   -5.49 KCAL/MOL
REMARK 922        TOTAL FREE ENERGY PREDICTED BY IDOCK:   -8.99 KCAL/MOL
REMARK 923 INTER-LIGAND FREE ENERGY PREDICTED BY IDOCK:   -8.00 KCAL/MOL
REMARK 924 INTRA-LIGAND FREE ENERGY PREDICTED BY IDOCK:   -0.99 KCAL/MOL
REMARK 927      BINDING AFFINITY PREDICTED BY RF-SCORE:    0.00 PKD
ROOT
HETATM    1  C   UNL     1     -10.175  20.091  66.031  1.00  0.00    -0.568 C  
HETATM    2  C   UNL     1      -9.024  19.141  66.356  1.00  0.00    -0.342 C  
ENDROOT
BRANCH   2   3
HETATM    3  N   UNL     1      -9.443  17.823  66.862  1.00  0.00    -0.262 NA 
BRANCH   3   4
HETATM    4  C   UNL     1      -8.364  17.062  67.512  1.00  0.00    -0.188 C  
HETATM    5  C   UNL     1      -7.798  15.878  66.735  1.00  0.00    -0.273 C  
ENDBRANCH   3   4
BRANCH   3   6
HETATM    6  C   UNL     1     -10.649  17.983  67.693  1.00  0.00    -0.399 C  
BRANCH   6   7
HETATM    7  C   UNL     1     -11.061  16.685  68.367  1.00  0.00    -0.305 C  
HETATM    8  C   UNL     1     -11.414  15.571  68.946  1.00  0.00    -0.362 C  
BRANCH   8   9
HETATM    9  C   UNL     1     -11.788  14.322  69.614  1.00  0.00    -0.318 C  
BRANCH   9  10
HETATM   10  O   UNL     1     -11.786  13.230  68.683  1.00  0.00    -0.299 OA 
BRANCH  10  11
HETATM   11  C   UNL     1     -10.561  12.933  68.150  1.00  0.00    -0.237 C  
HETATM   12  O   UNL     1      -9.491  13.314  68.614  1.00  0.00    -0.141 OA 
HETATM   13  C   UNL     1     -10.734  12.079  66.842  1.00  0.00    -0.244 C  
HETATM   14  C   UNL     1     -10.016  10.727  67.040  1.00  0.00    -0.236 A  
HETATM   15  C   UNL     1     -10.156  12.890  65.627  1.00  0.00    -0.282 C  
HETATM   16  O   UNL     1     -12.125  11.811  66.609  1.00  0.00    -0.527 OA 
HETATM   17  H   UNL     1     -12.230  11.295  65.818  1.00  0.00     0.000 HD 
HETATM   18  C   UNL     1     -10.704   9.504  66.932  1.00  0.00    -0.184 A  
HETATM   19  C   UNL     1     -10.223  12.152  64.270  1.00  0.00    -0.351 C  
HETATM   20  C   UNL     1     -10.058   8.284  67.148  1.00  0.00    -0.334 A  
HETATM   21  C   UNL     1     -11.607  12.138  63.622  1.00  0.00    -0.575 C  
HETATM   22  C   UNL     1     -12.210  13.533  63.507  1.00  0.00    -0.410 C  
HETATM   23  C   UNL     1      -8.706   8.258  67.478  1.00  0.00    -0.129 A  
HETATM   24  C   UNL     1      -7.998   9.452  67.580  1.00  0.00    -0.099 A  
HETATM   25  C   UNL     1     -12.163  14.312  64.815  1.00  0.00    -0.456 C  
HETATM   26  C   UNL     1     -10.773  14.298  65.446  1.00  0.00    -0.353 C  
HETATM   27  C   UNL     1      -8.645  10.671  67.356  1.00  0.00    -0.122 A  
ENDBRANCH  10  11
ENDBRANCH   9  10
ENDBRANCH   8   9
ENDBRANCH   6   7
ENDBRANCH   3   6
ENDBRANCH   2   3
TORSDOF 7
ENDMDL
MODEL       25
REMARK 921   NORMALIZED FREE ENERGY PREDICTED BY IDOCK:   -5.49 KCAL/MOL
REMARK 922        TOTAL FREE ENERGY PREDICTED BY IDOCK:   -8.98 KCAL/MOL
REMARK 923 INTER-LIGAND FREE ENERGY PREDICTED BY IDOCK:   -7.73 KCAL/MOL
REMARK 924 INTRA-LIGAND FREE ENERGY PREDICTED BY IDOCK:   -1.25 KCAL/MOL
REMARK 927      BINDING AFFINITY PREDICTED BY RF-SCORE:    0.00 PKD
ROOT
HETATM    1  C   UNL     1     -11.044   9.206  71.629  1.00  0.00    -0.445 C  
HETATM    2  C   UNL     1     -11.552  10.049  70.461  1.00  0.00    -0.323 C  
ENDROOT
BRANCH   2   3
HETATM    3  N   UNL     1     -10.513  10.447  69.496  1.00  0.00    -0.236 NA 
BRANCH   3   4
HETATM    4  C   UNL     1      -9.182   9.891  69.788  1.00  0.00    -0.227 C  
HETATM    5  C   UNL     1      -8.371   9.395  68.596  1.00  0.00    -0.117 C  
ENDBRANCH   3   4
BRANCH   3   6
HETATM    6  C   UNL     1     -10.991  10.173  68.129  1.00  0.00    -0.259 C  
BRANCH   6   7
HETATM    7  C   UNL     1     -11.390  11.442  67.393  1.00  0.00    -0.359 C  
HETATM    8  C   UNL     1     -11.732  12.530  66.762  1.00  0.00    -0.453 C  
BRANCH   8   9
HETATM    9  C   UNL     1     -12.088  13.758  66.048  1.00  0.00    -0.436 C  
BRANCH   9  10
HETATM   10  O   UNL     1     -11.746  14.913  66.827  1.00  0.00    -0.335 OA 
BRANCH  10  11
HETATM   11  C   UNL     1     -10.768  15.703  66.286  1.00  0.00    -0.295 C  
HETATM   12  O   UNL     1     -10.681  15.981  65.094  1.00  0.00    -0.444 OA 
HETATM   13  C   UNL     1      -9.758  16.153  67.402  1.00  0.00    -0.233 C  
HETATM   14  C   UNL     1      -9.759  17.694  67.473  1.00  0.00    -0.280 A  
HETATM   15  C   UNL     1      -8.337  15.572  67.064  1.00  0.00    -0.265 C  
HETATM   16  O   UNL     1     -10.179  15.651  68.680  1.00  0.00    -0.205 OA 
HETATM   17  H   UNL     1      -9.568  15.923  69.355  1.00  0.00     0.000 HD 
HETATM   18  C   UNL     1     -10.084  18.378  68.660  1.00  0.00    -0.407 A  
HETATM   19  C   UNL     1      -7.225  15.969  68.062  1.00  0.00    -0.141 C  
HETATM   20  C   UNL     1     -10.120  19.774  68.709  1.00  0.00    -0.523 A  
HETATM   21  C   UNL     1      -7.247  15.194  69.379  1.00  0.00    -0.198 C  
HETATM   22  C   UNL     1      -7.266  13.684  69.166  1.00  0.00     0.005 C  
HETATM   23  C   UNL     1      -9.832  20.521  67.571  1.00  0.00    -0.534 A  
HETATM   24  C   UNL     1      -9.497  19.871  66.386  1.00  0.00    -0.513 A  
HETATM   25  C   UNL     1      -8.338  13.235  68.182  1.00  0.00    -0.161 C  
HETATM   26  C   UNL     1      -8.301  14.035  66.882  1.00  0.00    -0.043 C  
HETATM   27  C   UNL     1      -9.454  18.475  66.341  1.00  0.00    -0.304 A  
ENDBRANCH  10  11
ENDBRANCH   9  10
ENDBRANCH   8   9
ENDBRANCH   6   7
ENDBRANCH   3   6
ENDBRANCH   2   3
TORSDOF 7
ENDMDL
MODEL       26
REMARK 921   NORMALIZED FREE ENERGY PREDICTED BY IDOCK:   -5.44 KCAL/MOL
REMARK 922        TOTAL FREE ENERGY PREDICTED BY IDOCK:   -8.91 KCAL/MOL
REMARK 923 INTER-LIGAND FREE ENERGY PREDICTED BY IDOCK:   -7.43 KCAL/MOL
REMARK 924 INTRA-LIGAND FREE ENERGY PREDICTED BY IDOCK:   -1.49 KCAL/MOL
REMARK 927      BINDING AFFINITY PREDICTED BY RF-SCORE:    0.00 PKD
ROOT
HETATM    1  C   UNL     1      -8.537   5.238  65.144  1.00  0.00    -0.151 C  
HETATM    2  C   UNL     1      -8.902   5.908  66.467  1.00  0.00    -0.128 C  
ENDROOT
BRANCH   2   3
HETATM    3  N   UNL     1      -9.734   7.116  66.333  1.00  0.00    -0.123 NA 
BRANCH   3   4
HETATM    4  C   UNL     1     -10.781   7.237  67.360  1.00  0.00    -0.288 C  
HETATM    5  C   UNL     1     -10.753   6.214  68.490  1.00  0.00    -0.365 C  
ENDBRANCH   3   4
BRANCH   3   6
HETATM    6  C   UNL     1      -8.860   8.297  66.224  1.00  0.00    -0.161 C  
BRANCH   6   7
HETATM    7  C   UNL     1      -9.483   9.399  65.384  1.00  0.00    -0.322 C  
HETATM    8  C   UNL     1     -10.018  10.344  64.662  1.00  0.00    -0.408 C  
BRANCH   8   9
HETATM    9  C   UNL     1     -10.611  11.392  63.827  1.00  0.00    -0.403 C  
BRANCH   9  10
HETATM   10  O   UNL     1     -10.519  12.668  64.476  1.00  0.00    -0.317 OA 
BRANCH  10  11
HETATM   11  C   UNL     1     -11.260  12.785  65.621  1.00  0.00    -0.301 C  
HETATM   12  O   UNL     1     -12.474  12.617  65.681  1.00  0.00    -0.622 OA 
HETATM   13  C   UNL     1     -10.337  13.209  66.820  1.00  0.00    -0.252 C  
HETATM   14  C   UNL     1     -10.416  12.118  67.908  1.00  0.00    -0.224 A  
HETATM   15  C   UNL     1     -10.805  14.613  67.347  1.00  0.00    -0.298 C  
HETATM   16  O   UNL     1      -8.972  13.301  66.384  1.00  0.00    -0.442 OA 
HETATM   17  H   UNL     1      -8.415  13.558  67.109  1.00  0.00     0.000 HD 
HETATM   18  C   UNL     1      -9.267  11.436  68.353  1.00  0.00    -0.183 A  
HETATM   19  C   UNL     1     -10.008  15.143  68.561  1.00  0.00    -0.223 C  
HETATM   20  C   UNL     1      -9.348  10.424  69.313  1.00  0.00    -0.202 A  
HETATM   21  C   UNL     1      -8.632  15.712  68.218  1.00  0.00    -0.158 C  
HETATM   22  C   UNL     1      -8.695  16.762  67.115  1.00  0.00    -0.218 C  
HETATM   23  C   UNL     1     -10.580  10.067  69.851  1.00  0.00    -0.324 A  
HETATM   24  C   UNL     1     -11.732  10.732  69.437  1.00  0.00    -0.378 A  
HETATM   25  C   UNL     1      -9.479  16.298  65.894  1.00  0.00    -0.318 C  
HETATM   26  C   UNL     1     -10.842  15.722  66.268  1.00  0.00    -0.232 C  
HETATM   27  C   UNL     1     -11.648  11.750  68.483  1.00  0.00    -0.380 A  
ENDBRANCH  10  11
ENDBRANCH   9  10
ENDBRANCH   8   9
ENDBRANCH   6   7
ENDBRANCH   3   6
ENDBRANCH   2   3
TORSDOF 7
ENDMDL
MODEL       27
REMARK 921   NORMALIZED FREE ENERGY PREDICTED BY IDOCK:   -5.37 KCAL/MOL
REMARK 922        TOTAL FREE ENERGY PREDICTED BY IDOCK:   -8.80 KCAL/MOL
REMARK 923 INTER-LIGAND FREE ENERGY PREDICTED BY IDOCK:   -8.14 KCAL/MOL
REMARK 924 INTRA-LIGAND FREE ENERGY PREDICTED BY IDOCK:   -0.67 KCAL/MOL
REMARK 927      BINDING AFFINITY PREDICTED BY RF-SCORE:    0.00 PKD
ROOT
HETATM    1  C   UNL     1     -12.274  16.771  73.866  1.00  0.00    -0.293 C  
HETATM    2  C   UNL     1     -12.763  15.324  73.875  1.00  0.00    -0.518 C  
ENDROOT
BRANCH   2   3
HETATM    3  N   UNL     1     -12.667  14.638  72.574  1.00  0.00    -0.357 NA 
BRANCH   3   4
HETATM    4  C   UNL     1     -13.669  13.576  72.385  1.00  0.00    -0.602 C  
HETATM    5  C   UNL     1     -13.137  12.186  72.055  1.00  0.00    -0.462 C  
ENDBRANCH   3   4
BRANCH   3   6
HETATM    6  C   UNL     1     -12.647  15.643  71.496  1.00  0.00    -0.447 C  
BRANCH   6   7
HETATM    7  C   UNL     1     -11.751  15.229  70.340  1.00  0.00    -0.345 C  
HETATM    8  C   UNL     1     -10.982  14.874  69.349  1.00  0.00    -0.284 C  
BRANCH   8   9
HETATM    9  C   UNL     1     -10.096  14.490  68.247  1.00  0.00    -0.232 C  
BRANCH   9  10
HETATM   10  O   UNL     1     -10.044  13.063  68.114  1.00  0.00    -0.225 OA 
BRANCH  10  11
HETATM   11  C   UNL     1      -9.210  12.608  67.127  1.00  0.00    -0.214 C  
HETATM   12  O   UNL     1      -8.013  12.867  67.058  1.00  0.00    -0.131 OA 
HETATM   13  C   UNL     1     -10.021  11.756  66.086  1.00  0.00    -0.226 C  
HETATM   14  C   UNL     1      -9.427  10.331  66.050  1.00  0.00    -0.234 A  
HETATM   15  C   UNL     1      -9.952  12.467  64.686  1.00  0.00    -0.198 C  
HETATM   16  O   UNL     1     -11.394  11.652  66.494  1.00  0.00    -0.328 OA 
HETATM   17  H   UNL     1     -11.884  11.137  65.864  1.00  0.00     0.000 HD 
HETATM   18  C   UNL     1     -10.212   9.198  66.336  1.00  0.00    -0.300 A  
HETATM   19  C   UNL     1     -10.678  11.715  63.546  1.00  0.00    -0.495 C  
HETATM   20  C   UNL     1      -9.661   7.914  66.337  1.00  0.00    -0.235 A  
HETATM   21  C   UNL     1     -12.199  11.854  63.560  1.00  0.00    -0.591 C  
HETATM   22  C   UNL     1     -12.650  13.310  63.619  1.00  0.00    -0.200 C  
HETATM   23  C   UNL     1      -8.312   7.731  66.054  1.00  0.00    -0.134 A  
HETATM   24  C   UNL     1      -7.514   8.834  65.757  1.00  0.00    -0.085 A  
HETATM   25  C   UNL     1     -11.959  14.104  64.720  1.00  0.00    -0.441 C  
HETATM   26  C   UNL     1     -10.442  13.935  64.690  1.00  0.00    -0.419 C  
HETATM   27  C   UNL     1      -8.069  10.117  65.748  1.00  0.00    -0.142 A  
ENDBRANCH  10  11
ENDBRANCH   9  10
ENDBRANCH   8   9
ENDBRANCH   6   7
ENDBRANCH   3   6
ENDBRANCH   2   3
TORSDOF 7
ENDMDL
MODEL       28
REMARK 921   NORMALIZED FREE ENERGY PREDICTED BY IDOCK:   -5.35 KCAL/MOL
REMARK 922        TOTAL FREE ENERGY PREDICTED BY IDOCK:   -8.78 KCAL/MOL
REMARK 923 INTER-LIGAND FREE ENERGY PREDICTED BY IDOCK:   -7.92 KCAL/MOL
REMARK 924 INTRA-LIGAND FREE ENERGY PREDICTED BY IDOCK:   -0.85 KCAL/MOL
REMARK 927      BINDING AFFINITY PREDICTED BY RF-SCORE:    0.00 PKD
ROOT
HETATM    1  C   UNL     1     -12.372  15.635  74.078  1.00  0.00    -0.771 C  
HETATM    2  C   UNL     1     -13.486  15.584  73.035  1.00  0.00    -0.536 C  
ENDROOT
BRANCH   2   3
HETATM    3  N   UNL     1     -13.214  14.695  71.893  1.00  0.00    -0.327 NA 
BRANCH   3   4
HETATM    4  C   UNL     1     -11.825  14.752  71.409  1.00  0.00    -0.335 C  
HETATM    5  C   UNL     1     -11.423  15.999  70.630  1.00  0.00    -0.427 C  
ENDBRANCH   3   4
BRANCH   3   6
HETATM    6  C   UNL     1     -13.682  13.335  72.215  1.00  0.00    -0.589 C  
BRANCH   6   7
HETATM    7  C   UNL     1     -12.920  12.267  71.448  1.00  0.00    -0.354 C  
HETATM    8  C   UNL     1     -12.266  11.351  70.790  1.00  0.00    -0.475 C  
BRANCH   8   9
HETATM    9  C   UNL     1     -11.515  10.343  70.037  1.00  0.00    -0.308 C  
BRANCH   9  10
HETATM   10  O   UNL     1     -11.416  10.715  68.655  1.00  0.00    -0.274 OA 
BRANCH  10  11
HETATM   11  C   UNL     1     -10.171  11.123  68.258  1.00  0.00    -0.182 C  
HETATM   12  O   UNL     1      -9.179  11.124  68.979  1.00  0.00    -0.140 OA 
HETATM   13  C   UNL     1     -10.217  11.629  66.771  1.00  0.00    -0.217 C  
HETATM   14  C   UNL     1      -9.257  10.764  65.928  1.00  0.00    -0.214 A  
HETATM   15  C   UNL     1      -9.830  13.152  66.742  1.00  0.00    -0.251 C  
HETATM   16  O   UNL     1     -11.540  11.470  66.236  1.00  0.00    -0.382 OA 
HETATM   17  H   UNL     1     -11.569  11.777  65.338  1.00  0.00     0.000 HD 
HETATM   18  C   UNL     1      -9.710  10.031  64.815  1.00  0.00    -0.363 A  
HETATM   19  C   UNL     1      -9.795  13.781  65.330  1.00  0.00    -0.171 C  
HETATM   20  C   UNL     1      -8.843   9.220  64.076  1.00  0.00    -0.168 A  
HETATM   21  C   UNL     1     -11.168  14.102  64.743  1.00  0.00    -0.379 C  
HETATM   22  C   UNL     1     -12.022  14.942  65.685  1.00  0.00    -0.068 C  
HETATM   23  C   UNL     1      -7.502   9.122  64.434  1.00  0.00    -0.101 A  
HETATM   24  C   UNL     1      -7.025   9.845  65.524  1.00  0.00    -0.110 A  
HETATM   25  C   UNL     1     -12.086  14.375  67.097  1.00  0.00    -0.367 C  
HETATM   26  C   UNL     1     -10.701  14.051  67.653  1.00  0.00    -0.261 C  
HETATM   27  C   UNL     1      -7.891  10.662  66.257  1.00  0.00    -0.150 A  
ENDBRANCH  10  11
ENDBRANCH   9  10
ENDBRANCH   8   9
ENDBRANCH   6   7
ENDBRANCH   3   6
ENDBRANCH   2   3
TORSDOF 7
ENDMDL
MODEL       29
REMARK 921   NORMALIZED FREE ENERGY PREDICTED BY IDOCK:   -5.33 KCAL/MOL
REMARK 922        TOTAL FREE ENERGY PREDICTED BY IDOCK:   -8.75 KCAL/MOL
REMARK 923 INTER-LIGAND FREE ENERGY PREDICTED BY IDOCK:   -8.18 KCAL/MOL
REMARK 924 INTRA-LIGAND FREE ENERGY PREDICTED BY IDOCK:   -0.57 KCAL/MOL
REMARK 927      BINDING AFFINITY PREDICTED BY RF-SCORE:    0.00 PKD
ROOT
HETATM    1  C   UNL     1     -11.581   6.267  72.226  1.00  0.00    -0.355 C  
HETATM    2  C   UNL     1     -12.716   7.091  71.624  1.00  0.00    -0.377 C  
ENDROOT
BRANCH   2   3
HETATM    3  N   UNL     1     -12.406   8.520  71.442  1.00  0.00    -0.301 NA 
BRANCH   3   4
HETATM    4  C   UNL     1     -13.396   9.427  72.046  1.00  0.00    -0.450 C  
HETATM    5  C   UNL     1     -13.284  10.903  71.679  1.00  0.00    -0.471 C  
ENDBRANCH   3   4
BRANCH   3   6
HETATM    6  C   UNL     1     -11.019   8.774  71.872  1.00  0.00    -0.365 C  
BRANCH   6   7
HETATM    7  C   UNL     1     -10.167   9.352  70.755  1.00  0.00    -0.368 C  
HETATM    8  C   UNL     1      -9.435   9.849  69.797  1.00  0.00    -0.254 C  
BRANCH   8   9
HETATM    9  C   UNL     1      -8.629  10.432  68.721  1.00  0.00    -0.141 C  
BRANCH   9  10
HETATM   10  O   UNL     1      -9.025  11.788  68.471  1.00  0.00    -0.180 OA 
BRANCH  10  11
HETATM   11  C   UNL     1      -8.824  12.217  67.186  1.00  0.00    -0.191 C  
HETATM   12  O   UNL     1      -7.985  11.751  66.423  1.00  0.00    -0.075 OA 
HETATM   13  C   UNL     1      -9.789  13.414  66.860  1.00  0.00    -0.256 C  
HETATM   14  C   UNL     1     -10.685  13.012  65.670  1.00  0.00    -0.293 A  
HETATM   15  C   UNL     1      -8.926  14.691  66.554  1.00  0.00    -0.236 C  
HETATM   16  O   UNL     1     -10.641  13.682  67.984  1.00  0.00    -0.239 OA 
HETATM   17  H   UNL     1     -11.224  14.405  67.787  1.00  0.00     0.000 HD 
HETATM   18  C   UNL     1     -12.088  12.999  65.774  1.00  0.00    -0.510 A  
HETATM   19  C   UNL     1      -9.745  15.946  66.175  1.00  0.00    -0.351 C  
HETATM   20  C   UNL     1     -12.894  12.599  64.704  1.00  0.00    -0.361 A  
HETATM   21  C   UNL     1     -10.405  16.655  67.356  1.00  0.00    -0.292 C  
HETATM   22  C   UNL     1      -9.414  16.975  68.470  1.00  0.00    -0.269 C  
HETATM   23  C   UNL     1     -12.315  12.201  63.504  1.00  0.00    -0.682 A  
HETATM   24  C   UNL     1     -10.929  12.214  63.369  1.00  0.00    -0.480 A  
HETATM   25  C   UNL     1      -8.570  15.775  68.879  1.00  0.00    -0.220 C  
HETATM   26  C   UNL     1      -7.935  15.078  67.678  1.00  0.00    -0.178 C  
HETATM   27  C   UNL     1     -10.125  12.622  64.437  1.00  0.00    -0.281 A  
ENDBRANCH  10  11
ENDBRANCH   9  10
ENDBRANCH   8   9
ENDBRANCH   6   7
ENDBRANCH   3   6
ENDBRANCH   2   3
TORSDOF 7
ENDMDL
MODEL       30
REMARK 921   NORMALIZED FREE ENERGY PREDICTED BY IDOCK:   -5.29 KCAL/MOL
REMARK 922        TOTAL FREE ENERGY PREDICTED BY IDOCK:   -8.70 KCAL/MOL
REMARK 923 INTER-LIGAND FREE ENERGY PREDICTED BY IDOCK:   -7.54 KCAL/MOL
REMARK 924 INTRA-LIGAND FREE ENERGY PREDICTED BY IDOCK:   -1.17 KCAL/MOL
REMARK 927      BINDING AFFINITY PREDICTED BY RF-SCORE:    0.00 PKD
ROOT
HETATM    1  C   UNL     1     -11.799   7.390  72.170  1.00  0.00    -0.323 C  
HETATM    2  C   UNL     1     -10.437   8.078  72.101  1.00  0.00    -0.265 C  
ENDROOT
BRANCH   2   3
HETATM    3  N   UNL     1     -10.426   9.338  71.337  1.00  0.00    -0.341 NA 
BRANCH   3   4
HETATM    4  C   UNL     1      -9.463   9.353  70.224  1.00  0.00    -0.251 C  
HETATM    5  C   UNL     1      -9.692   8.341  69.108  1.00  0.00    -0.171 C  
ENDBRANCH   3   4
BRANCH   3   6
HETATM    6  C   UNL     1     -11.804   9.679  70.943  1.00  0.00    -0.323 C  
BRANCH   6   7
HETATM    7  C   UNL     1     -11.932  11.122  70.484  1.00  0.00    -0.475 C  
HETATM    8  C   UNL     1     -12.041  12.360  70.090  1.00  0.00    -0.366 C  
BRANCH   8   9
HETATM    9  C   UNL     1     -12.150  13.760  69.672  1.00  0.00    -0.336 C  
BRANCH   9  10
HETATM   10  O   UNL     1     -12.324  13.851  68.251  1.00  0.00    -0.254 OA 
BRANCH  10  11
HETATM   11  C   UNL     1     -11.270  14.408  67.578  1.00  0.00    -0.315 C  
HETATM   12  O   UNL     1     -10.933  15.585  67.668  1.00  0.00    -0.303 OA 
HETATM   13  C   UNL     1     -10.595  13.336  66.649  1.00  0.00    -0.281 C  
HETATM   14  C   UNL     1      -9.121  13.175  67.076  1.00  0.00    -0.231 A  
HETATM   15  C   UNL     1     -10.737  13.800  65.154  1.00  0.00    -0.365 C  
HETATM   16  O   UNL     1     -11.243  12.065  66.809  1.00  0.00    -0.287 OA 
HETATM   17  H   UNL     1     -10.836  11.417  66.248  1.00  0.00     0.000 HD 
HETATM   18  C   UNL     1      -8.603  11.931  67.483  1.00  0.00    -0.160 A  
HETATM   19  C   UNL     1     -10.079  12.856  64.121  1.00  0.00    -0.212 C  
HETATM   20  C   UNL     1      -7.277  11.798  67.903  1.00  0.00    -0.092 A  
HETATM   21  C   UNL     1     -10.878  11.589  63.821  1.00  0.00    -0.486 C  
HETATM   22  C   UNL     1     -12.322  11.889  63.434  1.00  0.00    -0.577 C  
HETATM   23  C   UNL     1      -6.436  12.906  67.927  1.00  0.00    -0.127 A  
HETATM   24  C   UNL     1      -6.919  14.146  67.519  1.00  0.00    -0.173 A  
HETATM   25  C   UNL     1     -13.019  12.825  64.412  1.00  0.00    -0.178 C  
HETATM   26  C   UNL     1     -12.192  14.075  64.705  1.00  0.00    -0.460 C  
HETATM   27  C   UNL     1      -8.243  14.276  67.092  1.00  0.00    -0.184 A  
ENDBRANCH  10  11
ENDBRANCH   9  10
ENDBRANCH   8   9
ENDBRANCH   6   7
ENDBRANCH   3   6
ENDBRANCH   2   3
TORSDOF 7
ENDMDL
MODEL       31
REMARK 921   NORMALIZED FREE ENERGY PREDICTED BY IDOCK:   -5.29 KCAL/MOL
REMARK 922        TOTAL FREE ENERGY PREDICTED BY IDOCK:   -8.69 KCAL/MOL
REMARK 923 INTER-LIGAND FREE ENERGY PREDICTED BY IDOCK:   -7.96 KCAL/MOL
REMARK 924 INTRA-LIGAND FREE ENERGY PREDICTED BY IDOCK:   -0.73 KCAL/MOL
REMARK 927      BINDING AFFINITY PREDICTED BY RF-SCORE:    0.00 PKD
ROOT
HETATM    1  C   UNL     1     -13.269  15.812  73.011  1.00  0.00    -0.671 C  
HETATM    2  C   UNL     1     -13.204  15.540  71.510  1.00  0.00    -0.509 C  
ENDROOT
BRANCH   2   3
HETATM    3  N   UNL     1     -13.218  14.112  71.146  1.00  0.00    -0.327 NA 
BRANCH   3   4
HETATM    4  C   UNL     1     -11.936  13.618  70.618  1.00  0.00    -0.252 C  
HETATM    5  C   UNL     1     -11.859  13.387  69.113  1.00  0.00    -0.383 C  
ENDBRANCH   3   4
BRANCH   3   6
HETATM    6  C   UNL     1     -13.743  13.328  72.277  1.00  0.00    -0.589 C  
BRANCH   6   7
HETATM    7  C   UNL     1     -13.405  11.851  72.160  1.00  0.00    -0.361 C  
HETATM    8  C   UNL     1     -13.115  10.584  72.061  1.00  0.00    -0.511 C  
BRANCH   8   9
HETATM    9  C   UNL     1     -12.806   9.155  71.973  1.00  0.00    -0.408 C  
BRANCH   9  10
HETATM   10  O   UNL     1     -12.082   8.867  70.768  1.00  0.00    -0.234 OA 
BRANCH  10  11
HETATM   11  C   UNL     1     -10.750   8.606  70.947  1.00  0.00    -0.219 C  
HETATM   12  O   UNL     1     -10.083   9.016  71.892  1.00  0.00    -0.339 OA 
HETATM   13  C   UNL     1     -10.202   7.752  69.747  1.00  0.00    -0.211 C  
HETATM   14  C   UNL     1      -9.654   6.420  70.302  1.00  0.00    -0.177 A  
HETATM   15  C   UNL     1      -9.100   8.584  68.995  1.00  0.00    -0.146 C  
HETATM   16  O   UNL     1     -11.265   7.446  68.832  1.00  0.00    -0.439 OA 
HETATM   17  H   UNL     1     -10.934   6.930  68.107  1.00  0.00     0.000 HD 
HETATM   18  C   UNL     1     -10.156   5.179  69.869  1.00  0.00    -0.342 A  
HETATM   19  C   UNL     1      -8.438   7.849  67.806  1.00  0.00    -0.125 C  
HETATM   20  C   UNL     1      -9.682   3.977  70.402  1.00  0.00    -0.263 A  
HETATM   21  C   UNL     1      -9.289   7.797  66.538  1.00  0.00    -0.243 C  
HETATM   22  C   UNL     1      -9.782   9.176  66.112  1.00  0.00    -0.357 C  
HETATM   23  C   UNL     1      -8.695   3.987  71.381  1.00  0.00    -0.134 A  
HETATM   24  C   UNL     1      -8.172   5.201  71.821  1.00  0.00    -0.117 A  
HETATM   25  C   UNL     1     -10.436   9.952  67.248  1.00  0.00    -0.319 C  
HETATM   26  C   UNL     1      -9.571   9.975  68.506  1.00  0.00    -0.157 C  
HETATM   27  C   UNL     1      -8.642   6.402  71.281  1.00  0.00    -0.127 A  
ENDBRANCH  10  11
ENDBRANCH   9  10
ENDBRANCH   8   9
ENDBRANCH   6   7
ENDBRANCH   3   6
ENDBRANCH   2   3
TORSDOF 7
ENDMDL
MODEL       32
REMARK 921   NORMALIZED FREE ENERGY PREDICTED BY IDOCK:   -5.28 KCAL/MOL
REMARK 922        TOTAL FREE ENERGY PREDICTED BY IDOCK:   -8.68 KCAL/MOL
REMARK 923 INTER-LIGAND FREE ENERGY PREDICTED BY IDOCK:   -7.62 KCAL/MOL
REMARK 924 INTRA-LIGAND FREE ENERGY PREDICTED BY IDOCK:   -1.06 KCAL/MOL
REMARK 927      BINDING AFFINITY PREDICTED BY RF-SCORE:    0.00 PKD
ROOT
HETATM    1  C   UNL     1     -10.964   6.476  67.301  1.00  0.00    -0.475 C  
HETATM    2  C   UNL     1     -10.104   6.924  68.481  1.00  0.00    -0.161 C  
ENDROOT
BRANCH   2   3
HETATM    3  N   UNL     1     -10.136   8.372  68.748  1.00  0.00    -0.192 NA 
BRANCH   3   4
HETATM    4  C   UNL     1     -10.529   9.185  67.585  1.00  0.00    -0.261 C  
HETATM    5  C   UNL     1      -9.401   9.826  66.785  1.00  0.00    -0.190 C  
ENDBRANCH   3   4
BRANCH   3   6
HETATM    6  C   UNL     1     -10.941   8.625  69.956  1.00  0.00    -0.203 C  
BRANCH   6   7
HETATM    7  C   UNL     1     -11.402  10.070  70.049  1.00  0.00    -0.334 C  
HETATM    8  C   UNL     1     -11.797  11.310  70.129  1.00  0.00    -0.449 C  
BRANCH   8   9
HETATM    9  C   UNL     1     -12.240  12.701  70.248  1.00  0.00    -0.271 C  
BRANCH   9  10
HETATM   10  O   UNL     1     -11.170  13.602  69.929  1.00  0.00    -0.117 OA 
BRANCH  10  11
HETATM   11  C   UNL     1     -11.557  14.750  69.291  1.00  0.00    -0.303 C  
HETATM   12  O   UNL     1     -12.462  15.484  69.672  1.00  0.00    -0.270 OA 
HETATM   13  C   UNL     1     -10.706  14.954  67.985  1.00  0.00    -0.253 C  
HETATM   14  C   UNL     1      -9.952  16.296  68.096  1.00  0.00    -0.239 A  
HETATM   15  C   UNL     1     -11.667  14.911  66.742  1.00  0.00    -0.243 C  
HETATM   16  O   UNL     1      -9.731  13.908  67.862  1.00  0.00    -0.218 OA 
HETATM   17  H   UNL     1      -9.217  14.031  67.073  1.00  0.00     0.000 HD 
HETATM   18  C   UNL     1      -8.547  16.361  68.022  1.00  0.00    -0.185 A  
HETATM   19  C   UNL     1     -10.971  15.139  65.381  1.00  0.00    -0.381 C  
HETATM   20  C   UNL     1      -7.867  17.573  68.159  1.00  0.00    -0.244 A  
HETATM   21  C   UNL     1     -10.202  13.930  64.850  1.00  0.00    -0.378 C  
HETATM   22  C   UNL     1     -11.057  12.668  64.813  1.00  0.00    -0.335 C  
HETATM   23  C   UNL     1      -8.574  18.752  68.376  1.00  0.00    -0.373 A  
HETATM   24  C   UNL     1      -9.965  18.719  68.443  1.00  0.00    -0.441 A  
HETATM   25  C   UNL     1     -11.777  12.397  66.127  1.00  0.00    -0.460 C  
HETATM   26  C   UNL     1     -12.524  13.626  66.641  1.00  0.00    -0.291 C  
HETATM   27  C   UNL     1     -10.644  17.506  68.297  1.00  0.00    -0.354 A  
ENDBRANCH  10  11
ENDBRANCH   9  10
ENDBRANCH   8   9
ENDBRANCH   6   7
ENDBRANCH   3   6
ENDBRANCH   2   3
TORSDOF 7
ENDMDL
MODEL       33
REMARK 921   NORMALIZED FREE ENERGY PREDICTED BY IDOCK:   -5.27 KCAL/MOL
REMARK 922        TOTAL FREE ENERGY PREDICTED BY IDOCK:   -8.67 KCAL/MOL
REMARK 923 INTER-LIGAND FREE ENERGY PREDICTED BY IDOCK:   -7.58 KCAL/MOL
REMARK 924 INTRA-LIGAND FREE ENERGY PREDICTED BY IDOCK:   -1.09 KCAL/MOL
REMARK 927      BINDING AFFINITY PREDICTED BY RF-SCORE:    0.00 PKD
ROOT
HETATM    1  C   UNL     1      -9.423   7.690  73.226  1.00  0.00    -0.317 C  
HETATM    2  C   UNL     1     -10.865   7.915  72.773  1.00  0.00    -0.386 C  
ENDROOT
BRANCH   2   3
HETATM    3  N   UNL     1     -11.000   8.672  71.517  1.00  0.00    -0.267 NA 
BRANCH   3   4
HETATM    4  C   UNL     1     -10.571   7.928  70.322  1.00  0.00    -0.231 C  
HETATM    5  C   UNL     1     -11.117   6.514  70.164  1.00  0.00    -0.410 C  
ENDBRANCH   3   4
BRANCH   3   6
HETATM    6  C   UNL     1     -12.366   9.219  71.425  1.00  0.00    -0.343 C  
BRANCH   6   7
HETATM    7  C   UNL     1     -12.373  10.693  71.058  1.00  0.00    -0.507 C  
HETATM    8  C   UNL     1     -12.379  11.958  70.743  1.00  0.00    -0.416 C  
BRANCH   8   9
HETATM    9  C   UNL     1     -12.370  13.373  70.364  1.00  0.00    -0.312 C  
BRANCH   9  10
HETATM   10  O   UNL     1     -11.060  13.775  69.940  1.00  0.00    -0.074 OA 
BRANCH  10  11
HETATM   11  C   UNL     1     -11.004  14.319  68.684  1.00  0.00    -0.252 C  
HETATM   12  O   UNL     1     -11.754  15.201  68.277  1.00  0.00    -0.338 OA 
HETATM   13  C   UNL     1      -9.880  13.616  67.841  1.00  0.00    -0.237 C  
HETATM   14  C   UNL     1      -8.851  14.682  67.411  1.00  0.00    -0.205 A  
HETATM   15  C   UNL     1     -10.544  12.896  66.612  1.00  0.00    -0.273 C  
HETATM   16  O   UNL     1      -9.197  12.641  68.644  1.00  0.00    -0.379 OA 
HETATM   17  H   UNL     1      -8.518  12.216  68.135  1.00  0.00     0.000 HD 
HETATM   18  C   UNL     1      -7.491  14.579  67.762  1.00  0.00    -0.182 A  
HETATM   19  C   UNL     1      -9.547  12.190  65.664  1.00  0.00    -0.177 C  
HETATM   20  C   UNL     1      -6.570  15.566  67.400  1.00  0.00    -0.174 A  
HETATM   21  C   UNL     1      -9.017  10.853  66.181  1.00  0.00    -0.196 C  
HETATM   22  C   UNL     1     -10.136   9.903  66.592  1.00  0.00    -0.297 C  
HETATM   23  C   UNL     1      -6.986  16.680  66.680  1.00  0.00    -0.243 A  
HETATM   24  C   UNL     1      -8.322  16.803  66.310  1.00  0.00    -0.353 A  
HETATM   25  C   UNL     1     -11.156  10.549  67.520  1.00  0.00    -0.358 C  
HETATM   26  C   UNL     1     -11.658  11.888  66.986  1.00  0.00    -0.365 C  
HETATM   27  C   UNL     1      -9.241  15.811  66.665  1.00  0.00    -0.283 A  
ENDBRANCH  10  11
ENDBRANCH   9  10
ENDBRANCH   8   9
ENDBRANCH   6   7
ENDBRANCH   3   6
ENDBRANCH   2   3
TORSDOF 7
ENDMDL
MODEL       34
REMARK 921   NORMALIZED FREE ENERGY PREDICTED BY IDOCK:   -5.26 KCAL/MOL
REMARK 922        TOTAL FREE ENERGY PREDICTED BY IDOCK:   -8.66 KCAL/MOL
REMARK 923 INTER-LIGAND FREE ENERGY PREDICTED BY IDOCK:   -7.93 KCAL/MOL
REMARK 924 INTRA-LIGAND FREE ENERGY PREDICTED BY IDOCK:   -0.73 KCAL/MOL
REMARK 927      BINDING AFFINITY PREDICTED BY RF-SCORE:    0.00 PKD
ROOT
HETATM    1  C   UNL     1     -11.401  13.842  69.183  1.00  0.00    -0.329 C  
HETATM    2  C   UNL     1     -12.361  14.637  70.064  1.00  0.00    -0.315 C  
ENDROOT
BRANCH   2   3
HETATM    3  N   UNL     1     -12.310  14.289  71.495  1.00  0.00    -0.349 NA 
BRANCH   3   4
HETATM    4  C   UNL     1     -12.005  15.428  72.376  1.00  0.00    -0.436 C  
HETATM    5  C   UNL     1     -13.131  15.911  73.283  1.00  0.00    -0.694 C  
ENDBRANCH   3   4
BRANCH   3   6
HETATM    6  C   UNL     1     -13.536  13.558  71.861  1.00  0.00    -0.442 C  
BRANCH   6   7
HETATM    7  C   UNL     1     -13.304  12.060  71.966  1.00  0.00    -0.447 C  
HETATM    8  C   UNL     1     -13.105  10.775  72.057  1.00  0.00    -0.476 C  
BRANCH   8   9
HETATM    9  C   UNL     1     -12.858   9.336  72.177  1.00  0.00    -0.408 C  
BRANCH   9  10
HETATM   10  O   UNL     1     -12.172   8.842  71.017  1.00  0.00    -0.282 OA 
BRANCH  10  11
HETATM   11  C   UNL     1     -10.834   8.610  71.197  1.00  0.00    -0.259 C  
HETATM   12  O   UNL     1     -10.178   9.033  72.144  1.00  0.00    -0.300 OA 
HETATM   13  C   UNL     1     -10.266   7.771  69.997  1.00  0.00    -0.210 C  
HETATM   14  C   UNL     1      -9.690   6.450  70.550  1.00  0.00    -0.186 A  
HETATM   15  C   UNL     1      -9.183   8.628  69.247  1.00  0.00    -0.150 C  
HETATM   16  O   UNL     1     -11.322   7.442  69.080  1.00  0.00    -0.436 OA 
HETATM   17  H   UNL     1     -10.979   6.935  68.354  1.00  0.00     0.000 HD 
HETATM   18  C   UNL     1     -10.164   5.199  70.114  1.00  0.00    -0.348 A  
HETATM   19  C   UNL     1      -8.504   7.910  68.058  1.00  0.00    -0.123 C  
HETATM   20  C   UNL     1      -9.664   4.007  70.645  1.00  0.00    -0.266 A  
HETATM   21  C   UNL     1      -9.352   7.842  66.788  1.00  0.00    -0.227 C  
HETATM   22  C   UNL     1      -9.876   9.210  66.364  1.00  0.00    -0.350 C  
HETATM   23  C   UNL     1      -8.678   4.037  71.626  1.00  0.00    -0.135 A  
HETATM   24  C   UNL     1      -8.183   5.261  72.068  1.00  0.00    -0.118 A  
HETATM   25  C   UNL     1     -10.548   9.969  67.501  1.00  0.00    -0.336 C  
HETATM   26  C   UNL     1      -9.685  10.009  68.760  1.00  0.00    -0.174 C  
HETATM   27  C   UNL     1      -8.678   6.453  71.530  1.00  0.00    -0.134 A  
ENDBRANCH  10  11
ENDBRANCH   9  10
ENDBRANCH   8   9
ENDBRANCH   6   7
ENDBRANCH   3   6
ENDBRANCH   2   3
TORSDOF 7
ENDMDL
MODEL       35
REMARK 921   NORMALIZED FREE ENERGY PREDICTED BY IDOCK:   -5.25 KCAL/MOL
REMARK 922        TOTAL FREE ENERGY PREDICTED BY IDOCK:   -8.64 KCAL/MOL
REMARK 923 INTER-LIGAND FREE ENERGY PREDICTED BY IDOCK:   -7.07 KCAL/MOL
REMARK 924 INTRA-LIGAND FREE ENERGY PREDICTED BY IDOCK:   -1.57 KCAL/MOL
REMARK 927      BINDING AFFINITY PREDICTED BY RF-SCORE:    0.00 PKD
ROOT
HETATM    1  C   UNL     1      -6.753   9.993  66.744  1.00  0.00    -0.076 C  
HETATM    2  C   UNL     1      -7.404   9.895  65.366  1.00  0.00    -0.128 C  
ENDROOT
BRANCH   2   3
HETATM    3  N   UNL     1      -8.294   8.733  65.191  1.00  0.00    -0.158 NA 
BRANCH   3   4
HETATM    4  C   UNL     1      -7.785   7.494  65.802  1.00  0.00    -0.098 C  
HETATM    5  C   UNL     1      -8.643   6.246  65.631  1.00  0.00    -0.143 C  
ENDBRANCH   3   4
BRANCH   3   6
HETATM    6  C   UNL     1      -9.657   9.098  65.619  1.00  0.00    -0.217 C  
BRANCH   6   7
HETATM    7  C   UNL     1     -10.149  10.370  64.950  1.00  0.00    -0.382 C  
HETATM    8  C   UNL     1     -10.572  11.462  64.376  1.00  0.00    -0.403 C  
BRANCH   8   9
HETATM    9  C   UNL     1     -11.023  12.687  63.712  1.00  0.00    -0.435 C  
BRANCH   9  10
HETATM   10  O   UNL     1     -10.731  13.837  64.520  1.00  0.00    -0.408 OA 
BRANCH  10  11
HETATM   11  C   UNL     1     -11.413  13.894  65.705  1.00  0.00    -0.321 C  
HETATM   12  O   UNL     1     -12.635  13.876  65.804  1.00  0.00    -0.491 OA 
HETATM   13  C   UNL     1     -10.404  14.034  66.902  1.00  0.00    -0.269 C  
HETATM   14  C   UNL     1     -10.592  12.827  67.845  1.00  0.00    -0.232 A  
HETATM   15  C   UNL     1     -10.664  15.405  67.626  1.00  0.00    -0.292 C  
HETATM   16  O   UNL     1      -9.054  14.009  66.415  1.00  0.00    -0.438 OA 
HETATM   17  H   UNL     1      -8.444  14.094  67.138  1.00  0.00     0.000 HD 
HETATM   18  C   UNL     1      -9.530  11.952  68.143  1.00  0.00    -0.195 A  
HETATM   19  C   UNL     1      -9.764  15.663  68.857  1.00  0.00    -0.220 C  
HETATM   20  C   UNL     1      -9.714  10.840  68.969  1.00  0.00    -0.201 A  
HETATM   21  C   UNL     1      -8.337  16.092  68.522  1.00  0.00    -0.195 C  
HETATM   22  C   UNL     1      -8.295  17.279  67.565  1.00  0.00    -0.204 C  
HETATM   23  C   UNL     1     -10.965  10.576  69.517  1.00  0.00    -0.312 A  
HETATM   24  C   UNL     1     -12.030  11.431  69.248  1.00  0.00    -0.400 A  
HETATM   25  C   UNL     1      -9.172  17.084  66.336  1.00  0.00    -0.298 C  
HETATM   26  C   UNL     1     -10.588  16.642  66.699  1.00  0.00    -0.203 C  
HETATM   27  C   UNL     1     -11.842  12.547  68.428  1.00  0.00    -0.353 A  
ENDBRANCH  10  11
ENDBRANCH   9  10
ENDBRANCH   8   9
ENDBRANCH   6   7
ENDBRANCH   3   6
ENDBRANCH   2   3
TORSDOF 7
ENDMDL
MODEL       36
REMARK 921   NORMALIZED FREE ENERGY PREDICTED BY IDOCK:   -5.20 KCAL/MOL
REMARK 922        TOTAL FREE ENERGY PREDICTED BY IDOCK:   -8.57 KCAL/MOL
REMARK 923 INTER-LIGAND FREE ENERGY PREDICTED BY IDOCK:   -7.36 KCAL/MOL
REMARK 924 INTRA-LIGAND FREE ENERGY PREDICTED BY IDOCK:   -1.21 KCAL/MOL
REMARK 927      BINDING AFFINITY PREDICTED BY RF-SCORE:    0.00 PKD
ROOT
HETATM    1  C   UNL     1     -10.476  19.643  67.420  1.00  0.00    -0.596 C  
HETATM    2  C   UNL     1     -10.015  18.511  68.336  1.00  0.00    -0.380 C  
ENDROOT
BRANCH   2   3
HETATM    3  N   UNL     1     -10.133  17.164  67.751  1.00  0.00    -0.294 NA 
BRANCH   3   4
HETATM    4  C   UNL     1     -11.162  16.325  68.386  1.00  0.00    -0.349 C  
HETATM    5  C   UNL     1     -11.058  16.140  69.895  1.00  0.00    -0.357 C  
ENDBRANCH   3   4
BRANCH   3   6
HETATM    6  C   UNL     1     -10.272  17.281  66.288  1.00  0.00    -0.342 C  
BRANCH   6   7
HETATM    7  C   UNL     1     -10.639  15.958  65.637  1.00  0.00    -0.393 C  
HETATM    8  C   UNL     1     -10.954  14.822  65.080  1.00  0.00    -0.426 C  
BRANCH   8   9
HETATM    9  C   UNL     1     -11.281  13.536  64.460  1.00  0.00    -0.375 C  
BRANCH   9  10
HETATM   10  O   UNL     1     -10.298  12.547  64.799  1.00  0.00    -0.292 OA 
BRANCH  10  11
HETATM   11  C   UNL     1     -10.599  11.794  65.902  1.00  0.00    -0.271 C  
HETATM   12  O   UNL     1     -11.730  11.643  66.352  1.00  0.00    -0.472 OA 
HETATM   13  C   UNL     1      -9.284  11.200  66.524  1.00  0.00    -0.179 C  
HETATM   14  C   UNL     1      -9.387   9.660  66.512  1.00  0.00    -0.212 A  
HETATM   15  C   UNL     1      -9.105  11.776  67.976  1.00  0.00    -0.180 C  
HETATM   16  O   UNL     1      -8.148  11.573  65.728  1.00  0.00    -0.369 OA 
HETATM   17  H   UNL     1      -7.354  11.214  66.104  1.00  0.00     0.000 HD 
HETATM   18  C   UNL     1      -8.439   8.862  65.844  1.00  0.00    -0.147 A  
HETATM   19  C   UNL     1      -7.865  11.244  68.731  1.00  0.00    -0.139 C  
HETATM   20  C   UNL     1      -8.558   7.471  65.806  1.00  0.00    -0.158 A  
HETATM   21  C   UNL     1      -6.541  11.874  68.301  1.00  0.00    -0.054 C  
HETATM   22  C   UNL     1      -6.582  13.397  68.337  1.00  0.00    -0.094 C  
HETATM   23  C   UNL     1      -9.628   6.842  66.434  1.00  0.00    -0.152 A  
HETATM   24  C   UNL     1     -10.575   7.606  67.112  1.00  0.00    -0.410 A  
HETATM   25  C   UNL     1      -7.791  13.978  67.615  1.00  0.00    -0.185 C  
HETATM   26  C   UNL     1      -9.097  13.322  68.054  1.00  0.00    -0.202 C  
HETATM   27  C   UNL     1     -10.450   8.998  67.156  1.00  0.00    -0.333 A  
ENDBRANCH  10  11
ENDBRANCH   9  10
ENDBRANCH   8   9
ENDBRANCH   6   7
ENDBRANCH   3   6
ENDBRANCH   2   3
TORSDOF 7
ENDMDL
MODEL       37
REMARK 921   NORMALIZED FREE ENERGY PREDICTED BY IDOCK:   -5.18 KCAL/MOL
REMARK 922        TOTAL FREE ENERGY PREDICTED BY IDOCK:   -8.54 KCAL/MOL
REMARK 923 INTER-LIGAND FREE ENERGY PREDICTED BY IDOCK:   -7.51 KCAL/MOL
REMARK 924 INTRA-LIGAND FREE ENERGY PREDICTED BY IDOCK:   -1.03 KCAL/MOL
REMARK 927      BINDING AFFINITY PREDICTED BY RF-SCORE:    0.00 PKD
ROOT
HETATM    1  C   UNL     1     -12.394  13.441  63.465  1.00  0.00    -0.398 C  
HETATM    2  C   UNL     1     -12.258  12.548  64.696  1.00  0.00    -0.453 C  
ENDROOT
BRANCH   2   3
HETATM    3  N   UNL     1     -11.055  11.697  64.705  1.00  0.00    -0.300 NA 
BRANCH   3   4
HETATM    4  C   UNL     1     -10.169  11.904  63.547  1.00  0.00    -0.457 C  
HETATM    5  C   UNL     1      -9.481  10.666  62.983  1.00  0.00    -0.363 C  
ENDBRANCH   3   4
BRANCH   3   6
HETATM    6  C   UNL     1     -10.380  11.825  66.008  1.00  0.00    -0.239 C  
BRANCH   6   7
HETATM    7  C   UNL     1     -11.100  12.787  66.938  1.00  0.00    -0.308 C  
HETATM    8  C   UNL     1     -11.717  13.613  67.736  1.00  0.00    -0.397 C  
BRANCH   8   9
HETATM    9  C   UNL     1     -12.386  14.543  68.648  1.00  0.00    -0.004 C  
BRANCH   9  10
HETATM   10  O   UNL     1     -11.868  15.872  68.486  1.00  0.00    -0.366 OA 
BRANCH  10  11
HETATM   11  C   UNL     1     -10.738  16.139  69.210  1.00  0.00    -0.295 C  
HETATM   12  O   UNL     1     -10.668  16.084  70.434  1.00  0.00    -0.295 OA 
HETATM   13  C   UNL     1      -9.571  16.569  68.249  1.00  0.00    -0.223 C  
HETATM   14  C   UNL     1      -8.403  15.574  68.420  1.00  0.00    -0.154 A  
HETATM   15  C   UNL     1      -9.152  18.045  68.589  1.00  0.00    -0.276 C  
HETATM   16  O   UNL     1     -10.008  16.507  66.883  1.00  0.00    -0.254 OA 
HETATM   17  H   UNL     1      -9.303  16.767  66.302  1.00  0.00     0.000 HD 
HETATM   18  C   UNL     1      -7.905  14.829  67.335  1.00  0.00    -0.224 A  
HETATM   19  C   UNL     1      -7.979  18.592  67.744  1.00  0.00    -0.267 C  
HETATM   20  C   UNL     1      -6.872  13.903  67.502  1.00  0.00    -0.148 A  
HETATM   21  C   UNL     1      -8.359  19.010  66.324  1.00  0.00    -0.293 C  
HETATM   22  C   UNL     1      -9.539  19.975  66.298  1.00  0.00    -0.516 C  
HETATM   23  C   UNL     1      -6.312  13.698  68.759  1.00  0.00    -0.093 A  
HETATM   24  C   UNL     1      -6.779  14.429  69.848  1.00  0.00    -0.101 A  
HETATM   25  C   UNL     1     -10.723  19.492  67.124  1.00  0.00    -0.599 C  
HETATM   26  C   UNL     1     -10.312  19.068  68.532  1.00  0.00    -0.336 C  
HETATM   27  C   UNL     1      -7.807  15.361  69.678  1.00  0.00    -0.149 A  
ENDBRANCH  10  11
ENDBRANCH   9  10
ENDBRANCH   8   9
ENDBRANCH   6   7
ENDBRANCH   3   6
ENDBRANCH   2   3
TORSDOF 7
ENDMDL
MODEL       38
REMARK 921   NORMALIZED FREE ENERGY PREDICTED BY IDOCK:   -5.09 KCAL/MOL
REMARK 922        TOTAL FREE ENERGY PREDICTED BY IDOCK:   -8.41 KCAL/MOL
REMARK 923 INTER-LIGAND FREE ENERGY PREDICTED BY IDOCK:   -7.96 KCAL/MOL
REMARK 924 INTRA-LIGAND FREE ENERGY PREDICTED BY IDOCK:   -0.45 KCAL/MOL
REMARK 927      BINDING AFFINITY PREDICTED BY RF-SCORE:    0.00 PKD
ROOT
HETATM    1  C   UNL     1      -6.108  20.226  68.831  1.00  0.00    -0.356 C  
HETATM    2  C   UNL     1      -7.485  19.760  68.363  1.00  0.00    -0.314 C  
ENDROOT
BRANCH   2   3
HETATM    3  N   UNL     1      -7.813  20.119  66.972  1.00  0.00    -0.307 NA 
BRANCH   3   4
HETATM    4  C   UNL     1      -6.822  19.656  65.987  1.00  0.00    -0.252 C  
HETATM    5  C   UNL     1      -6.683  18.147  65.815  1.00  0.00    -0.308 C  
ENDBRANCH   3   4
BRANCH   3   6
HETATM    6  C   UNL     1      -9.194  19.702  66.676  1.00  0.00    -0.364 C  
BRANCH   6   7
HETATM    7  C   UNL     1      -9.675  18.601  67.606  1.00  0.00    -0.330 C  
HETATM    8  C   UNL     1     -10.089  17.656  68.403  1.00  0.00    -0.368 C  
BRANCH   8   9
HETATM    9  C   UNL     1     -10.581  16.599  69.290  1.00  0.00    -0.343 C  
BRANCH   9  10
HETATM   10  O   UNL     1     -11.098  15.499  68.527  1.00  0.00    -0.273 OA 
BRANCH  10  11
HETATM   11  C   UNL     1     -10.175  14.543  68.198  1.00  0.00    -0.230 C  
HETATM   12  O   UNL     1      -8.972  14.634  68.423  1.00  0.00    -0.168 OA 
HETATM   13  C   UNL     1     -10.876  13.349  67.456  1.00  0.00    -0.263 C  
HETATM   14  C   UNL     1     -10.644  12.060  68.273  1.00  0.00    -0.233 A  
HETATM   15  C   UNL     1     -10.293  13.246  66.000  1.00  0.00    -0.290 C  
HETATM   16  O   UNL     1     -12.291  13.576  67.381  1.00  0.00    -0.287 OA 
HETATM   17  H   UNL     1     -12.715  12.854  66.932  1.00  0.00     0.000 HD 
HETATM   18  C   UNL     1     -11.719  11.294  68.762  1.00  0.00    -0.405 A  
HETATM   19  C   UNL     1     -10.866  12.081  65.159  1.00  0.00    -0.347 C  
HETATM   20  C   UNL     1     -11.504  10.147  69.532  1.00  0.00    -0.227 A  
HETATM   21  C   UNL     1     -12.266  12.330  64.599  1.00  0.00    -0.454 C  
HETATM   22  C   UNL     1     -12.362  13.645  63.834  1.00  0.00    -0.375 C  
HETATM   23  C   UNL     1     -10.208   9.739  69.832  1.00  0.00    -0.291 A  
HETATM   24  C   UNL     1      -9.126  10.472  69.352  1.00  0.00    -0.123 A  
HETATM   25  C   UNL     1     -11.802  14.829  64.612  1.00  0.00    -0.442 C  
HETATM   26  C   UNL     1     -10.409  14.548  65.171  1.00  0.00    -0.438 C  
HETATM   27  C   UNL     1      -9.343  11.614  68.575  1.00  0.00    -0.169 A  
ENDBRANCH  10  11
ENDBRANCH   9  10
ENDBRANCH   8   9
ENDBRANCH   6   7
ENDBRANCH   3   6
ENDBRANCH   2   3
TORSDOF 7
ENDMDL
MODEL       39
REMARK 921   NORMALIZED FREE ENERGY PREDICTED BY IDOCK:   -5.08 KCAL/MOL
REMARK 922        TOTAL FREE ENERGY PREDICTED BY IDOCK:   -8.41 KCAL/MOL
REMARK 923 INTER-LIGAND FREE ENERGY PREDICTED BY IDOCK:   -7.19 KCAL/MOL
REMARK 924 INTRA-LIGAND FREE ENERGY PREDICTED BY IDOCK:   -1.22 KCAL/MOL
REMARK 927      BINDING AFFINITY PREDICTED BY RF-SCORE:    0.00 PKD
ROOT
HETATM    1  C   UNL     1      -9.656   7.844  66.629  1.00  0.00    -0.293 C  
HETATM    2  C   UNL     1      -9.299   9.195  67.244  1.00  0.00    -0.135 C  
ENDROOT
BRANCH   2   3
HETATM    3  N   UNL     1      -9.007  10.256  66.264  1.00  0.00    -0.150 NA 
BRANCH   3   4
HETATM    4  C   UNL     1      -7.697  10.117  65.606  1.00  0.00    -0.143 C  
HETATM    5  C   UNL     1      -6.467  10.357  66.474  1.00  0.00    -0.089 C  
ENDBRANCH   3   4
BRANCH   3   6
HETATM    6  C   UNL     1     -10.139  10.377  65.329  1.00  0.00    -0.300 C  
BRANCH   6   7
HETATM    7  C   UNL     1     -10.981  11.612  65.600  1.00  0.00    -0.322 C  
HETATM    8  C   UNL     1     -11.703  12.672  65.834  1.00  0.00    -0.470 C  
BRANCH   8   9
HETATM    9  C   UNL     1     -12.525  13.850  66.120  1.00  0.00    -0.436 C  
BRANCH   9  10
HETATM   10  O   UNL     1     -11.823  14.759  66.980  1.00  0.00    -0.362 OA 
BRANCH  10  11
HETATM   11  C   UNL     1     -10.892  15.541  66.352  1.00  0.00    -0.277 C  
HETATM   12  O   UNL     1     -10.877  15.768  65.146  1.00  0.00    -0.400 OA 
HETATM   13  C   UNL     1      -9.831  16.056  67.390  1.00  0.00    -0.236 C  
HETATM   14  C   UNL     1      -9.858  17.599  67.395  1.00  0.00    -0.305 A  
HETATM   15  C   UNL     1      -8.420  15.485  66.998  1.00  0.00    -0.266 C  
HETATM   16  O   UNL     1     -10.171  15.604  68.709  1.00  0.00    -0.204 OA 
HETATM   17  H   UNL     1      -9.529  15.915  69.337  1.00  0.00     0.000 HD 
HETATM   18  C   UNL     1     -10.131  18.328  68.568  1.00  0.00    -0.419 A  
HETATM   19  C   UNL     1      -7.262  15.944  67.915  1.00  0.00    -0.151 C  
HETATM   20  C   UNL     1     -10.190  19.724  68.559  1.00  0.00    -0.547 A  
HETATM   21  C   UNL     1      -7.196  15.227  69.262  1.00  0.00    -0.184 C  
HETATM   22  C   UNL     1      -7.198  13.710  69.115  1.00  0.00     0.005 C  
HETATM   23  C   UNL     1      -9.980  20.426  67.377  1.00  0.00    -0.556 A  
HETATM   24  C   UNL     1      -9.698  19.731  66.203  1.00  0.00    -0.510 A  
HETATM   25  C   UNL     1      -8.313  13.200  68.212  1.00  0.00    -0.152 C  
HETATM   26  C   UNL     1      -8.364  13.943  66.879  1.00  0.00    -0.029 C  
HETATM   27  C   UNL     1      -9.631  18.335  66.216  1.00  0.00    -0.256 A  
ENDBRANCH  10  11
ENDBRANCH   9  10
ENDBRANCH   8   9
ENDBRANCH   6   7
ENDBRANCH   3   6
ENDBRANCH   2   3
TORSDOF 7
ENDMDL
MODEL       40
REMARK 921   NORMALIZED FREE ENERGY PREDICTED BY IDOCK:   -5.06 KCAL/MOL
REMARK 922        TOTAL FREE ENERGY PREDICTED BY IDOCK:   -8.38 KCAL/MOL
REMARK 923 INTER-LIGAND FREE ENERGY PREDICTED BY IDOCK:   -7.40 KCAL/MOL
REMARK 924 INTRA-LIGAND FREE ENERGY PREDICTED BY IDOCK:   -0.98 KCAL/MOL
REMARK 927      BINDING AFFINITY PREDICTED BY RF-SCORE:    0.00 PKD
ROOT
HETATM    1  C   UNL     1     -11.372   4.850  73.006  1.00  0.00    -0.354 C  
HETATM    2  C   UNL     1     -10.103   5.392  72.352  1.00  0.00    -0.182 C  
ENDROOT
BRANCH   2   3
HETATM    3  N   UNL     1     -10.303   6.603  71.538  1.00  0.00    -0.208 NA 
BRANCH   3   4
HETATM    4  C   UNL     1     -11.525   6.575  70.717  1.00  0.00    -0.360 C  
HETATM    5  C   UNL     1     -11.348   6.240  69.240  1.00  0.00    -0.411 C  
ENDBRANCH   3   4
BRANCH   3   6
HETATM    6  C   UNL     1     -10.187   7.792  72.400  1.00  0.00    -0.247 C  
BRANCH   6   7
HETATM    7  C   UNL     1     -10.983   8.971  71.866  1.00  0.00    -0.423 C  
HETATM    8  C   UNL     1     -11.665   9.983  71.407  1.00  0.00    -0.414 C  
BRANCH   8   9
HETATM    9  C   UNL     1     -12.414  11.138  70.906  1.00  0.00    -0.409 C  
BRANCH   9  10
HETATM   10  O   UNL     1     -11.600  11.925  70.024  1.00  0.00    -0.291 OA 
BRANCH  10  11
HETATM   11  C   UNL     1     -11.604  11.513  68.719  1.00  0.00    -0.316 C  
HETATM   12  O   UNL     1     -12.447  10.768  68.230  1.00  0.00    -0.047 OA 
HETATM   13  C   UNL     1     -10.354  12.095  67.966  1.00  0.00    -0.205 C  
HETATM   14  C   UNL     1     -10.850  12.964  66.791  1.00  0.00    -0.288 A  
HETATM   15  C   UNL     1      -9.451  10.901  67.486  1.00  0.00    -0.168 C  
HETATM   16  O   UNL     1      -9.593  12.934  68.847  1.00  0.00    -0.411 OA 
HETATM   17  H   UNL     1      -8.837  13.286  68.392  1.00  0.00     0.000 HD 
HETATM   18  C   UNL     1     -10.504  14.325  66.683  1.00  0.00    -0.278 A  
HETATM   19  C   UNL     1      -8.195  11.324  66.689  1.00  0.00    -0.164 C  
HETATM   20  C   UNL     1     -10.985  15.117  65.637  1.00  0.00    -0.359 A  
HETATM   21  C   UNL     1      -7.052  11.865  67.545  1.00  0.00    -0.123 C  
HETATM   22  C   UNL     1      -6.677  10.920  68.681  1.00  0.00    -0.059 C  
HETATM   23  C   UNL     1     -11.825  14.568  64.673  1.00  0.00    -0.462 A  
HETATM   24  C   UNL     1     -12.175  13.222  64.749  1.00  0.00    -0.466 A  
HETATM   25  C   UNL     1      -7.879  10.461  69.496  1.00  0.00    -0.161 C  
HETATM   26  C   UNL     1      -9.010   9.938  68.615  1.00  0.00    -0.128 C  
HETATM   27  C   UNL     1     -11.686  12.429  65.792  1.00  0.00    -0.470 A  
ENDBRANCH  10  11
ENDBRANCH   9  10
ENDBRANCH   8   9
ENDBRANCH   6   7
ENDBRANCH   3   6
ENDBRANCH   2   3
TORSDOF 7
ENDMDL
MODEL       41
REMARK 921   NORMALIZED FREE ENERGY PREDICTED BY IDOCK:   -5.05 KCAL/MOL
REMARK 922        TOTAL FREE ENERGY PREDICTED BY IDOCK:   -8.36 KCAL/MOL
REMARK 923 INTER-LIGAND FREE ENERGY PREDICTED BY IDOCK:   -7.88 KCAL/MOL
REMARK 924 INTRA-LIGAND FREE ENERGY PREDICTED BY IDOCK:   -0.47 KCAL/MOL
REMARK 927      BINDING AFFINITY PREDICTED BY RF-SCORE:    0.00 PKD
ROOT
HETATM    1  C   UNL     1     -12.395  15.538  74.399  1.00  0.00    -0.798 C  
HETATM    2  C   UNL     1     -12.129  16.296  73.100  1.00  0.00    -0.509 C  
ENDROOT
BRANCH   2   3
HETATM    3  N   UNL     1     -12.794  15.730  71.914  1.00  0.00    -0.448 NA 
BRANCH   3   4
HETATM    4  C   UNL     1     -11.880  15.043  70.987  1.00  0.00    -0.323 C  
HETATM    5  C   UNL     1     -11.962  15.447  69.519  1.00  0.00    -0.358 C  
ENDBRANCH   3   4
BRANCH   3   6
HETATM    6  C   UNL     1     -13.940  14.909  72.345  1.00  0.00    -0.481 C  
BRANCH   6   7
HETATM    7  C   UNL     1     -13.702  13.425  72.120  1.00  0.00    -0.646 C  
HETATM    8  C   UNL     1     -13.498  12.152  71.928  1.00  0.00    -0.318 C  
BRANCH   8   9
HETATM    9  C   UNL     1     -13.257  10.719  71.739  1.00  0.00    -0.418 C  
BRANCH   9  10
HETATM   10  O   UNL     1     -11.851  10.454  71.625  1.00  0.00    -0.249 OA 
BRANCH  10  11
HETATM   11  C   UNL     1     -11.451   9.996  70.399  1.00  0.00    -0.314 C  
HETATM   12  O   UNL     1     -11.972  10.316  69.335  1.00  0.00    -0.129 OA 
HETATM   13  C   UNL     1     -10.270   8.973  70.564  1.00  0.00    -0.219 C  
HETATM   14  C   UNL     1      -9.042   9.515  69.803  1.00  0.00    -0.219 A  
HETATM   15  C   UNL     1     -10.734   7.571  70.028  1.00  0.00    -0.248 C  
HETATM   16  O   UNL     1      -9.912   8.851  71.950  1.00  0.00    -0.322 OA 
HETATM   17  H   UNL     1      -9.198   8.233  72.050  1.00  0.00     0.000 HD 
HETATM   18  C   UNL     1      -7.818   9.759  70.455  1.00  0.00    -0.144 A  
HETATM   19  C   UNL     1      -9.653   6.467  70.091  1.00  0.00    -0.171 C  
HETATM   20  C   UNL     1      -6.720  10.284  69.768  1.00  0.00    -0.103 A  
HETATM   21  C   UNL     1      -9.428   5.878  71.483  1.00  0.00    -0.171 C  
HETATM   22  C   UNL     1     -10.723   5.402  72.130  1.00  0.00    -0.286 C  
HETATM   23  C   UNL     1      -6.819  10.579  68.413  1.00  0.00    -0.064 A  
HETATM   24  C   UNL     1      -8.014  10.338  67.740  1.00  0.00    -0.102 A  
HETATM   25  C   UNL     1     -11.830   6.447  72.088  1.00  0.00    -0.361 C  
HETATM   26  C   UNL     1     -12.024   7.028  70.689  1.00  0.00    -0.361 C  
HETATM   27  C   UNL     1      -9.109   9.805  68.426  1.00  0.00    -0.123 A  
ENDBRANCH  10  11
ENDBRANCH   9  10
ENDBRANCH   8   9
ENDBRANCH   6   7
ENDBRANCH   3   6
ENDBRANCH   2   3
TORSDOF 7
ENDMDL
MODEL       42
REMARK 921   NORMALIZED FREE ENERGY PREDICTED BY IDOCK:   -5.05 KCAL/MOL
REMARK 922        TOTAL FREE ENERGY PREDICTED BY IDOCK:   -8.35 KCAL/MOL
REMARK 923 INTER-LIGAND FREE ENERGY PREDICTED BY IDOCK:   -7.70 KCAL/MOL
REMARK 924 INTRA-LIGAND FREE ENERGY PREDICTED BY IDOCK:   -0.66 KCAL/MOL
REMARK 927      BINDING AFFINITY PREDICTED BY RF-SCORE:    0.00 PKD
ROOT
HETATM    1  C   UNL     1     -11.516  11.175  68.076  1.00  0.00    -0.366 C  
HETATM    2  C   UNL     1     -12.002  11.886  69.338  1.00  0.00    -0.289 C  
ENDROOT
BRANCH   2   3
HETATM    3  N   UNL     1     -12.623  11.000  70.338  1.00  0.00    -0.291 NA 
BRANCH   3   4
HETATM    4  C   UNL     1     -11.789   9.848  70.716  1.00  0.00    -0.330 C  
HETATM    5  C   UNL     1     -12.142   9.147  72.023  1.00  0.00    -0.431 C  
ENDBRANCH   3   4
BRANCH   3   6
HETATM    6  C   UNL     1     -13.084  11.808  71.481  1.00  0.00    -0.287 C  
BRANCH   6   7
HETATM    7  C   UNL     1     -12.566  13.235  71.424  1.00  0.00    -0.365 C  
HETATM    8  C   UNL     1     -12.122  14.460  71.374  1.00  0.00    -0.397 C  
BRANCH   8   9
HETATM    9  C   UNL     1     -11.603  15.828  71.298  1.00  0.00    -0.441 C  
BRANCH   9  10
HETATM   10  O   UNL     1     -11.547  16.273  69.935  1.00  0.00    -0.277 OA 
BRANCH  10  11
HETATM   11  C   UNL     1     -10.424  15.890  69.252  1.00  0.00    -0.253 C  
HETATM   12  O   UNL     1      -9.542  15.173  69.713  1.00  0.00    -0.174 OA 
HETATM   13  C   UNL     1     -10.414  16.541  67.822  1.00  0.00    -0.308 C  
HETATM   14  C   UNL     1     -10.391  15.413  66.769  1.00  0.00    -0.279 A  
HETATM   15  C   UNL     1      -9.168  17.492  67.707  1.00  0.00    -0.253 C  
HETATM   16  O   UNL     1     -11.611  17.309  67.621  1.00  0.00     0.363 OA 
HETATM   17  H   UNL     1     -11.605  17.703  66.757  1.00  0.00     0.000 HD 
HETATM   18  C   UNL     1     -11.400  15.293  65.795  1.00  0.00    -0.180 A  
HETATM   19  C   UNL     1      -9.005  18.177  66.330  1.00  0.00    -0.256 C  
HETATM   20  C   UNL     1     -11.393  14.249  64.866  1.00  0.00    -0.372 A  
HETATM   21  C   UNL     1      -9.947  19.356  66.092  1.00  0.00    -0.501 C  
HETATM   22  C   UNL     1      -9.888  20.385  67.216  1.00  0.00    -0.597 C  
HETATM   23  C   UNL     1     -10.378  13.298  64.890  1.00  0.00    -0.368 A  
HETATM   24  C   UNL     1      -9.361  13.399  65.836  1.00  0.00     0.055 A  
HETATM   25  C   UNL     1     -10.032  19.764  68.600  1.00  0.00    -0.535 C  
HETATM   26  C   UNL     1      -9.090  18.581  68.805  1.00  0.00    -0.283 C  
HETATM   27  C   UNL     1      -9.365  14.449  66.759  1.00  0.00    -0.285 A  
ENDBRANCH  10  11
ENDBRANCH   9  10
ENDBRANCH   8   9
ENDBRANCH   6   7
ENDBRANCH   3   6
ENDBRANCH   2   3
TORSDOF 7
ENDMDL
MODEL       43
REMARK 921   NORMALIZED FREE ENERGY PREDICTED BY IDOCK:   -5.01 KCAL/MOL
REMARK 922        TOTAL FREE ENERGY PREDICTED BY IDOCK:   -8.31 KCAL/MOL
REMARK 923 INTER-LIGAND FREE ENERGY PREDICTED BY IDOCK:   -7.39 KCAL/MOL
REMARK 924 INTRA-LIGAND FREE ENERGY PREDICTED BY IDOCK:   -0.92 KCAL/MOL
REMARK 927      BINDING AFFINITY PREDICTED BY RF-SCORE:    0.00 PKD
ROOT
HETATM    1  C   UNL     1     -12.429  12.036  63.529  1.00  0.00    -0.654 C  
HETATM    2  C   UNL     1     -12.132  12.444  64.970  1.00  0.00    -0.407 C  
ENDROOT
BRANCH   2   3
HETATM    3  N   UNL     1     -10.969  11.769  65.571  1.00  0.00    -0.297 NA 
BRANCH   3   4
HETATM    4  C   UNL     1     -10.376  10.727  64.716  1.00  0.00    -0.310 C  
HETATM    5  C   UNL     1      -9.687   9.569  65.428  1.00  0.00    -0.314 C  
ENDBRANCH   3   4
BRANCH   3   6
HETATM    6  C   UNL     1     -10.006  12.783  66.036  1.00  0.00    -0.271 C  
BRANCH   6   7
HETATM    7  C   UNL     1     -10.403  14.189  65.618  1.00  0.00    -0.348 C  
HETATM    8  C   UNL     1     -10.743  15.395  65.259  1.00  0.00    -0.439 C  
BRANCH   8   9
HETATM    9  C   UNL     1     -11.097  16.759  64.857  1.00  0.00    -0.054 C  
BRANCH   9  10
HETATM   10  O   UNL     1     -10.295  17.718  65.562  1.00  0.00    -0.623 OA 
BRANCH  10  11
HETATM   11  C   UNL     1     -10.118  17.451  66.893  1.00  0.00    -0.314 C  
HETATM   12  O   UNL     1     -11.028  17.205  67.678  1.00  0.00    -0.285 OA 
HETATM   13  C   UNL     1      -8.595  17.554  67.266  1.00  0.00    -0.225 C  
HETATM   14  C   UNL     1      -8.131  16.188  67.815  1.00  0.00    -0.157 A  
HETATM   15  C   UNL     1      -8.408  18.713  68.311  1.00  0.00    -0.350 C  
HETATM   16  O   UNL     1      -7.819  17.847  66.095  1.00  0.00    -0.386 OA 
HETATM   17  H   UNL     1      -6.898  17.910  66.320  1.00  0.00     0.000 HD 
HETATM   18  C   UNL     1      -7.079  15.472  67.214  1.00  0.00    -0.225 A  
HETATM   19  C   UNL     1      -6.955  18.906  68.803  1.00  0.00    -0.332 C  
HETATM   20  C   UNL     1      -6.686  14.219  67.693  1.00  0.00    -0.188 A  
HETATM   21  C   UNL     1      -6.039  19.627  67.815  1.00  0.00    -0.225 C  
HETATM   22  C   UNL     1      -6.626  20.950  67.336  1.00  0.00    -0.412 C  
HETATM   23  C   UNL     1      -7.337  13.651  68.783  1.00  0.00    -0.093 A  
HETATM   24  C   UNL     1      -8.375  14.343  69.403  1.00  0.00     0.243 A  
HETATM   25  C   UNL     1      -8.063  20.822  66.847  1.00  0.00    -0.152 C  
HETATM   26  C   UNL     1      -8.951  20.086  67.848  1.00  0.00    -0.356 C  
HETATM   27  C   UNL     1      -8.761  15.600  68.928  1.00  0.00    -0.215 A  
ENDBRANCH  10  11
ENDBRANCH   9  10
ENDBRANCH   8   9
ENDBRANCH   6   7
ENDBRANCH   3   6
ENDBRANCH   2   3
TORSDOF 7
ENDMDL
MODEL       44
REMARK 921   NORMALIZED FREE ENERGY PREDICTED BY IDOCK:   -4.99 KCAL/MOL
REMARK 922        TOTAL FREE ENERGY PREDICTED BY IDOCK:   -8.27 KCAL/MOL
REMARK 923 INTER-LIGAND FREE ENERGY PREDICTED BY IDOCK:   -7.70 KCAL/MOL
REMARK 924 INTRA-LIGAND FREE ENERGY PREDICTED BY IDOCK:   -0.57 KCAL/MOL
REMARK 927      BINDING AFFINITY PREDICTED BY RF-SCORE:    0.00 PKD
ROOT
HETATM    1  C   UNL     1     -10.114   5.233  69.753  1.00  0.00    -0.334 C  
HETATM    2  C   UNL     1      -9.943   6.190  68.575  1.00  0.00    -0.147 C  
ENDROOT
BRANCH   2   3
HETATM    3  N   UNL     1     -10.176   7.608  68.899  1.00  0.00    -0.205 NA 
BRANCH   3   4
HETATM    4  C   UNL     1      -9.205   8.170  69.852  1.00  0.00    -0.151 C  
HETATM    5  C   UNL     1      -9.770   8.746  71.145  1.00  0.00    -0.315 C  
ENDBRANCH   3   4
BRANCH   3   6
HETATM    6  C   UNL     1     -10.304   8.377  67.649  1.00  0.00    -0.252 C  
BRANCH   6   7
HETATM    7  C   UNL     1      -9.335   9.546  67.590  1.00  0.00    -0.141 C  
HETATM    8  C   UNL     1      -8.504  10.549  67.541  1.00  0.00    -0.118 C  
BRANCH   8   9
HETATM    9  C   UNL     1      -7.586  11.690  67.505  1.00  0.00    -0.128 C  
BRANCH   9  10
HETATM   10  O   UNL     1      -8.200  12.813  66.856  1.00  0.00    -0.135 OA 
BRANCH  10  11
HETATM   11  C   UNL     1      -9.297  13.319  67.501  1.00  0.00    -0.218 C  
HETATM   12  O   UNL     1      -9.538  13.154  68.692  1.00  0.00    -0.152 OA 
HETATM   13  C   UNL     1     -10.211  14.093  66.484  1.00  0.00    -0.278 C  
HETATM   14  C   UNL     1     -10.333  15.559  66.951  1.00  0.00    -0.290 A  
HETATM   15  C   UNL     1     -11.606  13.373  66.407  1.00  0.00    -0.381 C  
HETATM   16  O   UNL     1      -9.610  14.093  65.180  1.00  0.00    -0.542 OA 
HETATM   17  H   UNL     1     -10.162  14.561  64.565  1.00  0.00     0.000 HD 
HETATM   18  C   UNL     1      -9.938  16.631  66.128  1.00  0.00    -0.356 A  
HETATM   19  C   UNL     1     -12.630  14.051  65.468  1.00  0.00    -0.543 C  
HETATM   20  C   UNL     1     -10.017  17.954  66.570  1.00  0.00    -0.357 A  
HETATM   21  C   UNL     1     -12.396  13.793  63.980  1.00  0.00    -0.370 C  
HETATM   22  C   UNL     1     -12.273  12.308  63.659  1.00  0.00    -0.665 C  
HETATM   23  C   UNL     1     -10.492  18.239  67.846  1.00  0.00    -0.408 A  
HETATM   24  C   UNL     1     -10.900  17.199  68.677  1.00  0.00    -0.250 A  
HETATM   25  C   UNL     1     -11.282  11.584  64.562  1.00  0.00    -0.301 C  
HETATM   26  C   UNL     1     -11.530  11.870  66.041  1.00  0.00    -0.344 C  
HETATM   27  C   UNL     1     -10.828  15.876  68.231  1.00  0.00    -0.315 A  
ENDBRANCH  10  11
ENDBRANCH   9  10
ENDBRANCH   8   9
ENDBRANCH   6   7
ENDBRANCH   3   6
ENDBRANCH   2   3
TORSDOF 7
ENDMDL
MODEL       45
REMARK 921   NORMALIZED FREE ENERGY PREDICTED BY IDOCK:   -4.98 KCAL/MOL
REMARK 922        TOTAL FREE ENERGY PREDICTED BY IDOCK:   -8.27 KCAL/MOL
REMARK 923 INTER-LIGAND FREE ENERGY PREDICTED BY IDOCK:   -6.93 KCAL/MOL
REMARK 924 INTRA-LIGAND FREE ENERGY PREDICTED BY IDOCK:   -1.34 KCAL/MOL
REMARK 927      BINDING AFFINITY PREDICTED BY RF-SCORE:    0.00 PKD
ROOT
HETATM    1  C   UNL     1     -12.301  12.548  64.528  1.00  0.00    -0.545 C  
HETATM    2  C   UNL     1     -12.322  13.712  65.516  1.00  0.00    -0.482 C  
ENDROOT
BRANCH   2   3
HETATM    3  N   UNL     1     -11.248  13.679  66.524  1.00  0.00    -0.305 NA 
BRANCH   3   4
HETATM    4  C   UNL     1     -10.008  14.348  66.096  1.00  0.00    -0.311 C  
HETATM    5  C   UNL     1      -8.839  14.311  67.074  1.00  0.00    -0.243 C  
ENDBRANCH   3   4
BRANCH   3   6
HETATM    6  C   UNL     1     -11.776  14.162  67.812  1.00  0.00    -0.373 C  
BRANCH   6   7
HETATM    7  C   UNL     1     -11.837  13.061  68.858  1.00  0.00    -0.358 C  
HETATM    8  C   UNL     1     -11.889  12.117  69.755  1.00  0.00    -0.397 C  
BRANCH   8   9
HETATM    9  C   UNL     1     -11.939  11.036  70.742  1.00  0.00    -0.333 C  
BRANCH   9  10
HETATM   10  O   UNL     1     -11.650   9.773  70.125  1.00  0.00    -0.243 OA 
BRANCH  10  11
HETATM   11  C   UNL     1     -10.364   9.333  70.293  1.00  0.00    -0.229 C  
HETATM   12  O   UNL     1      -9.636   9.658  71.225  1.00  0.00    -0.151 OA 
HETATM   13  C   UNL     1      -9.954   8.397  69.100  1.00  0.00    -0.196 C  
HETATM   14  C   UNL     1      -9.588   7.010  69.667  1.00  0.00    -0.150 A  
HETATM   15  C   UNL     1      -8.759   9.060  68.324  1.00  0.00    -0.130 C  
HETATM   16  O   UNL     1     -11.062   8.229  68.201  1.00  0.00    -0.439 OA 
HETATM   17  H   UNL     1     -10.814   7.664  67.479  1.00  0.00     0.000 HD 
HETATM   18  C   UNL     1     -10.262   5.844  69.257  1.00  0.00    -0.275 A  
HETATM   19  C   UNL     1      -8.220   8.227  67.138  1.00  0.00    -0.119 C  
HETATM   20  C   UNL     1      -9.950   4.594  69.801  1.00  0.00    -0.295 A  
HETATM   21  C   UNL     1      -9.085   8.277  65.880  1.00  0.00    -0.203 C  
HETATM   22  C   UNL     1      -9.390   9.705  65.441  1.00  0.00    -0.320 C  
HETATM   23  C   UNL     1      -8.958   4.481  70.769  1.00  0.00    -0.161 A  
HETATM   24  C   UNL     1      -8.269   5.616  71.186  1.00  0.00    -0.121 A  
HETATM   25  C   UNL     1      -9.917  10.577  66.573  1.00  0.00    -0.266 C  
HETATM   26  C   UNL     1      -9.041  10.497  67.821  1.00  0.00    -0.140 C  
HETATM   27  C   UNL     1      -8.575   6.864  70.635  1.00  0.00    -0.141 A  
ENDBRANCH  10  11
ENDBRANCH   9  10
ENDBRANCH   8   9
ENDBRANCH   6   7
ENDBRANCH   3   6
ENDBRANCH   2   3
TORSDOF 7
ENDMDL
MODEL       46
REMARK 921   NORMALIZED FREE ENERGY PREDICTED BY IDOCK:   -4.98 KCAL/MOL
REMARK 922        TOTAL FREE ENERGY PREDICTED BY IDOCK:   -8.26 KCAL/MOL
REMARK 923 INTER-LIGAND FREE ENERGY PREDICTED BY IDOCK:   -7.39 KCAL/MOL
REMARK 924 INTRA-LIGAND FREE ENERGY PREDICTED BY IDOCK:   -0.87 KCAL/MOL
REMARK 927      BINDING AFFINITY PREDICTED BY RF-SCORE:    0.00 PKD
ROOT
HETATM    1  C   UNL     1      -8.869  15.981  69.328  1.00  0.00    -0.227 C  
HETATM    2  C   UNL     1      -8.348  17.026  68.344  1.00  0.00    -0.241 C  
ENDROOT
BRANCH   2   3
HETATM    3  N   UNL     1      -8.733  18.412  68.663  1.00  0.00    -0.310 NA 
BRANCH   3   4
HETATM    4  C   UNL     1      -7.620  19.373  68.591  1.00  0.00    -0.363 C  
HETATM    5  C   UNL     1      -7.755  20.502  67.576  1.00  0.00    -0.336 C  
ENDBRANCH   3   4
BRANCH   3   6
HETATM    6  C   UNL     1      -9.904  18.789  67.851  1.00  0.00    -0.341 C  
BRANCH   6   7
HETATM    7  C   UNL     1     -10.233  17.747  66.795  1.00  0.00    -0.351 C  
HETATM    8  C   UNL     1     -10.514  16.854  65.889  1.00  0.00    -0.294 C  
BRANCH   8   9
HETATM    9  C   UNL     1     -10.849  15.869  64.857  1.00  0.00    -0.400 C  
BRANCH   9  10
HETATM   10  O   UNL     1      -9.920  14.776  64.881  1.00  0.00    -0.295 OA 
BRANCH  10  11
HETATM   11  C   UNL     1     -10.486  13.538  64.733  1.00  0.00    -0.413 C  
HETATM   12  O   UNL     1     -11.144  13.189  63.758  1.00  0.00    -0.371 OA 
HETATM   13  C   UNL     1     -10.207  12.661  66.006  1.00  0.00    -0.272 C  
HETATM   14  C   UNL     1      -9.424  11.404  65.574  1.00  0.00    -0.251 A  
HETATM   15  C   UNL     1     -11.579  12.306  66.687  1.00  0.00    -0.438 C  
HETATM   16  O   UNL     1      -9.395  13.390  66.939  1.00  0.00    -0.237 OA 
HETATM   17  H   UNL     1      -9.227  12.860  67.709  1.00  0.00     0.000 HD 
HETATM   18  C   UNL     1      -8.159  11.101  66.114  1.00  0.00    -0.111 A  
HETATM   19  C   UNL     1     -11.463  11.407  67.939  1.00  0.00    -0.361 C  
HETATM   20  C   UNL     1      -7.438   9.981  65.693  1.00  0.00    -0.137 A  
HETATM   21  C   UNL     1     -11.005  12.134  69.203  1.00  0.00    -0.215 C  
HETATM   22  C   UNL     1     -11.849  13.368  69.502  1.00  0.00    -0.391 C  
HETATM   23  C   UNL     1      -7.964   9.136  64.721  1.00  0.00    -0.126 A  
HETATM   24  C   UNL     1      -9.217   9.405  64.178  1.00  0.00    -0.042 A  
HETATM   25  C   UNL     1     -12.007  14.288  68.298  1.00  0.00    -0.346 C  
HETATM   26  C   UNL     1     -12.451  13.534  67.048  1.00  0.00    -0.106 C  
HETATM   27  C   UNL     1      -9.941  10.522  64.606  1.00  0.00    -0.415 A  
ENDBRANCH  10  11
ENDBRANCH   9  10
ENDBRANCH   8   9
ENDBRANCH   6   7
ENDBRANCH   3   6
ENDBRANCH   2   3
TORSDOF 7
ENDMDL
MODEL       47
REMARK 921   NORMALIZED FREE ENERGY PREDICTED BY IDOCK:   -4.97 KCAL/MOL
REMARK 922        TOTAL FREE ENERGY PREDICTED BY IDOCK:   -8.25 KCAL/MOL
REMARK 923 INTER-LIGAND FREE ENERGY PREDICTED BY IDOCK:   -7.63 KCAL/MOL
REMARK 924 INTRA-LIGAND FREE ENERGY PREDICTED BY IDOCK:   -0.62 KCAL/MOL
REMARK 927      BINDING AFFINITY PREDICTED BY RF-SCORE:    0.00 PKD
ROOT
HETATM    1  C   UNL     1     -10.343  19.718  65.932  1.00  0.00    -0.582 C  
HETATM    2  C   UNL     1      -9.147  19.202  66.729  1.00  0.00    -0.318 C  
ENDROOT
BRANCH   2   3
HETATM    3  N   UNL     1      -8.153  18.463  65.931  1.00  0.00    -0.511 NA 
BRANCH   3   4
HETATM    4  C   UNL     1      -6.954  19.249  65.595  1.00  0.00    -0.270 C  
HETATM    5  C   UNL     1      -6.615  20.409  66.524  1.00  0.00    -0.275 C  
ENDBRANCH   3   4
BRANCH   3   6
HETATM    6  C   UNL     1      -7.862  17.177  66.588  1.00  0.00    -0.262 C  
BRANCH   6   7
HETATM    7  C   UNL     1      -9.101  16.308  66.727  1.00  0.00    -0.257 C  
HETATM    8  C   UNL     1     -10.164  15.562  66.847  1.00  0.00    -0.279 C  
BRANCH   8   9
HETATM    9  C   UNL     1     -11.341  14.703  66.992  1.00  0.00    -0.355 C  
BRANCH   9  10
HETATM   10  O   UNL     1     -11.020  13.530  67.754  1.00  0.00    -0.256 OA 
BRANCH  10  11
HETATM   11  C   UNL     1     -11.195  12.347  67.088  1.00  0.00    -0.298 C  
HETATM   12  O   UNL     1     -11.974  12.185  66.154  1.00  0.00    -0.593 OA 
HETATM   13  C   UNL     1     -10.293  11.230  67.726  1.00  0.00    -0.182 C  
HETATM   14  C   UNL     1      -9.328  10.701  66.644  1.00  0.00    -0.189 A  
HETATM   15  C   UNL     1     -11.219  10.099  68.304  1.00  0.00    -0.246 C  
HETATM   16  O   UNL     1      -9.504  11.781  68.791  1.00  0.00    -0.355 OA 
HETATM   17  H   UNL     1      -8.959  11.106  69.178  1.00  0.00     0.000 HD 
HETATM   18  C   UNL     1      -7.931  10.757  66.811  1.00  0.00    -0.138 A  
HETATM   19  C   UNL     1     -10.463   8.906  68.933  1.00  0.00    -0.225 C  
HETATM   20  C   UNL     1      -7.061  10.310  65.813  1.00  0.00    -0.132 A  
HETATM   21  C   UNL     1      -9.896   9.176  70.326  1.00  0.00    -0.245 C  
HETATM   22  C   UNL     1     -10.948   9.714  71.288  1.00  0.00    -0.399 C  
HETATM   23  C   UNL     1      -7.566   9.797  64.623  1.00  0.00    -0.134 A  
HETATM   24  C   UNL     1      -8.944   9.720  64.435  1.00  0.00    -0.284 A  
HETATM   25  C   UNL     1     -11.733  10.888  70.717  1.00  0.00    -0.355 C  
HETATM   26  C   UNL     1     -12.276  10.596  69.320  1.00  0.00    -0.108 C  
HETATM   27  C   UNL     1      -9.813  10.160  65.438  1.00  0.00    -0.375 A  
ENDBRANCH  10  11
ENDBRANCH   9  10
ENDBRANCH   8   9
ENDBRANCH   6   7
ENDBRANCH   3   6
ENDBRANCH   2   3
TORSDOF 7
ENDMDL
MODEL       48
REMARK 921   NORMALIZED FREE ENERGY PREDICTED BY IDOCK:   -4.97 KCAL/MOL
REMARK 922        TOTAL FREE ENERGY PREDICTED BY IDOCK:   -8.25 KCAL/MOL
REMARK 923 INTER-LIGAND FREE ENERGY PREDICTED BY IDOCK:   -6.75 KCAL/MOL
REMARK 924 INTRA-LIGAND FREE ENERGY PREDICTED BY IDOCK:   -1.50 KCAL/MOL
REMARK 927      BINDING AFFINITY PREDICTED BY RF-SCORE:    0.00 PKD
ROOT
HETATM    1  C   UNL     1     -11.162   9.420  70.285  1.00  0.00    -0.286 C  
HETATM    2  C   UNL     1      -9.755   9.930  69.980  1.00  0.00    -0.227 C  
ENDROOT
BRANCH   2   3
HETATM    3  N   UNL     1      -9.437  10.030  68.545  1.00  0.00    -0.145 NA 
BRANCH   3   4
HETATM    4  C   UNL     1     -10.512   9.552  67.661  1.00  0.00    -0.263 C  
HETATM    5  C   UNL     1     -10.135   9.285  66.208  1.00  0.00    -0.322 C  
ENDBRANCH   3   4
BRANCH   3   6
HETATM    6  C   UNL     1      -8.975  11.396  68.244  1.00  0.00    -0.175 C  
BRANCH   6   7
HETATM    7  C   UNL     1     -10.096  12.418  68.343  1.00  0.00    -0.217 C  
HETATM    8  C   UNL     1     -11.058  13.294  68.426  1.00  0.00    -0.299 C  
BRANCH   8   9
HETATM    9  C   UNL     1     -12.120  14.299  68.510  1.00  0.00    -0.260 C  
BRANCH   9  10
HETATM   10  O   UNL     1     -11.598  15.610  68.244  1.00  0.00    -0.362 OA 
BRANCH  10  11
HETATM   11  C   UNL     1     -10.542  15.977  69.033  1.00  0.00    -0.257 C  
HETATM   12  O   UNL     1     -10.548  15.947  70.260  1.00  0.00    -0.309 OA 
HETATM   13  C   UNL     1      -9.352  16.484  68.140  1.00  0.00    -0.218 C  
HETATM   14  C   UNL     1      -8.124  15.588  68.405  1.00  0.00    -0.136 A  
HETATM   15  C   UNL     1      -9.073  17.993  68.476  1.00  0.00    -0.293 C  
HETATM   16  O   UNL     1      -9.693  16.367  66.751  1.00  0.00    -0.234 OA 
HETATM   17  H   UNL     1      -8.974  16.673  66.211  1.00  0.00     0.000 HD 
HETATM   18  C   UNL     1      -7.499  14.868  67.369  1.00  0.00    -0.228 A  
HETATM   19  C   UNL     1      -7.894  18.620  67.697  1.00  0.00    -0.249 C  
HETATM   20  C   UNL     1      -6.409  14.030  67.620  1.00  0.00    -0.134 A  
HETATM   21  C   UNL     1      -8.213  18.984  66.247  1.00  0.00    -0.294 C  
HETATM   22  C   UNL     1      -9.460  19.852  66.126  1.00  0.00    -0.466 C  
HETATM   23  C   UNL     1      -5.919  13.890  68.914  1.00  0.00    -0.084 A  
HETATM   24  C   UNL     1      -6.511  14.597  69.957  1.00  0.00    -0.168 A  
HETATM   25  C   UNL     1     -10.654  19.288  66.885  1.00  0.00    -0.557 C  
HETATM   26  C   UNL     1     -10.304  18.920  68.325  1.00  0.00    -0.400 C  
HETATM   27  C   UNL     1      -7.596  15.442  69.702  1.00  0.00    -0.165 A  
ENDBRANCH  10  11
ENDBRANCH   9  10
ENDBRANCH   8   9
ENDBRANCH   6   7
ENDBRANCH   3   6
ENDBRANCH   2   3
TORSDOF 7
ENDMDL
MODEL       49
REMARK 921   NORMALIZED FREE ENERGY PREDICTED BY IDOCK:   -4.97 KCAL/MOL
REMARK 922        TOTAL FREE ENERGY PREDICTED BY IDOCK:   -8.24 KCAL/MOL
REMARK 923 INTER-LIGAND FREE ENERGY PREDICTED BY IDOCK:   -6.97 KCAL/MOL
REMARK 924 INTRA-LIGAND FREE ENERGY PREDICTED BY IDOCK:   -1.27 KCAL/MOL
REMARK 927      BINDING AFFINITY PREDICTED BY RF-SCORE:    0.00 PKD
ROOT
HETATM    1  C   UNL     1     -10.271   6.346  74.233  1.00  0.00    -0.362 C  
HETATM    2  C   UNL     1     -10.732   7.372  73.201  1.00  0.00    -0.387 C  
ENDROOT
BRANCH   2   3
HETATM    3  N   UNL     1     -10.365   7.050  71.811  1.00  0.00    -0.197 NA 
BRANCH   3   4
HETATM    4  C   UNL     1     -11.475   6.507  71.011  1.00  0.00    -0.336 C  
HETATM    5  C   UNL     1     -11.130   6.007  69.613  1.00  0.00    -0.474 C  
ENDBRANCH   3   4
BRANCH   3   6
HETATM    6  C   UNL     1      -9.700   8.216  71.202  1.00  0.00    -0.163 C  
BRANCH   6   7
HETATM    7  C   UNL     1     -10.679   9.332  70.876  1.00  0.00    -0.371 C  
HETATM    8  C   UNL     1     -11.519  10.289  70.598  1.00  0.00    -0.435 C  
BRANCH   8   9
HETATM    9  C   UNL     1     -12.485  11.346  70.289  1.00  0.00    -0.232 C  
BRANCH   9  10
HETATM   10  O   UNL     1     -12.367  11.754  68.918  1.00  0.00    -0.293 OA 
BRANCH  10  11
HETATM   11  C   UNL     1     -11.158  12.304  68.585  1.00  0.00    -0.249 C  
HETATM   12  O   UNL     1     -10.605  13.197  69.218  1.00  0.00    -0.043 OA 
HETATM   13  C   UNL     1     -10.618  11.657  67.259  1.00  0.00    -0.228 C  
HETATM   14  C   UNL     1      -9.259  10.990  67.556  1.00  0.00    -0.149 A  
HETATM   15  C   UNL     1     -10.507  12.775  66.159  1.00  0.00    -0.284 C  
HETATM   16  O   UNL     1     -11.521  10.638  66.803  1.00  0.00    -0.175 OA 
HETATM   17  H   UNL     1     -11.195  10.247  66.001  1.00  0.00     0.000 HD 
HETATM   18  C   UNL     1      -9.046   9.617  67.329  1.00  0.00    -0.150 A  
HETATM   19  C   UNL     1      -9.948  12.289  64.802  1.00  0.00    -0.215 C  
HETATM   20  C   UNL     1      -7.825   9.010  67.633  1.00  0.00    -0.101 A  
HETATM   21  C   UNL     1     -10.948  11.519  63.941  1.00  0.00    -0.474 C  
HETATM   22  C   UNL     1     -12.254  12.281  63.745  1.00  0.00    -0.642 C  
HETATM   23  C   UNL     1      -6.787   9.761  68.175  1.00  0.00    -0.069 A  
HETATM   24  C   UNL     1      -6.966  11.123  68.400  1.00  0.00    -0.072 A  
HETATM   25  C   UNL     1     -12.848  12.793  65.050  1.00  0.00    -0.312 C  
HETATM   26  C   UNL     1     -11.823  13.546  65.896  1.00  0.00    -0.405 C  
HETATM   27  C   UNL     1      -8.186  11.730  68.087  1.00  0.00    -0.153 A  
ENDBRANCH  10  11
ENDBRANCH   9  10
ENDBRANCH   8   9
ENDBRANCH   6   7
ENDBRANCH   3   6
ENDBRANCH   2   3
TORSDOF 7
ENDMDL
MODEL       50
REMARK 921   NORMALIZED FREE ENERGY PREDICTED BY IDOCK:   -4.94 KCAL/MOL
REMARK 922        TOTAL FREE ENERGY PREDICTED BY IDOCK:   -8.20 KCAL/MOL
REMARK 923 INTER-LIGAND FREE ENERGY PREDICTED BY IDOCK:   -7.58 KCAL/MOL
REMARK 924 INTRA-LIGAND FREE ENERGY PREDICTED BY IDOCK:   -0.62 KCAL/MOL
REMARK 927      BINDING AFFINITY PREDICTED BY RF-SCORE:    0.00 PKD
ROOT
HETATM    1  C   UNL     1      -7.334   9.033  64.653  1.00  0.00    -0.098 C  
HETATM    2  C   UNL     1      -8.117  10.247  64.159  1.00  0.00    -0.138 C  
ENDROOT
BRANCH   2   3
HETATM    3  N   UNL     1      -9.570  10.175  64.392  1.00  0.00    -0.305 NA 
BRANCH   3   4
HETATM    4  C   UNL     1      -9.964  10.420  65.789  1.00  0.00    -0.270 C  
HETATM    5  C   UNL     1     -10.333   9.196  66.620  1.00  0.00    -0.289 C  
ENDBRANCH   3   4
BRANCH   3   6
HETATM    6  C   UNL     1     -10.261  11.033  63.414  1.00  0.00    -0.346 C  
BRANCH   6   7
HETATM    7  C   UNL     1     -10.653  12.378  64.003  1.00  0.00    -0.444 C  
HETATM    8  C   UNL     1     -10.990  13.532  64.508  1.00  0.00    -0.405 C  
BRANCH   8   9
HETATM    9  C   UNL     1     -11.361  14.841  65.050  1.00  0.00    -0.391 C  
BRANCH   9  10
HETATM   10  O   UNL     1     -10.195  15.568  65.461  1.00  0.00    -0.339 OA 
BRANCH  10  11
HETATM   11  C   UNL     1     -10.019  15.653  66.816  1.00  0.00    -0.250 C  
HETATM   12  O   UNL     1     -10.649  14.998  67.639  1.00  0.00    -0.258 OA 
HETATM   13  C   UNL     1      -8.936  16.741  67.152  1.00  0.00    -0.204 C  
HETATM   14  C   UNL     1      -7.779  16.061  67.914  1.00  0.00    -0.149 A  
HETATM   15  C   UNL     1      -9.612  17.886  67.990  1.00  0.00    -0.290 C  
HETATM   16  O   UNL     1      -8.402  17.297  65.941  1.00  0.00    -0.533 OA 
HETATM   17  H   UNL     1      -7.747  17.954  66.145  1.00  0.00     0.000 HD 
HETATM   18  C   UNL     1      -6.457  16.094  67.430  1.00  0.00    -0.215 A  
HETATM   19  C   UNL     1      -8.650  19.015  68.430  1.00  0.00    -0.383 C  
HETATM   20  C   UNL     1      -5.419  15.446  68.105  1.00  0.00    -0.130 A  
HETATM   21  C   UNL     1      -8.292  20.010  67.328  1.00  0.00    -0.381 C  
HETATM   22  C   UNL     1      -9.525  20.589  66.643  1.00  0.00    -0.374 C  
HETATM   23  C   UNL     1      -5.677  14.748  69.280  1.00  0.00    -0.097 A  
HETATM   24  C   UNL     1      -6.974  14.708  69.788  1.00  0.00    -0.130 A  
HETATM   25  C   UNL     1     -10.515  19.521  66.196  1.00  0.00    -0.613 C  
HETATM   26  C   UNL     1     -10.844  18.533  67.313  1.00  0.00    -0.330 C  
HETATM   27  C   UNL     1      -8.009  15.364  69.116  1.00  0.00    -0.222 A  
ENDBRANCH  10  11
ENDBRANCH   9  10
ENDBRANCH   8   9
ENDBRANCH   6   7
ENDBRANCH   3   6
ENDBRANCH   2   3
TORSDOF 7
ENDMDL
MODEL       51
REMARK 921   NORMALIZED FREE ENERGY PREDICTED BY IDOCK:   -4.94 KCAL/MOL
REMARK 922        TOTAL FREE ENERGY PREDICTED BY IDOCK:   -8.20 KCAL/MOL
REMARK 923 INTER-LIGAND FREE ENERGY PREDICTED BY IDOCK:   -7.08 KCAL/MOL
REMARK 924 INTRA-LIGAND FREE ENERGY PREDICTED BY IDOCK:   -1.12 KCAL/MOL
REMARK 927      BINDING AFFINITY PREDICTED BY RF-SCORE:    0.00 PKD
ROOT
HETATM    1  C   UNL     1      -6.993  13.942  69.518  1.00  0.00     0.021 C  
HETATM    2  C   UNL     1      -5.933  15.040  69.448  1.00  0.00    -0.106 C  
ENDROOT
BRANCH   2   3
HETATM    3  N   UNL     1      -6.073  16.092  70.470  1.00  0.00     0.069 NA 
BRANCH   3   4
HETATM    4  C   UNL     1      -5.141  15.954  71.601  1.00  0.00     0.001 C  
HETATM    5  C   UNL     1      -5.269  14.690  72.442  1.00  0.00    -0.147 C  
ENDBRANCH   3   4
BRANCH   3   6
HETATM    6  C   UNL     1      -6.032  17.412  69.816  1.00  0.00    -0.245 C  
BRANCH   6   7
HETATM    7  C   UNL     1      -6.953  17.485  68.609  1.00  0.00    -0.232 C  
HETATM    8  C   UNL     1      -7.742  17.549  67.573  1.00  0.00    -0.210 C  
BRANCH   8   9
HETATM    9  C   UNL     1      -8.631  17.650  66.413  1.00  0.00    -0.238 C  
BRANCH   9  10
HETATM   10  O   UNL     1      -8.765  16.376  65.767  1.00  0.00    -0.432 OA 
BRANCH  10  11
HETATM   11  C   UNL     1     -10.053  16.012  65.477  1.00  0.00    -0.304 C  
HETATM   12  O   UNL     1     -10.801  16.639  64.735  1.00  0.00    -0.732 OA 
HETATM   13  C   UNL     1     -10.436  14.709  66.268  1.00  0.00    -0.298 C  
HETATM   14  C   UNL     1     -10.810  13.610  65.252  1.00  0.00    -0.324 A  
HETATM   15  C   UNL     1     -11.617  15.042  67.250  1.00  0.00    -0.285 C  
HETATM   16  O   UNL     1      -9.310  14.244  67.028  1.00  0.00    -0.221 OA 
HETATM   17  H   UNL     1      -9.542  13.457  67.507  1.00  0.00     0.000 HD 
HETATM   18  C   UNL     1     -10.125  12.381  65.209  1.00  0.00    -0.285 A  
HETATM   19  C   UNL     1     -12.130  13.838  68.072  1.00  0.00    -0.315 C  
HETATM   20  C   UNL     1     -10.444  11.403  64.263  1.00  0.00    -0.401 A  
HETATM   21  C   UNL     1     -11.239  13.447  69.250  1.00  0.00    -0.275 C  
HETATM   22  C   UNL     1     -10.929  14.628  70.162  1.00  0.00    -0.116 C  
HETATM   23  C   UNL     1     -11.456  11.631  63.335  1.00  0.00    -0.360 A  
HETATM   24  C   UNL     1     -12.157  12.834  63.361  1.00  0.00    -0.619 A  
HETATM   25  C   UNL     1     -10.428  15.851  69.404  1.00  0.00    -0.265 C  
HETATM   26  C   UNL     1     -11.329  16.210  68.225  1.00  0.00    -0.316 C  
HETATM   27  C   UNL     1     -11.842  13.807  64.314  1.00  0.00    -0.451 A  
ENDBRANCH  10  11
ENDBRANCH   9  10
ENDBRANCH   8   9
ENDBRANCH   6   7
ENDBRANCH   3   6
ENDBRANCH   2   3
TORSDOF 7
ENDMDL
MODEL       52
REMARK 921   NORMALIZED FREE ENERGY PREDICTED BY IDOCK:   -4.93 KCAL/MOL
REMARK 922        TOTAL FREE ENERGY PREDICTED BY IDOCK:   -8.20 KCAL/MOL
REMARK 923 INTER-LIGAND FREE ENERGY PREDICTED BY IDOCK:   -7.59 KCAL/MOL
REMARK 924 INTRA-LIGAND FREE ENERGY PREDICTED BY IDOCK:   -0.61 KCAL/MOL
REMARK 927      BINDING AFFINITY PREDICTED BY RF-SCORE:    0.00 PKD
ROOT
HETATM    1  C   UNL     1     -10.292  20.143  66.848  1.00  0.00    -0.503 C  
HETATM    2  C   UNL     1      -8.996  19.789  67.574  1.00  0.00    -0.326 C  
ENDROOT
BRANCH   2   3
HETATM    3  N   UNL     1      -7.775  20.309  66.934  1.00  0.00    -0.308 NA 
BRANCH   3   4
HETATM    4  C   UNL     1      -6.706  20.660  67.885  1.00  0.00    -0.305 C  
HETATM    5  C   UNL     1      -6.662  19.869  69.187  1.00  0.00    -0.359 C  
ENDBRANCH   3   4
BRANCH   3   6
HETATM    6  C   UNL     1      -7.351  19.381  65.871  1.00  0.00    -0.287 C  
BRANCH   6   7
HETATM    7  C   UNL     1      -7.446  17.927  66.303  1.00  0.00    -0.321 C  
HETATM    8  C   UNL     1      -7.529  16.680  66.674  1.00  0.00    -0.311 C  
BRANCH   8   9
HETATM    9  C   UNL     1      -7.651  15.282  67.094  1.00  0.00    -0.189 C  
BRANCH   9  10
HETATM   10  O   UNL     1      -8.937  15.041  67.681  1.00  0.00    -0.172 OA 
BRANCH  10  11
HETATM   11  C   UNL     1      -9.792  14.302  66.908  1.00  0.00    -0.263 C  
HETATM   12  O   UNL     1     -10.275  14.686  65.848  1.00  0.00    -0.293 OA 
HETATM   13  C   UNL     1     -10.093  12.924  67.601  1.00  0.00    -0.221 C  
HETATM   14  C   UNL     1      -9.637  11.791  66.658  1.00  0.00    -0.219 A  
HETATM   15  C   UNL     1     -11.628  12.847  67.930  1.00  0.00    -0.391 C  
HETATM   16  O   UNL     1      -9.345  12.812  68.822  1.00  0.00    -0.401 OA 
HETATM   17  H   UNL     1      -9.527  11.980  69.241  1.00  0.00     0.000 HD 
HETATM   18  C   UNL     1      -8.682  10.837  67.060  1.00  0.00    -0.136 A  
HETATM   19  C   UNL     1     -12.080  11.521  68.583  1.00  0.00    -0.197 C  
HETATM   20  C   UNL     1      -8.246   9.834  66.190  1.00  0.00    -0.120 A  
HETATM   21  C   UNL     1     -11.740  11.395  70.068  1.00  0.00    -0.416 C  
HETATM   22  C   UNL     1     -12.227  12.590  70.880  1.00  0.00    -0.277 C  
HETATM   23  C   UNL     1      -8.754   9.761  64.896  1.00  0.00    -0.207 A  
HETATM   24  C   UNL     1      -9.707  10.685  64.476  1.00  0.00    -0.367 A  
HETATM   25  C   UNL     1     -11.818  13.927  70.276  1.00  0.00    -0.360 C  
HETATM   26  C   UNL     1     -12.158  14.020  68.790  1.00  0.00    -0.338 C  
HETATM   27  C   UNL     1     -10.148  11.683  65.351  1.00  0.00    -0.299 A  
ENDBRANCH  10  11
ENDBRANCH   9  10
ENDBRANCH   8   9
ENDBRANCH   6   7
ENDBRANCH   3   6
ENDBRANCH   2   3
TORSDOF 7
ENDMDL
MODEL       53
REMARK 921   NORMALIZED FREE ENERGY PREDICTED BY IDOCK:   -4.93 KCAL/MOL
REMARK 922        TOTAL FREE ENERGY PREDICTED BY IDOCK:   -8.19 KCAL/MOL
REMARK 923 INTER-LIGAND FREE ENERGY PREDICTED BY IDOCK:   -6.65 KCAL/MOL
REMARK 924 INTRA-LIGAND FREE ENERGY PREDICTED BY IDOCK:   -1.55 KCAL/MOL
REMARK 927      BINDING AFFINITY PREDICTED BY RF-SCORE:    0.00 PKD
ROOT
HETATM    1  C   UNL     1      -8.981   9.517  65.363  1.00  0.00    -0.244 C  
HETATM    2  C   UNL     1      -9.130   9.282  66.864  1.00  0.00    -0.131 C  
ENDROOT
BRANCH   2   3
HETATM    3  N   UNL     1      -8.887  10.473  67.697  1.00  0.00    -0.131 NA 
BRANCH   3   4
HETATM    4  C   UNL     1      -8.395  10.165  69.050  1.00  0.00    -0.138 C  
HETATM    5  C   UNL     1      -9.059   8.997  69.770  1.00  0.00    -0.163 C  
ENDBRANCH   3   4
BRANCH   3   6
HETATM    6  C   UNL     1      -8.041  11.422  66.952  1.00  0.00    -0.158 C  
BRANCH   6   7
HETATM    7  C   UNL     1      -7.904  12.756  67.666  1.00  0.00    -0.165 C  
HETATM    8  C   UNL     1      -7.787  13.900  68.280  1.00  0.00    -0.146 C  
BRANCH   8   9
HETATM    9  C   UNL     1      -7.677  15.178  68.988  1.00  0.00    -0.177 C  
BRANCH   9  10
HETATM   10  O   UNL     1      -8.836  15.407  69.801  1.00  0.00    -0.225 OA 
BRANCH  10  11
HETATM   11  C   UNL     1      -9.961  15.766  69.108  1.00  0.00    -0.241 C  
HETATM   12  O   UNL     1     -10.043  16.748  68.379  1.00  0.00    -0.257 OA 
HETATM   13  C   UNL     1     -11.131  14.766  69.425  1.00  0.00    -0.281 C  
HETATM   14  C   UNL     1     -11.578  14.100  68.106  1.00  0.00    -0.365 A  
HETATM   15  C   UNL     1     -12.299  15.556  70.120  1.00  0.00    -0.384 C  
HETATM   16  O   UNL     1     -10.672  13.732  70.309  1.00  0.00    -0.054 OA 
HETATM   17  H   UNL     1     -11.379  13.128  70.500  1.00  0.00     0.000 HD 
HETATM   18  C   UNL     1     -11.544  12.703  67.937  1.00  0.00    -0.401 A  
HETATM   19  C   UNL     1     -13.543  14.702  70.456  1.00  0.00     0.175 C  
HETATM   20  C   UNL     1     -11.916  12.107  66.729  1.00  0.00    -0.170 A  
HETATM   21  C   UNL     1     -13.389  13.812  71.689  1.00  0.00    -0.430 C  
HETATM   22  C   UNL     1     -12.923  14.591  72.914  1.00  0.00    -0.582 C  
HETATM   23  C   UNL     1     -12.328  12.894  65.659  1.00  0.00    -0.482 A  
HETATM   24  C   UNL     1     -12.381  14.278  65.801  1.00  0.00    -0.420 A  
HETATM   25  C   UNL     1     -11.703  15.460  72.639  1.00  0.00    -0.556 C  
HETATM   26  C   UNL     1     -11.879  16.327  71.395  1.00  0.00    -0.394 C  
HETATM   27  C   UNL     1     -12.017  14.872  67.013  1.00  0.00    -0.126 A  
ENDBRANCH  10  11
ENDBRANCH   9  10
ENDBRANCH   8   9
ENDBRANCH   6   7
ENDBRANCH   3   6
ENDBRANCH   2   3
TORSDOF 7
ENDMDL
MODEL       54
REMARK 921   NORMALIZED FREE ENERGY PREDICTED BY IDOCK:   -4.92 KCAL/MOL
REMARK 922        TOTAL FREE ENERGY PREDICTED BY IDOCK:   -8.17 KCAL/MOL
REMARK 923 INTER-LIGAND FREE ENERGY PREDICTED BY IDOCK:   -6.91 KCAL/MOL
REMARK 924 INTRA-LIGAND FREE ENERGY PREDICTED BY IDOCK:   -1.26 KCAL/MOL
REMARK 927      BINDING AFFINITY PREDICTED BY RF-SCORE:    0.00 PKD
ROOT
HETATM    1  C   UNL     1      -9.391  10.996  62.937  1.00  0.00    -0.380 C  
HETATM    2  C   UNL     1     -10.370  10.747  64.082  1.00  0.00    -0.311 C  
ENDROOT
BRANCH   2   3
HETATM    3  N   UNL     1      -9.991  11.377  65.359  1.00  0.00    -0.234 NA 
BRANCH   3   4
HETATM    4  C   UNL     1     -11.137  11.836  66.162  1.00  0.00    -0.307 C  
HETATM    5  C   UNL     1     -12.182  12.681  65.441  1.00  0.00    -0.517 C  
ENDBRANCH   3   4
BRANCH   3   6
HETATM    6  C   UNL     1      -9.069  10.486  66.085  1.00  0.00    -0.162 C  
BRANCH   6   7
HETATM    7  C   UNL     1      -9.691   9.132  66.382  1.00  0.00    -0.330 C  
HETATM    8  C   UNL     1     -10.224   7.970  66.636  1.00  0.00    -0.315 C  
BRANCH   8   9
HETATM    9  C   UNL     1     -10.838   6.665  66.896  1.00  0.00    -0.345 C  
BRANCH   9  10
HETATM   10  O   UNL     1     -11.516   6.669  68.161  1.00  0.00    -0.094 OA 
BRANCH  10  11
HETATM   11  C   UNL     1     -10.707   6.467  69.247  1.00  0.00    -0.292 C  
HETATM   12  O   UNL     1     -10.087   5.432  69.466  1.00  0.00    -0.196 OA 
HETATM   13  C   UNL     1     -10.732   7.730  70.180  1.00  0.00    -0.240 C  
HETATM   14  C   UNL     1      -9.296   8.283  70.297  1.00  0.00    -0.159 A  
HETATM   15  C   UNL     1     -11.328   7.318  71.575  1.00  0.00    -0.280 C  
HETATM   16  O   UNL     1     -11.555   8.755  69.603  1.00  0.00    -0.409 OA 
HETATM   17  H   UNL     1     -11.570   9.519  70.167  1.00  0.00     0.000 HD 
HETATM   18  C   UNL     1      -8.980   9.602  69.918  1.00  0.00    -0.243 A  
HETATM   19  C   UNL     1     -11.378   8.459  72.617  1.00  0.00    -0.346 C  
HETATM   20  C   UNL     1      -7.671  10.086  69.992  1.00  0.00    -0.181 A  
HETATM   21  C   UNL     1     -12.513   9.460  72.409  1.00  0.00    -0.254 C  
HETATM   22  C   UNL     1     -13.873   8.781  72.289  1.00  0.00    -0.505 C  
HETATM   23  C   UNL     1      -6.646   9.263  70.445  1.00  0.00    -0.068 A  
HETATM   24  C   UNL     1      -6.931   7.957  70.835  1.00  0.00    -0.048 A  
HETATM   25  C   UNL     1     -13.881   7.639  71.281  1.00  0.00    -0.338 C  
HETATM   26  C   UNL     1     -12.729   6.662  71.503  1.00  0.00    -0.248 C  
HETATM   27  C   UNL     1      -8.242   7.477  70.769  1.00  0.00    -0.110 A  
ENDBRANCH  10  11
ENDBRANCH   9  10
ENDBRANCH   8   9
ENDBRANCH   6   7
ENDBRANCH   3   6
ENDBRANCH   2   3
TORSDOF 7
ENDMDL
MODEL       55
REMARK 921   NORMALIZED FREE ENERGY PREDICTED BY IDOCK:   -4.91 KCAL/MOL
REMARK 922        TOTAL FREE ENERGY PREDICTED BY IDOCK:   -8.16 KCAL/MOL
REMARK 923 INTER-LIGAND FREE ENERGY PREDICTED BY IDOCK:   -7.66 KCAL/MOL
REMARK 924 INTRA-LIGAND FREE ENERGY PREDICTED BY IDOCK:   -0.51 KCAL/MOL
REMARK 927      BINDING AFFINITY PREDICTED BY RF-SCORE:    0.00 PKD
ROOT
HETATM    1  C   UNL     1     -11.228   4.989  73.307  1.00  0.00    -0.411 C  
HETATM    2  C   UNL     1     -10.286   4.409  72.255  1.00  0.00    -0.188 C  
ENDROOT
BRANCH   2   3
HETATM    3  N   UNL     1     -10.115   5.249  71.056  1.00  0.00    -0.210 NA 
BRANCH   3   4
HETATM    4  C   UNL     1      -9.851   4.486  69.825  1.00  0.00    -0.225 C  
HETATM    5  C   UNL     1      -8.793   3.392  69.913  1.00  0.00    -0.152 C  
ENDBRANCH   3   4
BRANCH   3   6
HETATM    6  C   UNL     1     -11.251   6.182  70.952  1.00  0.00    -0.299 C  
BRANCH   6   7
HETATM    7  C   UNL     1     -10.891   7.443  70.186  1.00  0.00    -0.270 C  
HETATM    8  C   UNL     1     -10.583   8.527  69.529  1.00  0.00    -0.215 C  
BRANCH   8   9
HETATM    9  C   UNL     1     -10.259   9.757  68.803  1.00  0.00    -0.194 C  
BRANCH   9  10
HETATM   10  O   UNL     1     -10.376  10.898  69.666  1.00  0.00    -0.170 OA 
BRANCH  10  11
HETATM   11  C   UNL     1     -11.561  11.576  69.564  1.00  0.00    -0.333 C  
HETATM   12  O   UNL     1     -12.663  11.080  69.769  1.00  0.00    -0.187 OA 
HETATM   13  C   UNL     1     -11.299  13.055  69.102  1.00  0.00    -0.273 C  
HETATM   14  C   UNL     1     -11.839  14.011  70.186  1.00  0.00    -0.377 A  
HETATM   15  C   UNL     1     -11.990  13.280  67.709  1.00  0.00    -0.356 C  
HETATM   16  O   UNL     1      -9.888  13.288  68.969  1.00  0.00    -0.418 OA 
HETATM   17  H   UNL     1      -9.729  14.182  68.690  1.00  0.00     0.000 HD 
HETATM   18  C   UNL     1     -11.004  14.945  70.827  1.00  0.00    -0.088 A  
HETATM   19  C   UNL     1     -11.849  14.713  67.144  1.00  0.00    -0.367 C  
HETATM   20  C   UNL     1     -11.490  15.784  71.834  1.00  0.00    -0.477 A  
HETATM   21  C   UNL     1     -10.483  15.024  66.534  1.00  0.00    -0.285 C  
HETATM   22  C   UNL     1     -10.060  13.991  65.495  1.00  0.00    -0.343 C  
HETATM   23  C   UNL     1     -12.822  15.707  72.226  1.00  0.00    -0.523 A  
HETATM   24  C   UNL     1     -13.673  14.799  71.601  1.00  0.00    -0.512 A  
HETATM   25  C   UNL     1     -10.188  12.558  65.994  1.00  0.00    -0.269 C  
HETATM   26  C   UNL     1     -11.558  12.279  66.610  1.00  0.00    -0.438 C  
HETATM   27  C   UNL     1     -13.188  13.967  70.588  1.00  0.00    -0.077 A  
ENDBRANCH  10  11
ENDBRANCH   9  10
ENDBRANCH   8   9
ENDBRANCH   6   7
ENDBRANCH   3   6
ENDBRANCH   2   3
TORSDOF 7
ENDMDL
MODEL       56
REMARK 921   NORMALIZED FREE ENERGY PREDICTED BY IDOCK:   -4.90 KCAL/MOL
REMARK 922        TOTAL FREE ENERGY PREDICTED BY IDOCK:   -8.14 KCAL/MOL
REMARK 923 INTER-LIGAND FREE ENERGY PREDICTED BY IDOCK:   -7.43 KCAL/MOL
REMARK 924 INTRA-LIGAND FREE ENERGY PREDICTED BY IDOCK:   -0.72 KCAL/MOL
REMARK 927      BINDING AFFINITY PREDICTED BY RF-SCORE:    0.00 PKD
ROOT
HETATM    1  C   UNL     1      -9.335   7.788  67.180  1.00  0.00    -0.185 C  
HETATM    2  C   UNL     1      -8.805   8.905  68.077  1.00  0.00    -0.133 C  
ENDROOT
BRANCH   2   3
HETATM    3  N   UNL     1      -9.367  10.237  67.794  1.00  0.00    -0.144 NA 
BRANCH   3   4
HETATM    4  C   UNL     1      -8.580  11.025  66.832  1.00  0.00    -0.143 C  
HETATM    5  C   UNL     1      -7.597  12.033  67.417  1.00  0.00    -0.151 C  
ENDBRANCH   3   4
BRANCH   3   6
HETATM    6  C   UNL     1     -10.789  10.096  67.433  1.00  0.00    -0.261 C  
BRANCH   6   7
HETATM    7  C   UNL     1     -11.280  11.245  66.568  1.00  0.00    -0.222 C  
HETATM    8  C   UNL     1     -11.701  12.232  65.828  1.00  0.00    -0.445 C  
BRANCH   8   9
HETATM    9  C   UNL     1     -12.189  13.351  65.018  1.00  0.00    -0.424 C  
BRANCH   9  10
HETATM   10  O   UNL     1     -12.083  14.584  65.744  1.00  0.00    -0.350 OA 
BRANCH  10  11
HETATM   11  C   UNL     1     -10.816  14.900  66.156  1.00  0.00    -0.327 C  
HETATM   12  O   UNL     1      -9.792  14.551  65.579  1.00  0.00    -0.338 OA 
HETATM   13  C   UNL     1     -10.874  15.728  67.491  1.00  0.00    -0.315 C  
HETATM   14  C   UNL     1     -10.208  17.098  67.248  1.00  0.00    -0.316 A  
HETATM   15  C   UNL     1     -10.159  14.909  68.626  1.00  0.00    -0.237 C  
HETATM   16  O   UNL     1     -12.240  15.961  67.868  1.00  0.00    -0.036 OA 
HETATM   17  H   UNL     1     -12.275  16.461  68.675  1.00  0.00     0.000 HD 
HETATM   18  C   UNL     1     -10.907  18.304  67.447  1.00  0.00    -0.281 A  
HETATM   19  C   UNL     1     -10.104  15.622  69.997  1.00  0.00    -0.220 C  
HETATM   20  C   UNL     1     -10.310  19.541  67.191  1.00  0.00    -0.568 A  
HETATM   21  C   UNL     1     -11.415  15.595  70.780  1.00  0.00    -0.409 C  
HETATM   22  C   UNL     1     -11.975  14.185  70.929  1.00  0.00    -0.371 C  
HETATM   23  C   UNL     1      -9.000  19.604  66.728  1.00  0.00    -0.415 A  
HETATM   24  C   UNL     1      -8.282  18.427  66.531  1.00  0.00    -0.289 A  
HETATM   25  C   UNL     1     -12.044  13.429  69.608  1.00  0.00    -0.349 C  
HETATM   26  C   UNL     1     -10.726  13.484  68.840  1.00  0.00    -0.228 C  
HETATM   27  C   UNL     1      -8.877  17.190  66.796  1.00  0.00    -0.270 A  
ENDBRANCH  10  11
ENDBRANCH   9  10
ENDBRANCH   8   9
ENDBRANCH   6   7
ENDBRANCH   3   6
ENDBRANCH   2   3
TORSDOF 7
ENDMDL
MODEL       57
REMARK 921   NORMALIZED FREE ENERGY PREDICTED BY IDOCK:   -4.88 KCAL/MOL
REMARK 922        TOTAL FREE ENERGY PREDICTED BY IDOCK:   -8.12 KCAL/MOL
REMARK 923 INTER-LIGAND FREE ENERGY PREDICTED BY IDOCK:   -7.76 KCAL/MOL
REMARK 924 INTRA-LIGAND FREE ENERGY PREDICTED BY IDOCK:   -0.36 KCAL/MOL
REMARK 927      BINDING AFFINITY PREDICTED BY RF-SCORE:    0.00 PKD
ROOT
HETATM    1  C   UNL     1     -11.233   6.004  70.899  1.00  0.00    -0.335 C  
HETATM    2  C   UNL     1     -12.324   6.773  71.641  1.00  0.00    -0.362 C  
ENDROOT
BRANCH   2   3
HETATM    3  N   UNL     1     -11.823   7.761  72.612  1.00  0.00    -0.306 NA 
BRANCH   3   4
HETATM    4  C   UNL     1     -10.423   7.546  73.015  1.00  0.00    -0.342 C  
HETATM    5  C   UNL     1     -10.184   6.581  74.170  1.00  0.00    -0.380 C  
ENDBRANCH   3   4
BRANCH   3   6
HETATM    6  C   UNL     1     -12.102   9.119  72.111  1.00  0.00    -0.318 C  
BRANCH   6   7
HETATM    7  C   UNL     1     -11.118   9.549  71.036  1.00  0.00    -0.433 C  
HETATM    8  C   UNL     1     -10.274   9.917  70.113  1.00  0.00    -0.326 C  
BRANCH   8   9
HETATM    9  C   UNL     1      -9.306  10.340  69.098  1.00  0.00    -0.204 C  
BRANCH   9  10
HETATM   10  O   UNL     1      -9.693  11.596  68.522  1.00  0.00    -0.195 OA 
BRANCH  10  11
HETATM   11  C   UNL     1     -10.703  11.518  67.600  1.00  0.00    -0.211 C  
HETATM   12  O   UNL     1     -11.859  11.205  67.863  1.00  0.00    -0.601 OA 
HETATM   13  C   UNL     1     -10.149  11.840  66.166  1.00  0.00    -0.224 C  
HETATM   14  C   UNL     1     -10.904  13.067  65.612  1.00  0.00    -0.293 A  
HETATM   15  C   UNL     1     -10.326  10.570  65.257  1.00  0.00    -0.300 C  
HETATM   16  O   UNL     1      -8.754  12.175  66.238  1.00  0.00    -0.373 OA 
HETATM   17  H   UNL     1      -8.419  12.370  65.371  1.00  0.00     0.000 HD 
HETATM   18  C   UNL     1     -10.226  14.239  65.228  1.00  0.00    -0.408 A  
HETATM   19  C   UNL     1      -9.857  10.754  63.795  1.00  0.00    -0.396 C  
HETATM   20  C   UNL     1     -10.918  15.360  64.762  1.00  0.00    -0.411 A  
HETATM   21  C   UNL     1      -8.342  10.701  63.602  1.00  0.00    -0.043 C  
HETATM   22  C   UNL     1      -7.721   9.451  64.214  1.00  0.00    -0.117 C  
HETATM   23  C   UNL     1     -12.305  15.337  64.669  1.00  0.00    -0.080 A  
HETATM   24  C   UNL     1     -13.001  14.187  65.032  1.00  0.00    -0.122 A  
HETATM   25  C   UNL     1      -8.155   9.213  65.654  1.00  0.00    -0.113 C  
HETATM   26  C   UNL     1      -9.671   9.285  65.820  1.00  0.00    -0.339 C  
HETATM   27  C   UNL     1     -12.307  13.063  65.491  1.00  0.00    -0.527 A  
ENDBRANCH  10  11
ENDBRANCH   9  10
ENDBRANCH   8   9
ENDBRANCH   6   7
ENDBRANCH   3   6
ENDBRANCH   2   3
TORSDOF 7
ENDMDL
MODEL       58
REMARK 921   NORMALIZED FREE ENERGY PREDICTED BY IDOCK:   -4.87 KCAL/MOL
REMARK 922        TOTAL FREE ENERGY PREDICTED BY IDOCK:   -8.10 KCAL/MOL
REMARK 923 INTER-LIGAND FREE ENERGY PREDICTED BY IDOCK:   -7.25 KCAL/MOL
REMARK 924 INTRA-LIGAND FREE ENERGY PREDICTED BY IDOCK:   -0.85 KCAL/MOL
REMARK 927      BINDING AFFINITY PREDICTED BY RF-SCORE:    0.00 PKD
ROOT
HETATM    1  C   UNL     1     -10.233  20.068  66.849  1.00  0.00    -0.595 C  
HETATM    2  C   UNL     1     -10.321  18.774  66.043  1.00  0.00    -0.422 C  
ENDROOT
BRANCH   2   3
HETATM    3  N   UNL     1      -9.829  17.579  66.749  1.00  0.00    -0.292 NA 
BRANCH   3   4
HETATM    4  C   UNL     1     -10.527  16.337  66.379  1.00  0.00    -0.294 C  
HETATM    5  C   UNL     1     -10.950  16.198  64.921  1.00  0.00    -0.364 C  
ENDBRANCH   3   4
BRANCH   3   6
HETATM    6  C   UNL     1      -8.363  17.505  66.615  1.00  0.00    -0.261 C  
BRANCH   6   7
HETATM    7  C   UNL     1      -7.808  16.170  67.081  1.00  0.00    -0.234 C  
HETATM    8  C   UNL     1      -7.333  15.024  67.482  1.00  0.00    -0.228 C  
BRANCH   8   9
HETATM    9  C   UNL     1      -6.816  13.737  67.955  1.00  0.00    -0.140 C  
BRANCH   9  10
HETATM   10  O   UNL     1      -7.293  12.666  67.128  1.00  0.00    -0.127 OA 
BRANCH  10  11
HETATM   11  C   UNL     1      -8.603  12.323  67.332  1.00  0.00    -0.178 C  
HETATM   12  O   UNL     1      -9.317  12.799  68.209  1.00  0.00    -0.209 OA 
HETATM   13  C   UNL     1      -9.033  11.205  66.315  1.00  0.00    -0.193 C  
HETATM   14  C   UNL     1     -10.204  11.740  65.464  1.00  0.00    -0.291 A  
HETATM   15  C   UNL     1      -9.420   9.911  67.118  1.00  0.00    -0.190 C  
HETATM   16  O   UNL     1      -7.945  10.900  65.428  1.00  0.00    -0.331 OA 
HETATM   17  H   UNL     1      -8.205  10.224  64.813  1.00  0.00     0.000 HD 
HETATM   18  C   UNL     1     -10.121  11.818  64.061  1.00  0.00    -0.360 A  
HETATM   19  C   UNL     1      -9.905   8.731  66.244  1.00  0.00    -0.342 C  
HETATM   20  C   UNL     1     -11.170  12.336  63.297  1.00  0.00    -0.399 A  
HETATM   21  C   UNL     1      -8.789   7.972  65.526  1.00  0.00    -0.102 C  
HETATM   22  C   UNL     1      -7.688   7.520  66.478  1.00  0.00    -0.097 C  
HETATM   23  C   UNL     1     -12.328  12.791  63.919  1.00  0.00    -0.510 A  
HETATM   24  C   UNL     1     -12.442  12.716  65.305  1.00  0.00    -0.483 A  
HETATM   25  C   UNL     1      -7.177   8.641  67.374  1.00  0.00    -0.080 C  
HETATM   26  C   UNL     1      -8.313   9.391  68.066  1.00  0.00    -0.119 C  
HETATM   27  C   UNL     1     -11.395  12.189  66.066  1.00  0.00    -0.410 A  
ENDBRANCH  10  11
ENDBRANCH   9  10
ENDBRANCH   8   9
ENDBRANCH   6   7
ENDBRANCH   3   6
ENDBRANCH   2   3
TORSDOF 7
ENDMDL
MODEL       59
REMARK 921   NORMALIZED FREE ENERGY PREDICTED BY IDOCK:   -4.78 KCAL/MOL
REMARK 922        TOTAL FREE ENERGY PREDICTED BY IDOCK:   -7.97 KCAL/MOL
REMARK 923 INTER-LIGAND FREE ENERGY PREDICTED BY IDOCK:   -7.52 KCAL/MOL
REMARK 924 INTRA-LIGAND FREE ENERGY PREDICTED BY IDOCK:   -0.45 KCAL/MOL
REMARK 927      BINDING AFFINITY PREDICTED BY RF-SCORE:    0.00 PKD
ROOT
HETATM    1  C   UNL     1      -9.268   6.257  74.050  1.00  0.00    -0.150 C  
HETATM    2  C   UNL     1      -9.067   7.664  73.490  1.00  0.00    -0.262 C  
ENDROOT
BRANCH   2   3
HETATM    3  N   UNL     1      -9.592   7.861  72.128  1.00  0.00    -0.181 NA 
BRANCH   3   4
HETATM    4  C   UNL     1      -9.214   6.798  71.182  1.00  0.00    -0.159 C  
HETATM    5  C   UNL     1      -8.472   7.233  69.924  1.00  0.00    -0.140 C  
ENDBRANCH   3   4
BRANCH   3   6
HETATM    6  C   UNL     1     -11.042   8.114  72.198  1.00  0.00    -0.321 C  
BRANCH   6   7
HETATM    7  C   UNL     1     -11.425   9.448  71.578  1.00  0.00    -0.467 C  
HETATM    8  C   UNL     1     -11.752  10.592  71.045  1.00  0.00    -0.384 C  
BRANCH   8   9
HETATM    9  C   UNL     1     -12.096  11.877  70.432  1.00  0.00    -0.333 C  
BRANCH   9  10
HETATM   10  O   UNL     1     -12.409  11.707  69.042  1.00  0.00    -0.311 OA 
BRANCH  10  11
HETATM   11  C   UNL     1     -11.325  11.690  68.207  1.00  0.00    -0.285 C  
HETATM   12  O   UNL     1     -10.466  10.815  68.203  1.00  0.00    -0.169 OA 
HETATM   13  C   UNL     1     -11.324  12.973  67.299  1.00  0.00    -0.306 C  
HETATM   14  C   UNL     1     -11.383  12.528  65.822  1.00  0.00    -0.373 A  
HETATM   15  C   UNL     1     -10.038  13.818  67.617  1.00  0.00    -0.242 C  
HETATM   16  O   UNL     1     -12.488  13.769  67.568  1.00  0.00    -0.404 OA 
HETATM   17  H   UNL     1     -12.488  14.544  67.019  1.00  0.00     0.000 HD 
HETATM   18  C   UNL     1     -12.423  12.942  64.969  1.00  0.00    -0.553 A  
HETATM   19  C   UNL     1      -9.882  15.099  66.765  1.00  0.00    -0.251 C  
HETATM   20  C   UNL     1     -12.492  12.508  63.642  1.00  0.00    -0.570 A  
HETATM   21  C   UNL     1     -10.773  16.262  67.196  1.00  0.00    -0.247 C  
HETATM   22  C   UNL     1     -10.634  16.583  68.680  1.00  0.00    -0.316 C  
HETATM   23  C   UNL     1     -11.522  11.648  63.137  1.00  0.00    -0.125 A  
HETATM   24  C   UNL     1     -10.476  11.231  63.956  1.00  0.00    -0.440 A  
HETATM   25  C   UNL     1     -10.770  15.354  69.570  1.00  0.00    -0.269 C  
HETATM   26  C   UNL     1      -9.879  14.204  69.108  1.00  0.00     0.054 C  
HETATM   27  C   UNL     1     -10.404  11.673  65.280  1.00  0.00    -0.316 A  
ENDBRANCH  10  11
ENDBRANCH   9  10
ENDBRANCH   8   9
ENDBRANCH   6   7
ENDBRANCH   3   6
ENDBRANCH   2   3
TORSDOF 7
ENDMDL
MODEL       60
REMARK 921   NORMALIZED FREE ENERGY PREDICTED BY IDOCK:   -4.76 KCAL/MOL
REMARK 922        TOTAL FREE ENERGY PREDICTED BY IDOCK:   -7.95 KCAL/MOL
REMARK 923 INTER-LIGAND FREE ENERGY PREDICTED BY IDOCK:   -7.21 KCAL/MOL
REMARK 924 INTRA-LIGAND FREE ENERGY PREDICTED BY IDOCK:   -0.74 KCAL/MOL
REMARK 927      BINDING AFFINITY PREDICTED BY RF-SCORE:    0.00 PKD
ROOT
HETATM    1  C   UNL     1     -11.022  15.681  64.747  1.00  0.00    -0.418 C  
HETATM    2  C   UNL     1     -10.685  14.210  64.515  1.00  0.00    -0.303 C  
ENDROOT
BRANCH   2   3
HETATM    3  N   UNL     1     -11.845  13.359  64.200  1.00  0.00    -0.422 NA 
BRANCH   3   4
HETATM    4  C   UNL     1     -11.542  12.257  63.271  1.00  0.00    -0.351 C  
HETATM    5  C   UNL     1     -10.217  11.533  63.477  1.00  0.00    -0.462 C  
ENDBRANCH   3   4
BRANCH   3   6
HETATM    6  C   UNL     1     -12.485  12.926  65.455  1.00  0.00    -0.454 C  
BRANCH   6   7
HETATM    7  C   UNL     1     -11.469  12.618  66.542  1.00  0.00    -0.409 C  
HETATM    8  C   UNL     1     -10.597  12.353  67.475  1.00  0.00    -0.240 C  
BRANCH   8   9
HETATM    9  C   UNL     1      -9.604  12.038  68.504  1.00  0.00    -0.143 C  
BRANCH   9  10
HETATM   10  O   UNL     1     -10.097  11.020  69.387  1.00  0.00    -0.157 OA 
BRANCH  10  11
HETATM   11  C   UNL     1      -9.157  10.115  69.802  1.00  0.00    -0.136 C  
HETATM   12  O   UNL     1      -7.983  10.390  70.030  1.00  0.00    -0.103 OA 
HETATM   13  C   UNL     1      -9.792   8.681  69.896  1.00  0.00    -0.183 C  
HETATM   14  C   UNL     1      -9.663   8.181  71.350  1.00  0.00    -0.219 A  
HETATM   15  C   UNL     1      -9.063   7.737  68.873  1.00  0.00    -0.141 C  
HETATM   16  O   UNL     1     -11.189   8.738  69.569  1.00  0.00    -0.436 OA 
HETATM   17  H   UNL     1     -11.573   7.871  69.625  1.00  0.00     0.000 HD 
HETATM   18  C   UNL     1     -10.793   7.821  72.109  1.00  0.00    -0.310 A  
HETATM   19  C   UNL     1      -9.559   6.273  68.881  1.00  0.00    -0.135 C  
HETATM   20  C   UNL     1     -10.674   7.403  73.437  1.00  0.00    -0.407 A  
HETATM   21  C   UNL     1     -10.890   6.049  68.164  1.00  0.00    -0.365 C  
HETATM   22  C   UNL     1     -10.889   6.609  66.747  1.00  0.00    -0.322 C  
HETATM   23  C   UNL     1      -9.422   7.337  74.040  1.00  0.00    -0.295 A  
HETATM   24  C   UNL     1      -8.286   7.677  73.309  1.00  0.00    -0.193 A  
HETATM   25  C   UNL     1     -10.398   8.049  66.675  1.00  0.00    -0.273 C  
HETATM   26  C   UNL     1      -9.075   8.246  67.411  1.00  0.00    -0.155 C  
HETATM   27  C   UNL     1      -8.406   8.086  71.978  1.00  0.00    -0.179 A  
ENDBRANCH  10  11
ENDBRANCH   9  10
ENDBRANCH   8   9
ENDBRANCH   6   7
ENDBRANCH   3   6
ENDBRANCH   2   3
TORSDOF 7
ENDMDL
MODEL       61
REMARK 921   NORMALIZED FREE ENERGY PREDICTED BY IDOCK:   -4.73 KCAL/MOL
REMARK 922        TOTAL FREE ENERGY PREDICTED BY IDOCK:   -7.91 KCAL/MOL
REMARK 923 INTER-LIGAND FREE ENERGY PREDICTED BY IDOCK:   -7.42 KCAL/MOL
REMARK 924 INTRA-LIGAND FREE ENERGY PREDICTED BY IDOCK:   -0.49 KCAL/MOL
REMARK 927      BINDING AFFINITY PREDICTED BY RF-SCORE:    0.00 PKD
ROOT
HETATM    1  C   UNL     1      -7.823   9.204  71.016  1.00  0.00    -0.152 C  
HETATM    2  C   UNL     1      -9.165   8.722  71.564  1.00  0.00    -0.262 C  
ENDROOT
BRANCH   2   3
HETATM    3  N   UNL     1     -10.202   8.505  70.539  1.00  0.00    -0.190 NA 
BRANCH   3   4
HETATM    4  C   UNL     1     -10.708   7.124  70.486  1.00  0.00    -0.238 C  
HETATM    5  C   UNL     1     -12.135   6.900  70.974  1.00  0.00    -0.429 C  
ENDBRANCH   3   4
BRANCH   3   6
HETATM    6  C   UNL     1     -11.254   9.525  70.691  1.00  0.00    -0.302 C  
BRANCH   6   7
HETATM    7  C   UNL     1     -11.384  10.407  69.460  1.00  0.00    -0.325 C  
HETATM    8  C   UNL     1     -11.496  11.163  68.404  1.00  0.00    -0.377 C  
BRANCH   8   9
HETATM    9  C   UNL     1     -11.645  11.998  67.210  1.00  0.00    -0.313 C  
BRANCH   9  10
HETATM   10  O   UNL     1     -11.763  13.382  67.571  1.00  0.00    -0.325 OA 
BRANCH  10  11
HETATM   11  C   UNL     1     -10.753  13.856  68.365  1.00  0.00    -0.257 C  
HETATM   12  O   UNL     1      -9.624  13.379  68.411  1.00  0.00    -0.217 OA 
HETATM   13  C   UNL     1     -11.270  15.059  69.233  1.00  0.00    -0.286 C  
HETATM   14  C   UNL     1     -10.425  16.306  68.897  1.00  0.00    -0.273 A  
HETATM   15  C   UNL     1     -11.176  14.666  70.752  1.00  0.00    -0.082 C  
HETATM   16  O   UNL     1     -12.638  15.351  68.908  1.00  0.00    -0.498 OA 
HETATM   17  H   UNL     1     -12.950  16.079  69.433  1.00  0.00     0.000 HD 
HETATM   18  C   UNL     1     -11.015  17.488  68.410  1.00  0.00    -0.057 A  
HETATM   19  C   UNL     1     -11.617  15.776  71.733  1.00  0.00    -0.541 C  
HETATM   20  C   UNL     1     -10.241  18.601  68.073  1.00  0.00    -0.426 A  
HETATM   21  C   UNL     1     -13.130  15.951  71.856  1.00  0.00    -0.394 C  
HETATM   22  C   UNL     1     -13.844  14.641  72.168  1.00  0.00    -0.569 C  
HETATM   23  C   UNL     1      -8.858  18.560  68.213  1.00  0.00    -0.332 A  
HETATM   24  C   UNL     1      -8.248  17.407  68.702  1.00  0.00    -0.264 A  
HETATM   25  C   UNL     1     -13.440  13.506  71.237  1.00  0.00    -0.153 C  
HETATM   26  C   UNL     1     -11.925  13.362  71.123  1.00  0.00     0.093 C  
HETATM   27  C   UNL     1      -9.025  16.297  69.047  1.00  0.00    -0.254 A  
ENDBRANCH  10  11
ENDBRANCH   9  10
ENDBRANCH   8   9
ENDBRANCH   6   7
ENDBRANCH   3   6
ENDBRANCH   2   3
TORSDOF 7
ENDMDL
MODEL       62
REMARK 921   NORMALIZED FREE ENERGY PREDICTED BY IDOCK:   -4.72 KCAL/MOL
REMARK 922        TOTAL FREE ENERGY PREDICTED BY IDOCK:   -7.89 KCAL/MOL
REMARK 923 INTER-LIGAND FREE ENERGY PREDICTED BY IDOCK:   -7.45 KCAL/MOL
REMARK 924 INTRA-LIGAND FREE ENERGY PREDICTED BY IDOCK:   -0.44 KCAL/MOL
REMARK 927      BINDING AFFINITY PREDICTED BY RF-SCORE:    0.00 PKD
ROOT
HETATM    1  C   UNL     1     -12.864  15.972  73.642  1.00  0.00    -0.708 C  
HETATM    2  C   UNL     1     -13.645  15.444  72.441  1.00  0.00    -0.515 C  
ENDROOT
BRANCH   2   3
HETATM    3  N   UNL     1     -12.808  14.998  71.314  1.00  0.00    -0.336 NA 
BRANCH   3   4
HETATM    4  C   UNL     1     -11.432  15.521  71.348  1.00  0.00    -0.414 C  
HETATM    5  C   UNL     1     -10.975  16.323  70.135  1.00  0.00    -0.335 C  
ENDBRANCH   3   4
BRANCH   3   6
HETATM    6  C   UNL     1     -12.889  13.531  71.199  1.00  0.00    -0.309 C  
BRANCH   6   7
HETATM    7  C   UNL     1     -12.140  13.006  69.986  1.00  0.00    -0.367 C  
HETATM    8  C   UNL     1     -11.498  12.555  68.944  1.00  0.00    -0.355 C  
BRANCH   8   9
HETATM    9  C   UNL     1     -10.803  12.040  67.762  1.00  0.00    -0.215 C  
BRANCH   9  10
HETATM   10  O   UNL     1     -10.715  10.608  67.812  1.00  0.00    -0.216 OA 
BRANCH  10  11
HETATM   11  C   UNL     1      -9.816  10.119  68.721  1.00  0.00    -0.175 C  
HETATM   12  O   UNL     1      -8.997  10.805  69.324  1.00  0.00    -0.136 OA 
HETATM   13  C   UNL     1      -9.960   8.559  68.837  1.00  0.00    -0.190 C  
HETATM   14  C   UNL     1     -10.318   8.206  70.296  1.00  0.00    -0.209 A  
HETATM   15  C   UNL     1      -8.615   7.890  68.374  1.00  0.00    -0.128 C  
HETATM   16  O   UNL     1     -11.028   8.098  67.995  1.00  0.00    -0.466 OA 
HETATM   17  H   UNL     1     -11.115   7.155  68.065  1.00  0.00     0.000 HD 
HETATM   18  C   UNL     1     -11.495   7.503  70.617  1.00  0.00    -0.291 A  
HETATM   19  C   UNL     1      -8.596   6.347  68.472  1.00  0.00    -0.122 C  
HETATM   20  C   UNL     1     -11.833   7.217  71.942  1.00  0.00    -0.333 A  
HETATM   21  C   UNL     1      -9.356   5.630  67.357  1.00  0.00    -0.113 C  
HETATM   22  C   UNL     1      -8.921   6.087  65.969  1.00  0.00    -0.157 C  
HETATM   23  C   UNL     1     -11.003   7.629  72.980  1.00  0.00    -0.457 A  
HETATM   24  C   UNL     1      -9.828   8.318  72.691  1.00  0.00    -0.357 A  
HETATM   25  C   UNL     1      -8.911   7.603  65.817  1.00  0.00    -0.134 C  
HETATM   26  C   UNL     1      -8.157   8.293  66.951  1.00  0.00    -0.103 C  
HETATM   27  C   UNL     1      -9.487   8.595  71.364  1.00  0.00    -0.306 A  
ENDBRANCH  10  11
ENDBRANCH   9  10
ENDBRANCH   8   9
ENDBRANCH   6   7
ENDBRANCH   3   6
ENDBRANCH   2   3
TORSDOF 7
ENDMDL
MODEL       63
REMARK 921   NORMALIZED FREE ENERGY PREDICTED BY IDOCK:   -4.70 KCAL/MOL
REMARK 922        TOTAL FREE ENERGY PREDICTED BY IDOCK:   -7.87 KCAL/MOL
REMARK 923 INTER-LIGAND FREE ENERGY PREDICTED BY IDOCK:   -6.92 KCAL/MOL
REMARK 924 INTRA-LIGAND FREE ENERGY PREDICTED BY IDOCK:   -0.95 KCAL/MOL
REMARK 927      BINDING AFFINITY PREDICTED BY RF-SCORE:    0.00 PKD
ROOT
HETATM    1  C   UNL     1     -10.314  19.889  68.044  1.00  0.00    -0.547 C  
HETATM    2  C   UNL     1      -9.585  18.694  68.654  1.00  0.00    -0.368 C  
ENDROOT
BRANCH   2   3
HETATM    3  N   UNL     1      -9.668  17.456  67.859  1.00  0.00    -0.264 NA 
BRANCH   3   4
HETATM    4  C   UNL     1     -10.289  16.329  68.574  1.00  0.00    -0.261 C  
HETATM    5  C   UNL     1      -9.342  15.320  69.214  1.00  0.00    -0.239 C  
ENDBRANCH   3   4
BRANCH   3   6
HETATM    6  C   UNL     1     -10.288  17.756  66.557  1.00  0.00    -0.345 C  
BRANCH   6   7
HETATM    7  C   UNL     1     -10.672  16.497  65.798  1.00  0.00    -0.232 C  
HETATM    8  C   UNL     1     -11.000  15.416  65.146  1.00  0.00    -0.430 C  
BRANCH   8   9
HETATM    9  C   UNL     1     -11.348  14.209  64.394  1.00  0.00    -0.299 C  
BRANCH   9  10
HETATM   10  O   UNL     1     -10.174  13.436  64.106  1.00  0.00    -0.363 OA 
BRANCH  10  11
HETATM   11  C   UNL     1     -10.346  12.080  64.179  1.00  0.00    -0.347 C  
HETATM   12  O   UNL     1     -10.986  11.418  63.369  1.00  0.00    -0.383 OA 
HETATM   13  C   UNL     1      -9.648  11.516  65.469  1.00  0.00    -0.227 C  
HETATM   14  C   UNL     1      -8.580  10.489  65.039  1.00  0.00    -0.184 A  
HETATM   15  C   UNL     1     -10.744  10.884  66.402  1.00  0.00    -0.257 C  
HETATM   16  O   UNL     1      -8.985  12.576  66.175  1.00  0.00    -0.415 OA 
HETATM   17  H   UNL     1      -8.563  12.235  66.954  1.00  0.00     0.000 HD 
HETATM   18  C   UNL     1      -7.224  10.646  65.386  1.00  0.00    -0.012 A  
HETATM   19  C   UNL     1     -10.195  10.249  67.700  1.00  0.00    -0.247 C  
HETATM   20  C   UNL     1      -6.255   9.733  64.964  1.00  0.00    -0.094 A  
HETATM   21  C   UNL     1      -9.822  11.253  68.790  1.00  0.00    -0.194 C  
HETATM   22  C   UNL     1     -10.958  12.221  69.102  1.00  0.00    -0.217 C  
HETATM   23  C   UNL     1      -6.617   8.640  64.183  1.00  0.00    -0.071 A  
HETATM   24  C   UNL     1      -7.952   8.454  63.834  1.00  0.00    -0.158 A  
HETATM   25  C   UNL     1     -11.546  12.871  67.856  1.00  0.00    -0.391 C  
HETATM   26  C   UNL     1     -11.896  11.846  66.780  1.00  0.00    -0.170 C  
HETATM   27  C   UNL     1      -8.922   9.364  64.264  1.00  0.00    -0.204 A  
ENDBRANCH  10  11
ENDBRANCH   9  10
ENDBRANCH   8   9
ENDBRANCH   6   7
ENDBRANCH   3   6
ENDBRANCH   2   3
TORSDOF 7
ENDMDL
MODEL       64
REMARK 921   NORMALIZED FREE ENERGY PREDICTED BY IDOCK:   -4.70 KCAL/MOL
REMARK 922        TOTAL FREE ENERGY PREDICTED BY IDOCK:   -7.86 KCAL/MOL
REMARK 923 INTER-LIGAND FREE ENERGY PREDICTED BY IDOCK:   -6.74 KCAL/MOL
REMARK 924 INTRA-LIGAND FREE ENERGY PREDICTED BY IDOCK:   -1.12 KCAL/MOL
REMARK 927      BINDING AFFINITY PREDICTED BY RF-SCORE:    0.00 PKD
ROOT
HETATM    1  C   UNL     1      -8.331   7.212  72.408  1.00  0.00    -0.119 C  
HETATM    2  C   UNL     1      -8.809   6.725  71.042  1.00  0.00    -0.141 C  
ENDROOT
BRANCH   2   3
HETATM    3  N   UNL     1      -9.767   5.606  71.092  1.00  0.00    -0.167 NA 
BRANCH   3   4
HETATM    4  C   UNL     1     -10.379   5.403  72.415  1.00  0.00    -0.209 C  
HETATM    5  C   UNL     1     -11.876   5.672  72.524  1.00  0.00    -0.194 C  
ENDBRANCH   3   4
BRANCH   3   6
HETATM    6  C   UNL     1     -10.741   5.752  69.996  1.00  0.00    -0.330 C  
BRANCH   6   7
HETATM    7  C   UNL     1     -10.182   6.553  68.831  1.00  0.00    -0.206 C  
HETATM    8  C   UNL     1      -9.702   7.240  67.833  1.00  0.00    -0.161 C  
BRANCH   8   9
HETATM    9  C   UNL     1      -9.183   8.034  66.717  1.00  0.00    -0.165 C  
BRANCH   9  10
HETATM   10  O   UNL     1     -10.056   9.136  66.430  1.00  0.00    -0.283 OA 
BRANCH  10  11
HETATM   11  C   UNL     1      -9.545  10.369  66.738  1.00  0.00    -0.171 C  
HETATM   12  O   UNL     1      -8.382  10.706  66.542  1.00  0.00    -0.133 OA 
HETATM   13  C   UNL     1     -10.650  11.257  67.415  1.00  0.00    -0.224 C  
HETATM   14  C   UNL     1     -10.865  12.517  66.551  1.00  0.00    -0.287 A  
HETATM   15  C   UNL     1     -10.193  11.607  68.878  1.00  0.00    -0.143 C  
HETATM   16  O   UNL     1     -11.894  10.541  67.471  1.00  0.00    -0.502 OA 
HETATM   17  H   UNL     1     -12.561  11.078  67.880  1.00  0.00     0.000 HD 
HETATM   18  C   UNL     1     -12.125  12.833  66.008  1.00  0.00    -0.458 A  
HETATM   19  C   UNL     1     -11.170  12.516  69.658  1.00  0.00    -0.090 C  
HETATM   20  C   UNL     1     -12.306  13.955  65.196  1.00  0.00    -0.471 A  
HETATM   21  C   UNL     1     -12.408  11.801  70.199  1.00  0.00    -0.272 C  
HETATM   22  C   UNL     1     -12.055  10.563  71.015  1.00  0.00    -0.492 C  
HETATM   23  C   UNL     1     -11.231  14.790  64.906  1.00  0.00    -0.411 A  
HETATM   24  C   UNL     1      -9.976  14.507  65.438  1.00  0.00    -0.352 A  
HETATM   25  C   UNL     1     -11.085   9.633  70.299  1.00  0.00    -0.327 C  
HETATM   26  C   UNL     1      -9.865  10.376  69.757  1.00  0.00    -0.134 C  
HETATM   27  C   UNL     1      -9.798  13.388  66.257  1.00  0.00    -0.295 A  
ENDBRANCH  10  11
ENDBRANCH   9  10
ENDBRANCH   8   9
ENDBRANCH   6   7
ENDBRANCH   3   6
ENDBRANCH   2   3
TORSDOF 7
ENDMDL
MODEL       65
REMARK 921   NORMALIZED FREE ENERGY PREDICTED BY IDOCK:   -4.69 KCAL/MOL
REMARK 922        TOTAL FREE ENERGY PREDICTED BY IDOCK:   -7.85 KCAL/MOL
REMARK 923 INTER-LIGAND FREE ENERGY PREDICTED BY IDOCK:   -6.64 KCAL/MOL
REMARK 924 INTRA-LIGAND FREE ENERGY PREDICTED BY IDOCK:   -1.22 KCAL/MOL
REMARK 927      BINDING AFFINITY PREDICTED BY RF-SCORE:    0.00 PKD
ROOT
HETATM    1  C   UNL     1      -7.617   8.150  68.525  1.00  0.00    -0.104 C  
HETATM    2  C   UNL     1      -8.100   8.939  69.740  1.00  0.00    -0.109 C  
ENDROOT
BRANCH   2   3
HETATM    3  N   UNL     1      -8.889   8.155  70.705  1.00  0.00    -0.137 NA 
BRANCH   3   4
HETATM    4  C   UNL     1      -8.653   8.525  72.111  1.00  0.00    -0.173 C  
HETATM    5  C   UNL     1      -7.628   7.692  72.873  1.00  0.00    -0.117 C  
ENDBRANCH   3   4
BRANCH   3   6
HETATM    6  C   UNL     1     -10.308   8.183  70.308  1.00  0.00    -0.209 C  
BRANCH   6   7
HETATM    7  C   UNL     1     -10.843   9.600  70.183  1.00  0.00    -0.325 C  
HETATM    8  C   UNL     1     -11.301  10.816  70.076  1.00  0.00    -0.397 C  
BRANCH   8   9
HETATM    9  C   UNL     1     -11.793  12.191  69.969  1.00  0.00    -0.306 C  
BRANCH   9  10
HETATM   10  O   UNL     1     -12.040  12.535  68.598  1.00  0.00    -0.266 OA 
BRANCH  10  11
HETATM   11  C   UNL     1     -11.157  13.435  68.064  1.00  0.00    -0.255 C  
HETATM   12  O   UNL     1     -10.977  14.569  68.495  1.00  0.00    -0.234 OA 
HETATM   13  C   UNL     1     -10.454  12.817  66.802  1.00  0.00    -0.241 C  
HETATM   14  C   UNL     1      -8.932  12.783  67.055  1.00  0.00    -0.221 A  
HETATM   15  C   UNL     1     -10.830  13.677  65.541  1.00  0.00    -0.295 C  
HETATM   16  O   UNL     1     -10.899  11.467  66.600  1.00  0.00    -0.264 OA 
HETATM   17  H   UNL     1     -10.475  11.094  65.837  1.00  0.00     0.000 HD 
HETATM   18  C   UNL     1      -8.205  11.578  67.016  1.00  0.00    -0.167 A  
HETATM   19  C   UNL     1     -10.174  13.207  64.222  1.00  0.00    -0.283 C  
HETATM   20  C   UNL     1      -6.834  11.547  67.282  1.00  0.00    -0.118 A  
HETATM   21  C   UNL     1     -10.821  11.973  63.594  1.00  0.00    -0.510 C  
HETATM   22  C   UNL     1     -12.327  12.132  63.420  1.00  0.00    -0.648 C  
HETATM   23  C   UNL     1      -6.155  12.721  67.595  1.00  0.00    -0.152 A  
HETATM   24  C   UNL     1      -6.847  13.928  67.630  1.00  0.00    -0.193 A  
HETATM   25  C   UNL     1     -13.028  12.603  64.688  1.00  0.00    -0.225 C  
HETATM   26  C   UNL     1     -12.352  13.828  65.300  1.00  0.00    -0.491 C  
HETATM   27  C   UNL     1      -8.218  13.958  67.356  1.00  0.00    -0.198 A  
ENDBRANCH  10  11
ENDBRANCH   9  10
ENDBRANCH   8   9
ENDBRANCH   6   7
ENDBRANCH   3   6
ENDBRANCH   2   3
TORSDOF 7
ENDMDL
MODEL       66
REMARK 921   NORMALIZED FREE ENERGY PREDICTED BY IDOCK:   -4.65 KCAL/MOL
REMARK 922        TOTAL FREE ENERGY PREDICTED BY IDOCK:   -7.80 KCAL/MOL
REMARK 923 INTER-LIGAND FREE ENERGY PREDICTED BY IDOCK:   -7.30 KCAL/MOL
REMARK 924 INTRA-LIGAND FREE ENERGY PREDICTED BY IDOCK:   -0.49 KCAL/MOL
REMARK 927      BINDING AFFINITY PREDICTED BY RF-SCORE:    0.00 PKD
ROOT
HETATM    1  C   UNL     1     -10.525  12.287  63.422  1.00  0.00    -0.408 C  
HETATM    2  C   UNL     1     -10.719  12.765  64.860  1.00  0.00    -0.305 C  
ENDROOT
BRANCH   2   3
HETATM    3  N   UNL     1     -10.349  11.777  65.889  1.00  0.00    -0.232 NA 
BRANCH   3   4
HETATM    4  C   UNL     1     -11.181  11.839  67.102  1.00  0.00    -0.316 C  
HETATM    5  C   UNL     1     -11.981  13.119  67.318  1.00  0.00    -0.389 C  
ENDBRANCH   3   4
BRANCH   3   6
HETATM    6  C   UNL     1     -10.283  10.439  65.275  1.00  0.00    -0.262 C  
BRANCH   6   7
HETATM    7  C   UNL     1     -10.157   9.335  66.311  1.00  0.00    -0.322 C  
HETATM    8  C   UNL     1     -10.051   8.388  67.201  1.00  0.00    -0.335 C  
BRANCH   8   9
HETATM    9  C   UNL     1      -9.956   7.333  68.212  1.00  0.00    -0.160 C  
BRANCH   9  10
HETATM   10  O   UNL     1      -9.011   7.692  69.231  1.00  0.00    -0.136 OA 
BRANCH  10  11
HETATM   11  C   UNL     1      -9.509   8.500  70.217  1.00  0.00    -0.166 C  
HETATM   12  O   UNL     1      -9.499   9.726  70.180  1.00  0.00    -0.240 OA 
HETATM   13  C   UNL     1     -10.044   7.628  71.410  1.00  0.00    -0.182 C  
HETATM   14  C   UNL     1     -11.546   7.926  71.600  1.00  0.00    -0.311 A  
HETATM   15  C   UNL     1      -9.202   7.957  72.695  1.00  0.00    -0.269 C  
HETATM   16  O   UNL     1      -9.906   6.232  71.102  1.00  0.00    -0.178 OA 
HETATM   17  H   UNL     1     -10.229   5.705  71.823  1.00  0.00     0.000 HD 
HETATM   18  C   UNL     1     -12.517   6.910  71.516  1.00  0.00    -0.420 A  
HETATM   19  C   UNL     1      -9.645   7.197  73.967  1.00  0.00    -0.311 C  
HETATM   20  C   UNL     1     -13.879   7.191  71.653  1.00  0.00    -0.418 A  
HETATM   21  C   UNL     1      -9.194   5.738  74.025  1.00  0.00    -0.127 C  
HETATM   22  C   UNL     1      -7.694   5.583  73.800  1.00  0.00    -0.101 C  
HETATM   23  C   UNL     1     -14.304   8.496  71.877  1.00  0.00    -0.536 A  
HETATM   24  C   UNL     1     -13.365   9.520  71.976  1.00  0.00    -0.535 A  
HETATM   25  C   UNL     1      -7.198   6.321  72.563  1.00  0.00    -0.084 C  
HETATM   26  C   UNL     1      -7.675   7.771  72.525  1.00  0.00    -0.128 C  
HETATM   27  C   UNL     1     -12.002   9.235  71.846  1.00  0.00    -0.433 A  
ENDBRANCH  10  11
ENDBRANCH   9  10
ENDBRANCH   8   9
ENDBRANCH   6   7
ENDBRANCH   3   6
ENDBRANCH   2   3
TORSDOF 7
ENDMDL
MODEL       67
REMARK 921   NORMALIZED FREE ENERGY PREDICTED BY IDOCK:   -4.62 KCAL/MOL
REMARK 922        TOTAL FREE ENERGY PREDICTED BY IDOCK:   -7.75 KCAL/MOL
REMARK 923 INTER-LIGAND FREE ENERGY PREDICTED BY IDOCK:   -7.17 KCAL/MOL
REMARK 924 INTRA-LIGAND FREE ENERGY PREDICTED BY IDOCK:   -0.58 KCAL/MOL
REMARK 927      BINDING AFFINITY PREDICTED BY RF-SCORE:    0.00 PKD
ROOT
HETATM    1  C   UNL     1      -9.507   6.740  70.641  1.00  0.00    -0.171 C  
HETATM    2  C   UNL     1      -8.918   6.054  69.411  1.00  0.00    -0.126 C  
ENDROOT
BRANCH   2   3
HETATM    3  N   UNL     1      -8.882   6.893  68.201  1.00  0.00    -0.125 NA 
BRANCH   3   4
HETATM    4  C   UNL     1      -8.380   6.196  67.005  1.00  0.00    -0.105 C  
HETATM    5  C   UNL     1      -9.342   5.230  66.323  1.00  0.00    -0.159 C  
ENDBRANCH   3   4
BRANCH   3   6
HETATM    6  C   UNL     1     -10.195   7.534  68.015  1.00  0.00    -0.195 C  
BRANCH   6   7
HETATM    7  C   UNL     1     -10.079   9.033  67.794  1.00  0.00    -0.260 C  
HETATM    8  C   UNL     1      -9.979  10.319  67.606  1.00  0.00    -0.212 C  
BRANCH   8   9
HETATM    9  C   UNL     1      -9.892  11.768  67.410  1.00  0.00    -0.178 C  
BRANCH   9  10
HETATM   10  O   UNL     1     -10.129  12.461  68.644  1.00  0.00    -0.210 OA 
BRANCH  10  11
HETATM   11  C   UNL     1     -11.246  13.253  68.653  1.00  0.00    -0.274 C  
HETATM   12  O   UNL     1     -12.361  12.883  68.303  1.00  0.00    -0.073 OA 
HETATM   13  C   UNL     1     -10.874  14.704  69.129  1.00  0.00    -0.259 C  
HETATM   14  C   UNL     1     -11.689  15.027  70.399  1.00  0.00    -0.336 A  
HETATM   15  C   UNL     1     -11.167  15.711  67.958  1.00  0.00    -0.339 C  
HETATM   16  O   UNL     1      -9.481  14.771  69.468  1.00  0.00    -0.409 OA 
HETATM   17  H   UNL     1      -9.256  15.648  69.755  1.00  0.00     0.000 HD 
HETATM   18  C   UNL     1     -11.060  15.368  71.611  1.00  0.00    -0.273 A  
HETATM   19  C   UNL     1     -10.885  17.193  68.298  1.00  0.00    -0.314 C  
HETATM   20  C   UNL     1     -11.801  15.625  72.768  1.00  0.00    -0.580 A  
HETATM   21  C   UNL     1      -9.406  17.578  68.281  1.00  0.00    -0.281 C  
HETATM   22  C   UNL     1      -8.717  17.183  66.980  1.00  0.00    -0.244 C  
HETATM   23  C   UNL     1     -13.189  15.546  72.741  1.00  0.00    -0.605 A  
HETATM   24  C   UNL     1     -13.838  15.221  71.552  1.00  0.00    -0.617 A  
HETATM   25  C   UNL     1      -8.969  15.732  66.589  1.00  0.00    -0.313 C  
HETATM   26  C   UNL     1     -10.452  15.372  66.628  1.00  0.00    -0.293 C  
HETATM   27  C   UNL     1     -13.096  14.973  70.394  1.00  0.00    -0.222 A  
ENDBRANCH  10  11
ENDBRANCH   9  10
ENDBRANCH   8   9
ENDBRANCH   6   7
ENDBRANCH   3   6
ENDBRANCH   2   3
TORSDOF 7
ENDMDL
MODEL       68
REMARK 921   NORMALIZED FREE ENERGY PREDICTED BY IDOCK:   -4.61 KCAL/MOL
REMARK 922        TOTAL FREE ENERGY PREDICTED BY IDOCK:   -7.75 KCAL/MOL
REMARK 923 INTER-LIGAND FREE ENERGY PREDICTED BY IDOCK:   -7.57 KCAL/MOL
REMARK 924 INTRA-LIGAND FREE ENERGY PREDICTED BY IDOCK:   -0.17 KCAL/MOL
REMARK 927      BINDING AFFINITY PREDICTED BY RF-SCORE:    0.00 PKD
ROOT
HETATM    1  C   UNL     1     -11.059   6.164  70.655  1.00  0.00    -0.384 C  
HETATM    2  C   UNL     1     -12.156   6.887  71.432  1.00  0.00    -0.364 C  
ENDROOT
BRANCH   2   3
HETATM    3  N   UNL     1     -11.666   7.863  72.421  1.00  0.00    -0.355 NA 
BRANCH   3   4
HETATM    4  C   UNL     1     -10.289   7.610  72.877  1.00  0.00    -0.322 C  
HETATM    5  C   UNL     1     -10.124   6.677  74.071  1.00  0.00    -0.373 C  
ENDBRANCH   3   4
BRANCH   3   6
HETATM    6  C   UNL     1     -11.887   9.227  71.909  1.00  0.00    -0.356 C  
BRANCH   6   7
HETATM    7  C   UNL     1     -10.923   9.585  70.790  1.00  0.00    -0.389 C  
HETATM    8  C   UNL     1     -10.096   9.892  69.830  1.00  0.00    -0.297 C  
BRANCH   8   9
HETATM    9  C   UNL     1      -9.144  10.223  68.767  1.00  0.00    -0.159 C  
BRANCH   9  10
HETATM   10  O   UNL     1      -8.877  11.632  68.747  1.00  0.00    -0.122 OA 
BRANCH  10  11
HETATM   11  C   UNL     1      -9.958  12.417  68.445  1.00  0.00    -0.210 C  
HETATM   12  O   UNL     1     -10.906  12.612  69.198  1.00  0.00    -0.186 OA 
HETATM   13  C   UNL     1      -9.821  12.984  66.986  1.00  0.00    -0.238 C  
HETATM   14  C   UNL     1      -9.811  14.525  67.057  1.00  0.00    -0.249 A  
HETATM   15  C   UNL     1     -11.009  12.434  66.116  1.00  0.00    -0.321 C  
HETATM   16  O   UNL     1      -8.578  12.559  66.405  1.00  0.00    -0.409 OA 
HETATM   17  H   UNL     1      -8.496  12.902  65.523  1.00  0.00     0.000 HD 
HETATM   18  C   UNL     1      -8.733  15.279  66.556  1.00  0.00    -0.314 A  
HETATM   19  C   UNL     1     -11.027  12.943  64.656  1.00  0.00    -0.357 C  
HETATM   20  C   UNL     1      -8.712  16.673  66.656  1.00  0.00    -0.280 A  
HETATM   21  C   UNL     1     -10.016  12.264  63.733  1.00  0.00    -0.302 C  
HETATM   22  C   UNL     1     -10.119  10.744  63.775  1.00  0.00    -0.391 C  
HETATM   23  C   UNL     1      -9.768  17.347  67.259  1.00  0.00    -0.267 A  
HETATM   24  C   UNL     1     -10.853  16.627  67.753  1.00  0.00    -0.292 A  
HETATM   25  C   UNL     1     -10.116  10.185  65.192  1.00  0.00    -0.329 C  
HETATM   26  C   UNL     1     -11.125  10.890  66.094  1.00  0.00    -0.009 C  
HETATM   27  C   UNL     1     -10.876  15.234  67.646  1.00  0.00    -0.295 A  
ENDBRANCH  10  11
ENDBRANCH   9  10
ENDBRANCH   8   9
ENDBRANCH   6   7
ENDBRANCH   3   6
ENDBRANCH   2   3
TORSDOF 7
ENDMDL
MODEL       69
REMARK 921   NORMALIZED FREE ENERGY PREDICTED BY IDOCK:   -4.59 KCAL/MOL
REMARK 922        TOTAL FREE ENERGY PREDICTED BY IDOCK:   -7.72 KCAL/MOL
REMARK 923 INTER-LIGAND FREE ENERGY PREDICTED BY IDOCK:   -6.61 KCAL/MOL
REMARK 924 INTRA-LIGAND FREE ENERGY PREDICTED BY IDOCK:   -1.11 KCAL/MOL
REMARK 927      BINDING AFFINITY PREDICTED BY RF-SCORE:    0.00 PKD
ROOT
HETATM    1  C   UNL     1      -9.165  14.678  68.285  1.00  0.00    -0.198 C  
HETATM    2  C   UNL     1     -10.218  15.577  67.641  1.00  0.00    -0.255 C  
ENDROOT
BRANCH   2   3
HETATM    3  N   UNL     1     -11.608  15.248  68.002  1.00  0.00    -0.339 NA 
BRANCH   3   4
HETATM    4  C   UNL     1     -12.019  13.887  67.618  1.00  0.00    -0.368 C  
HETATM    5  C   UNL     1     -12.413  13.678  66.161  1.00  0.00    -0.449 C  
ENDBRANCH   3   4
BRANCH   3   6
HETATM    6  C   UNL     1     -11.826  15.562  69.425  1.00  0.00    -0.374 C  
BRANCH   6   7
HETATM    7  C   UNL     1     -12.223  14.336  70.231  1.00  0.00    -0.407 C  
HETATM    8  C   UNL     1     -12.565  13.285  70.923  1.00  0.00    -0.386 C  
BRANCH   8   9
HETATM    9  C   UNL     1     -12.951  12.121  71.723  1.00  0.00    -0.332 C  
BRANCH   9  10
HETATM   10  O   UNL     1     -12.001  11.058  71.562  1.00  0.00    -0.095 OA 
BRANCH  10  11
HETATM   11  C   UNL     1     -12.044  10.430  70.346  1.00  0.00    -0.315 C  
HETATM   12  O   UNL     1     -13.002  10.466  69.580  1.00  0.00    -0.029 OA 
HETATM   13  C   UNL     1     -10.716   9.625  70.108  1.00  0.00    -0.275 C  
HETATM   14  C   UNL     1     -10.035  10.169  68.834  1.00  0.00    -0.207 A  
HETATM   15  C   UNL     1     -11.063   8.096  69.993  1.00  0.00    -0.146 C  
HETATM   16  O   UNL     1      -9.815   9.821  71.208  1.00  0.00    -0.239 OA 
HETATM   17  H   UNL     1      -9.012   9.335  71.065  1.00  0.00     0.000 HD 
HETATM   18  C   UNL     1      -8.730  10.694  68.863  1.00  0.00    -0.163 A  
HETATM   19  C   UNL     1      -9.849   7.179  69.716  1.00  0.00    -0.173 C  
HETATM   20  C   UNL     1      -8.131  11.218  67.714  1.00  0.00    -0.119 A  
HETATM   21  C   UNL     1      -8.969   6.905  70.935  1.00  0.00    -0.149 C  
HETATM   22  C   UNL     1      -9.769   6.394  72.127  1.00  0.00    -0.161 C  
HETATM   23  C   UNL     1      -8.824  11.231  66.508  1.00  0.00    -0.180 A  
HETATM   24  C   UNL     1     -10.113  10.708  66.448  1.00  0.00    -0.279 A  
HETATM   25  C   UNL     1     -10.986   7.255  72.442  1.00  0.00    -0.306 C  
HETATM   26  C   UNL     1     -11.839   7.524  71.205  1.00  0.00    -0.324 C  
HETATM   27  C   UNL     1     -10.707  10.176  67.597  1.00  0.00    -0.339 A  
ENDBRANCH  10  11
ENDBRANCH   9  10
ENDBRANCH   8   9
ENDBRANCH   6   7
ENDBRANCH   3   6
ENDBRANCH   2   3
TORSDOF 7
ENDMDL
MODEL       70
REMARK 921   NORMALIZED FREE ENERGY PREDICTED BY IDOCK:   -4.59 KCAL/MOL
REMARK 922        TOTAL FREE ENERGY PREDICTED BY IDOCK:   -7.71 KCAL/MOL
REMARK 923 INTER-LIGAND FREE ENERGY PREDICTED BY IDOCK:   -6.69 KCAL/MOL
REMARK 924 INTRA-LIGAND FREE ENERGY PREDICTED BY IDOCK:   -1.02 KCAL/MOL
REMARK 927      BINDING AFFINITY PREDICTED BY RF-SCORE:    0.00 PKD
ROOT
HETATM    1  C   UNL     1      -8.647   4.596  65.034  1.00  0.00    -0.138 C  
HETATM    2  C   UNL     1      -8.260   6.037  64.709  1.00  0.00    -0.123 C  
ENDROOT
BRANCH   2   3
HETATM    3  N   UNL     1      -8.346   6.965  65.850  1.00  0.00    -0.132 NA 
BRANCH   3   4
HETATM    4  C   UNL     1      -9.240   6.508  66.927  1.00  0.00    -0.140 C  
HETATM    5  C   UNL     1     -10.572   7.237  67.065  1.00  0.00    -0.415 C  
ENDBRANCH   3   4
BRANCH   3   6
HETATM    6  C   UNL     1      -6.985   7.303  66.304  1.00  0.00    -0.066 C  
BRANCH   6   7
HETATM    7  C   UNL     1      -6.952   8.583  67.121  1.00  0.00    -0.075 C  
HETATM    8  C   UNL     1      -6.924   9.682  67.824  1.00  0.00    -0.079 C  
BRANCH   8   9
HETATM    9  C   UNL     1      -6.921  10.918  68.609  1.00  0.00    -0.073 C  
BRANCH   9  10
HETATM   10  O   UNL     1      -7.795  11.893  68.020  1.00  0.00    -0.122 OA 
BRANCH  10  11
HETATM   11  C   UNL     1      -9.122  11.725  68.311  1.00  0.00    -0.187 C  
HETATM   12  O   UNL     1      -9.552  10.958  69.167  1.00  0.00    -0.186 OA 
HETATM   13  C   UNL     1     -10.000  12.618  67.362  1.00  0.00    -0.204 C  
HETATM   14  C   UNL     1     -10.820  13.596  68.229  1.00  0.00    -0.268 A  
HETATM   15  C   UNL     1     -10.914  11.683  66.490  1.00  0.00    -0.349 C  
HETATM   16  O   UNL     1      -9.158  13.394  66.496  1.00  0.00    -0.389 OA 
HETATM   17  H   UNL     1      -9.689  13.933  65.922  1.00  0.00     0.000 HD 
HETATM   18  C   UNL     1     -10.714  14.991  68.068  1.00  0.00    -0.262 A  
HETATM   19  C   UNL     1     -11.868  12.430  65.529  1.00  0.00    -0.469 C  
HETATM   20  C   UNL     1     -11.432  15.873  68.880  1.00  0.00    -0.386 A  
HETATM   21  C   UNL     1     -11.200  12.980  64.270  1.00  0.00    -0.411 C  
HETATM   22  C   UNL     1     -10.406  11.916  63.521  1.00  0.00    -0.495 C  
HETATM   23  C   UNL     1     -12.272  15.383  69.874  1.00  0.00    -0.363 A  
HETATM   24  C   UNL     1     -12.404  14.007  70.049  1.00  0.00    -0.397 A  
HETATM   25  C   UNL     1      -9.453  11.139  64.421  1.00  0.00    -0.251 C  
HETATM   26  C   UNL     1     -10.144  10.614  65.677  1.00  0.00    -0.335 C  
HETATM   27  C   UNL     1     -11.692  13.126  69.230  1.00  0.00    -0.376 A  
ENDBRANCH  10  11
ENDBRANCH   9  10
ENDBRANCH   8   9
ENDBRANCH   6   7
ENDBRANCH   3   6
ENDBRANCH   2   3
TORSDOF 7
ENDMDL
MODEL       71
REMARK 921   NORMALIZED FREE ENERGY PREDICTED BY IDOCK:   -4.59 KCAL/MOL
REMARK 922        TOTAL FREE ENERGY PREDICTED BY IDOCK:   -7.71 KCAL/MOL
REMARK 923 INTER-LIGAND FREE ENERGY PREDICTED BY IDOCK:   -6.97 KCAL/MOL
REMARK 924 INTRA-LIGAND FREE ENERGY PREDICTED BY IDOCK:   -0.74 KCAL/MOL
REMARK 927      BINDING AFFINITY PREDICTED BY RF-SCORE:    0.00 PKD
ROOT
HETATM    1  C   UNL     1      -9.389   8.602  66.937  1.00  0.00    -0.216 C  
HETATM    2  C   UNL     1      -9.805   9.997  66.474  1.00  0.00    -0.210 C  
ENDROOT
BRANCH   2   3
HETATM    3  N   UNL     1      -9.564  11.066  67.459  1.00  0.00    -0.163 NA 
BRANCH   3   4
HETATM    4  C   UNL     1      -9.868  10.678  68.847  1.00  0.00    -0.201 C  
HETATM    5  C   UNL     1     -11.176  11.198  69.431  1.00  0.00    -0.334 C  
ENDBRANCH   3   4
BRANCH   3   6
HETATM    6  C   UNL     1      -8.206  11.604  67.270  1.00  0.00    -0.159 C  
BRANCH   6   7
HETATM    7  C   UNL     1      -7.936  12.811  68.152  1.00  0.00    -0.156 C  
HETATM    8  C   UNL     1      -7.705  13.847  68.910  1.00  0.00    -0.041 C  
BRANCH   8   9
HETATM    9  C   UNL     1      -7.466  15.026  69.745  1.00  0.00    -0.102 C  
BRANCH   9  10
HETATM   10  O   UNL     1      -7.264  16.190  68.930  1.00  0.00    -0.153 OA 
BRANCH  10  11
HETATM   11  C   UNL     1      -7.662  16.055  67.627  1.00  0.00    -0.145 C  
HETATM   12  O   UNL     1      -6.978  15.553  66.742  1.00  0.00    -0.175 OA 
HETATM   13  C   UNL     1      -9.091  16.679  67.433  1.00  0.00    -0.201 C  
HETATM   14  C   UNL     1     -10.045  15.573  66.935  1.00  0.00    -0.263 A  
HETATM   15  C   UNL     1      -8.987  17.877  66.422  1.00  0.00    -0.247 C  
HETATM   16  O   UNL     1      -9.593  17.165  68.687  1.00  0.00    -0.264 OA 
HETATM   17  H   UNL     1     -10.456  17.542  68.570  1.00  0.00     0.000 HD 
HETATM   18  C   UNL     1     -11.207  15.225  67.650  1.00  0.00    -0.320 A  
HETATM   19  C   UNL     1     -10.333  18.567  66.101  1.00  0.00    -0.457 C  
HETATM   20  C   UNL     1     -12.048  14.198  67.214  1.00  0.00    -0.407 A  
HETATM   21  C   UNL     1     -10.840  19.510  67.191  1.00  0.00    -0.555 C  
HETATM   22  C   UNL     1      -9.793  20.538  67.605  1.00  0.00    -0.484 C  
HETATM   23  C   UNL     1     -11.748  13.492  66.053  1.00  0.00    -0.389 A  
HETATM   24  C   UNL     1     -10.610  13.822  65.321  1.00  0.00    -0.363 A  
HETATM   25  C   UNL     1      -8.440  19.915  67.924  1.00  0.00    -0.332 C  
HETATM   26  C   UNL     1      -7.965  18.968  66.825  1.00  0.00    -0.270 C  
HETATM   27  C   UNL     1      -9.774  14.856  65.754  1.00  0.00    -0.359 A  
ENDBRANCH  10  11
ENDBRANCH   9  10
ENDBRANCH   8   9
ENDBRANCH   6   7
ENDBRANCH   3   6
ENDBRANCH   2   3
TORSDOF 7
ENDMDL
MODEL       72
REMARK 921   NORMALIZED FREE ENERGY PREDICTED BY IDOCK:   -4.57 KCAL/MOL
REMARK 922        TOTAL FREE ENERGY PREDICTED BY IDOCK:   -7.69 KCAL/MOL
REMARK 923 INTER-LIGAND FREE ENERGY PREDICTED BY IDOCK:   -6.76 KCAL/MOL
REMARK 924 INTRA-LIGAND FREE ENERGY PREDICTED BY IDOCK:   -0.93 KCAL/MOL
REMARK 927      BINDING AFFINITY PREDICTED BY RF-SCORE:    0.00 PKD
ROOT
HETATM    1  C   UNL     1     -11.731  14.414  68.630  1.00  0.00    -0.367 C  
HETATM    2  C   UNL     1     -11.232  12.987  68.849  1.00  0.00    -0.278 C  
ENDROOT
BRANCH   2   3
HETATM    3  N   UNL     1     -11.947  11.962  68.070  1.00  0.00    -0.553 NA 
BRANCH   3   4
HETATM    4  C   UNL     1     -11.381  11.726  66.731  1.00  0.00    -0.320 C  
HETATM    5  C   UNL     1     -12.033  12.471  65.572  1.00  0.00    -0.500 C  
ENDBRANCH   3   4
BRANCH   3   6
HETATM    6  C   UNL     1     -12.087  10.742  68.885  1.00  0.00    -0.037 C  
BRANCH   6   7
HETATM    7  C   UNL     1     -10.787   9.961  68.981  1.00  0.00    -0.242 C  
HETATM    8  C   UNL     1      -9.672   9.291  69.062  1.00  0.00    -0.162 C  
BRANCH   8   9
HETATM    9  C   UNL     1      -8.428   8.520  69.132  1.00  0.00    -0.125 C  
BRANCH   9  10
HETATM   10  O   UNL     1      -8.512   7.515  70.153  1.00  0.00    -0.133 OA 
BRANCH  10  11
HETATM   11  C   UNL     1      -9.156   7.910  71.295  1.00  0.00    -0.139 C  
HETATM   12  O   UNL     1      -8.929   8.957  71.892  1.00  0.00    -0.331 OA 
HETATM   13  C   UNL     1     -10.182   6.808  71.744  1.00  0.00    -0.190 C  
HETATM   14  C   UNL     1     -11.594   7.431  71.764  1.00  0.00    -0.305 A  
HETATM   15  C   UNL     1      -9.752   6.259  73.152  1.00  0.00    -0.164 C  
HETATM   16  O   UNL     1     -10.190   5.726  70.800  1.00  0.00    -0.197 OA 
HETATM   17  H   UNL     1     -10.810   5.060  71.072  1.00  0.00     0.000 HD 
HETATM   18  C   UNL     1     -12.643   6.906  70.985  1.00  0.00    -0.319 A  
HETATM   19  C   UNL     1     -10.698   5.188  73.743  1.00  0.00    -0.352 C  
HETATM   20  C   UNL     1     -13.910   7.496  70.979  1.00  0.00    -0.118 A  
HETATM   21  C   UNL     1     -10.541   3.796  73.134  1.00  0.00    -0.268 C  
HETATM   22  C   UNL     1      -9.096   3.310  73.158  1.00  0.00    -0.103 C  
HETATM   23  C   UNL     1     -14.159   8.626  71.751  1.00  0.00    -0.499 A  
HETATM   24  C   UNL     1     -13.142   9.160  72.539  1.00  0.00    -0.445 A  
HETATM   25  C   UNL     1      -8.115   4.330  72.596  1.00  0.00    -0.096 C  
HETATM   26  C   UNL     1      -8.304   5.715  73.212  1.00  0.00    -0.117 C  
HETATM   27  C   UNL     1     -11.878   8.564  72.550  1.00  0.00    -0.398 A  
ENDBRANCH  10  11
ENDBRANCH   9  10
ENDBRANCH   8   9
ENDBRANCH   6   7
ENDBRANCH   3   6
ENDBRANCH   2   3
TORSDOF 7
ENDMDL
MODEL       73
REMARK 921   NORMALIZED FREE ENERGY PREDICTED BY IDOCK:   -4.57 KCAL/MOL
REMARK 922        TOTAL FREE ENERGY PREDICTED BY IDOCK:   -7.68 KCAL/MOL
REMARK 923 INTER-LIGAND FREE ENERGY PREDICTED BY IDOCK:   -6.59 KCAL/MOL
REMARK 924 INTRA-LIGAND FREE ENERGY PREDICTED BY IDOCK:   -1.08 KCAL/MOL
REMARK 927      BINDING AFFINITY PREDICTED BY RF-SCORE:    0.00 PKD
ROOT
HETATM    1  C   UNL     1     -11.252  15.249  67.798  1.00  0.00    -0.327 C  
HETATM    2  C   UNL     1     -11.981  14.163  67.010  1.00  0.00    -0.439 C  
ENDROOT
BRANCH   2   3
HETATM    3  N   UNL     1     -11.956  12.830  67.637  1.00  0.00    -0.349 NA 
BRANCH   3   4
HETATM    4  C   UNL     1     -11.233  11.815  66.853  1.00  0.00    -0.327 C  
HETATM    5  C   UNL     1     -11.325  11.930  65.336  1.00  0.00    -0.334 C  
ENDBRANCH   3   4
BRANCH   3   6
HETATM    6  C   UNL     1     -11.490  12.958  69.029  1.00  0.00    -0.308 C  
BRANCH   6   7
HETATM    7  C   UNL     1     -11.892  11.767  69.883  1.00  0.00    -0.423 C  
HETATM    8  C   UNL     1     -12.239  10.746  70.616  1.00  0.00    -0.474 C  
BRANCH   8   9
HETATM    9  C   UNL     1     -12.630   9.616  71.462  1.00  0.00    -0.391 C  
BRANCH   9  10
HETATM   10  O   UNL     1     -12.031   8.400  70.992  1.00  0.00    -0.287 OA 
BRANCH  10  11
HETATM   11  C   UNL     1     -10.945   7.980  71.711  1.00  0.00    -0.251 C  
HETATM   12  O   UNL     1     -10.804   8.151  72.918  1.00  0.00    -0.357 OA 
HETATM   13  C   UNL     1      -9.899   7.297  70.759  1.00  0.00    -0.178 C  
HETATM   14  C   UNL     1      -9.687   5.841  71.225  1.00  0.00    -0.210 A  
HETATM   15  C   UNL     1      -8.567   8.132  70.786  1.00  0.00    -0.138 C  
HETATM   16  O   UNL     1     -10.403   7.262  69.415  1.00  0.00    -0.196 OA 
HETATM   17  H   UNL     1      -9.771   6.849  68.839  1.00  0.00     0.000 HD 
HETATM   18  C   UNL     1      -9.931   4.750  70.370  1.00  0.00    -0.315 A  
HETATM   19  C   UNL     1      -7.425   7.553  69.920  1.00  0.00    -0.084 C  
HETATM   20  C   UNL     1      -9.773   3.433  70.809  1.00  0.00    -0.190 A  
HETATM   21  C   UNL     1      -7.573   7.807  68.421  1.00  0.00    -0.109 C  
HETATM   22  C   UNL     1      -7.798   9.281  68.100  1.00  0.00    -0.095 C  
HETATM   23  C   UNL     1      -9.368   3.174  72.114  1.00  0.00    -0.181 A  
HETATM   24  C   UNL     1      -9.109   4.235  72.979  1.00  0.00    -0.122 A  
HETATM   25  C   UNL     1      -8.908   9.909  68.933  1.00  0.00    -0.145 C  
HETATM   26  C   UNL     1      -8.743   9.627  70.424  1.00  0.00    -0.213 C  
HETATM   27  C   UNL     1      -9.260   5.552  72.536  1.00  0.00    -0.150 A  
ENDBRANCH  10  11
ENDBRANCH   9  10
ENDBRANCH   8   9
ENDBRANCH   6   7
ENDBRANCH   3   6
ENDBRANCH   2   3
TORSDOF 7
ENDMDL
MODEL       74
REMARK 921   NORMALIZED FREE ENERGY PREDICTED BY IDOCK:   -4.56 KCAL/MOL
REMARK 922        TOTAL FREE ENERGY PREDICTED BY IDOCK:   -7.67 KCAL/MOL
REMARK 923 INTER-LIGAND FREE ENERGY PREDICTED BY IDOCK:   -6.61 KCAL/MOL
REMARK 924 INTRA-LIGAND FREE ENERGY PREDICTED BY IDOCK:   -1.06 KCAL/MOL
REMARK 927      BINDING AFFINITY PREDICTED BY RF-SCORE:    0.00 PKD
ROOT
HETATM    1  C   UNL     1     -10.480   9.132  68.286  1.00  0.00    -0.254 C  
HETATM    2  C   UNL     1      -9.512   9.826  69.242  1.00  0.00    -0.194 C  
ENDROOT
BRANCH   2   3
HETATM    3  N   UNL     1      -8.098   9.763  68.834  1.00  0.00    -0.096 NA 
BRANCH   3   4
HETATM    4  C   UNL     1      -7.878  10.027  67.402  1.00  0.00    -0.099 C  
HETATM    5  C   UNL     1      -7.059   8.996  66.635  1.00  0.00    -0.081 C  
ENDBRANCH   3   4
BRANCH   3   6
HETATM    6  C   UNL     1      -7.296  10.613  69.731  1.00  0.00    -0.108 C  
BRANCH   6   7
HETATM    7  C   UNL     1      -6.860  11.906  69.063  1.00  0.00    -0.105 C  
HETATM    8  C   UNL     1      -6.486  13.016  68.489  1.00  0.00    -0.084 C  
BRANCH   8   9
HETATM    9  C   UNL     1      -6.085  14.256  67.821  1.00  0.00    -0.118 C  
BRANCH   9  10
HETATM   10  O   UNL     1      -7.211  14.873  67.180  1.00  0.00    -0.165 OA 
BRANCH  10  11
HETATM   11  C   UNL     1      -8.120  15.437  68.033  1.00  0.00    -0.140 C  
HETATM   12  O   UNL     1      -7.892  15.711  69.207  1.00  0.00    -0.202 OA 
HETATM   13  C   UNL     1      -9.497  15.633  67.302  1.00  0.00    -0.216 C  
HETATM   14  C   UNL     1      -9.848  17.136  67.313  1.00  0.00    -0.265 A  
HETATM   15  C   UNL     1     -10.584  14.760  68.027  1.00  0.00    -0.244 C  
HETATM   16  O   UNL     1      -9.393  15.213  65.933  1.00  0.00    -0.374 OA 
HETATM   17  H   UNL     1     -10.225  15.331  65.491  1.00  0.00     0.000 HD 
HETATM   18  C   UNL     1     -10.060  17.852  66.119  1.00  0.00    -0.322 A  
HETATM   19  C   UNL     1     -12.008  14.884  67.437  1.00  0.00    -0.144 C  
HETATM   20  C   UNL     1     -10.343  19.221  66.133  1.00  0.00    -0.578 A  
HETATM   21  C   UNL     1     -12.227  14.109  66.139  1.00  0.00    -0.465 C  
HETATM   22  C   UNL     1     -11.820  12.645  66.259  1.00  0.00    -0.471 C  
HETATM   23  C   UNL     1     -10.419  19.907  67.340  1.00  0.00    -0.542 A  
HETATM   24  C   UNL     1     -10.225  19.221  68.537  1.00  0.00    -0.471 A  
HETATM   25  C   UNL     1     -10.426  12.460  66.846  1.00  0.00    -0.243 C  
HETATM   26  C   UNL     1     -10.231  13.257  68.134  1.00  0.00    -0.243 C  
HETATM   27  C   UNL     1      -9.950  17.851  68.521  1.00  0.00    -0.379 A  
ENDBRANCH  10  11
ENDBRANCH   9  10
ENDBRANCH   8   9
ENDBRANCH   6   7
ENDBRANCH   3   6
ENDBRANCH   2   3
TORSDOF 7
ENDMDL
MODEL       75
REMARK 921   NORMALIZED FREE ENERGY PREDICTED BY IDOCK:   -4.56 KCAL/MOL
REMARK 922        TOTAL FREE ENERGY PREDICTED BY IDOCK:   -7.66 KCAL/MOL
REMARK 923 INTER-LIGAND FREE ENERGY PREDICTED BY IDOCK:   -6.55 KCAL/MOL
REMARK 924 INTRA-LIGAND FREE ENERGY PREDICTED BY IDOCK:   -1.11 KCAL/MOL
REMARK 927      BINDING AFFINITY PREDICTED BY RF-SCORE:    0.00 PKD
ROOT
HETATM    1  C   UNL     1     -10.196  10.469  67.716  1.00  0.00    -0.223 C  
HETATM    2  C   UNL     1     -11.361  10.620  68.691  1.00  0.00    -0.281 C  
ENDROOT
BRANCH   2   3
HETATM    3  N   UNL     1     -11.413  11.917  69.388  1.00  0.00    -0.290 NA 
BRANCH   3   4
HETATM    4  C   UNL     1     -11.605  13.069  68.492  1.00  0.00    -0.328 C  
HETATM    5  C   UNL     1     -10.787  14.318  68.798  1.00  0.00    -0.265 C  
ENDBRANCH   3   4
BRANCH   3   6
HETATM    6  C   UNL     1     -12.393  11.840  70.486  1.00  0.00    -0.299 C  
BRANCH   6   7
HETATM    7  C   UNL     1     -12.633  10.411  70.944  1.00  0.00    -0.478 C  
HETATM    8  C   UNL     1     -12.840   9.186  71.338  1.00  0.00    -0.376 C  
BRANCH   8   9
HETATM    9  C   UNL     1     -13.090   7.819  71.801  1.00  0.00    -0.322 C  
BRANCH   9  10
HETATM   10  O   UNL     1     -12.398   6.871  70.976  1.00  0.00    -0.381 OA 
BRANCH  10  11
HETATM   11  C   UNL     1     -11.463   6.114  71.631  1.00  0.00    -0.272 C  
HETATM   12  O   UNL     1     -11.645   5.575  72.717  1.00  0.00    -0.308 OA 
HETATM   13  C   UNL     1     -10.123   6.084  70.811  1.00  0.00    -0.197 C  
HETATM   14  C   UNL     1      -9.800   4.617  70.454  1.00  0.00    -0.306 A  
HETATM   15  C   UNL     1      -8.989   6.753  71.668  1.00  0.00    -0.136 C  
HETATM   16  O   UNL     1     -10.278   6.814  69.584  1.00  0.00    -0.179 OA 
HETATM   17  H   UNL     1      -9.468   6.795  69.089  1.00  0.00     0.000 HD 
HETATM   18  C   UNL     1      -9.654   4.199  69.118  1.00  0.00    -0.243 A  
HETATM   19  C   UNL     1      -7.595   6.759  71.000  1.00  0.00    -0.085 C  
HETATM   20  C   UNL     1      -9.397   2.863  68.798  1.00  0.00    -0.234 A  
HETATM   21  C   UNL     1      -7.417   7.815  69.910  1.00  0.00    -0.081 C  
HETATM   22  C   UNL     1      -7.791   9.214  70.388  1.00  0.00    -0.140 C  
HETATM   23  C   UNL     1      -9.281   1.912  69.807  1.00  0.00    -0.168 A  
HETATM   24  C   UNL     1      -9.411   2.300  71.138  1.00  0.00    -0.204 A  
HETATM   25  C   UNL     1      -9.154   9.267  71.066  1.00  0.00    -0.253 C  
HETATM   26  C   UNL     1      -9.309   8.193  72.139  1.00  0.00    -0.270 C  
HETATM   27  C   UNL     1      -9.660   3.638  71.456  1.00  0.00    -0.234 A  
ENDBRANCH  10  11
ENDBRANCH   9  10
ENDBRANCH   8   9
ENDBRANCH   6   7
ENDBRANCH   3   6
ENDBRANCH   2   3
TORSDOF 7
ENDMDL
MODEL       76
REMARK 921   NORMALIZED FREE ENERGY PREDICTED BY IDOCK:   -4.55 KCAL/MOL
REMARK 922        TOTAL FREE ENERGY PREDICTED BY IDOCK:   -7.66 KCAL/MOL
REMARK 923 INTER-LIGAND FREE ENERGY PREDICTED BY IDOCK:   -7.01 KCAL/MOL
REMARK 924 INTRA-LIGAND FREE ENERGY PREDICTED BY IDOCK:   -0.65 KCAL/MOL
REMARK 927      BINDING AFFINITY PREDICTED BY RF-SCORE:    0.00 PKD
ROOT
HETATM    1  C   UNL     1     -10.818  13.723  68.686  1.00  0.00    -0.280 C  
HETATM    2  C   UNL     1     -12.046  13.420  67.832  1.00  0.00    -0.251 C  
ENDROOT
BRANCH   2   3
HETATM    3  N   UNL     1     -12.148  14.221  66.600  1.00  0.00    -0.436 NA 
BRANCH   3   4
HETATM    4  C   UNL     1     -11.063  15.202  66.434  1.00  0.00    -0.312 C  
HETATM    5  C   UNL     1     -10.710  15.596  65.004  1.00  0.00    -0.458 C  
ENDBRANCH   3   4
BRANCH   3   6
HETATM    6  C   UNL     1     -12.323  13.319  65.448  1.00  0.00    -0.479 C  
BRANCH   6   7
HETATM    7  C   UNL     1     -11.490  12.054  65.574  1.00  0.00    -0.368 C  
HETATM    8  C   UNL     1     -10.774  10.970  65.683  1.00  0.00    -0.217 C  
BRANCH   8   9
HETATM    9  C   UNL     1      -9.951   9.763  65.787  1.00  0.00    -0.279 C  
BRANCH   9  10
HETATM   10  O   UNL     1     -10.529   8.834  66.715  1.00  0.00    -0.275 OA 
BRANCH  10  11
HETATM   11  C   UNL     1      -9.831   8.679  67.882  1.00  0.00    -0.173 C  
HETATM   12  O   UNL     1      -9.027   9.493  68.323  1.00  0.00    -0.124 OA 
HETATM   13  C   UNL     1     -10.177   7.293  68.537  1.00  0.00    -0.181 C  
HETATM   14  C   UNL     1     -10.775   7.547  69.937  1.00  0.00    -0.254 A  
HETATM   15  C   UNL     1      -8.872   6.420  68.595  1.00  0.00    -0.120 C  
HETATM   16  O   UNL     1     -11.166   6.608  67.752  1.00  0.00    -0.530 OA 
HETATM   17  H   UNL     1     -11.375   5.771  68.147  1.00  0.00     0.000 HD 
HETATM   18  C   UNL     1     -12.061   7.091  70.284  1.00  0.00    -0.135 A  
HETATM   19  C   UNL     1      -9.053   5.034  69.255  1.00  0.00    -0.142 C  
HETATM   20  C   UNL     1     -12.612   7.355  71.541  1.00  0.00    -0.401 A  
HETATM   21  C   UNL     1      -9.731   3.990  68.369  1.00  0.00    -0.135 C  
HETATM   22  C   UNL     1      -9.055   3.855  67.009  1.00  0.00    -0.168 C  
HETATM   23  C   UNL     1     -11.891   8.083  72.481  1.00  0.00    -0.419 A  
HETATM   24  C   UNL     1     -10.612   8.538  72.169  1.00  0.00    -0.419 A  
HETATM   25  C   UNL     1      -8.841   5.193  66.313  1.00  0.00    -0.124 C  
HETATM   26  C   UNL     1      -8.175   6.220  67.227  1.00  0.00    -0.109 C  
HETATM   27  C   UNL     1     -10.059   8.266  70.914  1.00  0.00    -0.224 A  
ENDBRANCH  10  11
ENDBRANCH   9  10
ENDBRANCH   8   9
ENDBRANCH   6   7
ENDBRANCH   3   6
ENDBRANCH   2   3
TORSDOF 7
ENDMDL
MODEL       77
REMARK 921   NORMALIZED FREE ENERGY PREDICTED BY IDOCK:   -4.52 KCAL/MOL
REMARK 922        TOTAL FREE ENERGY PREDICTED BY IDOCK:   -7.61 KCAL/MOL
REMARK 923 INTER-LIGAND FREE ENERGY PREDICTED BY IDOCK:   -6.54 KCAL/MOL
REMARK 924 INTRA-LIGAND FREE ENERGY PREDICTED BY IDOCK:   -1.07 KCAL/MOL
REMARK 927      BINDING AFFINITY PREDICTED BY RF-SCORE:    0.00 PKD
ROOT
HETATM    1  C   UNL     1      -9.844  20.626  67.386  1.00  0.00    -0.527 C  
HETATM    2  C   UNL     1      -8.502  19.911  67.246  1.00  0.00    -0.324 C  
ENDROOT
BRANCH   2   3
HETATM    3  N   UNL     1      -8.601  18.489  66.872  1.00  0.00    -0.269 NA 
BRANCH   3   4
HETATM    4  C   UNL     1      -8.275  17.561  67.967  1.00  0.00    -0.239 C  
HETATM    5  C   UNL     1      -6.795  17.356  68.271  1.00  0.00    -0.190 C  
ENDBRANCH   3   4
BRANCH   3   6
HETATM    6  C   UNL     1      -9.913  18.243  66.247  1.00  0.00    -0.357 C  
BRANCH   6   7
HETATM    7  C   UNL     1     -10.060  16.809  65.764  1.00  0.00    -0.276 C  
HETATM    8  C   UNL     1     -10.186  15.579  65.350  1.00  0.00    -0.409 C  
BRANCH   8   9
HETATM    9  C   UNL     1     -10.300  14.192  64.895  1.00  0.00    -0.408 C  
BRANCH   9  10
HETATM   10  O   UNL     1      -9.714  13.296  65.850  1.00  0.00    -0.255 OA 
BRANCH  10  11
HETATM   11  C   UNL     1     -10.582  12.385  66.391  1.00  0.00    -0.244 C  
HETATM   12  O   UNL     1     -11.338  11.675  65.736  1.00  0.00    -0.284 OA 
HETATM   13  C   UNL     1     -10.497  12.424  67.959  1.00  0.00    -0.217 C  
HETATM   14  C   UNL     1     -10.075  11.028  68.462  1.00  0.00    -0.198 A  
HETATM   15  C   UNL     1     -11.892  12.869  68.531  1.00  0.00    -0.350 C  
HETATM   16  O   UNL     1      -9.497  13.366  68.376  1.00  0.00    -0.213 OA 
HETATM   17  H   UNL     1      -9.445  13.390  69.324  1.00  0.00     0.000 HD 
HETATM   18  C   UNL     1      -8.914  10.843  69.236  1.00  0.00     0.012 A  
HETATM   19  C   UNL     1     -11.970  12.914  70.075  1.00  0.00    -0.380 C  
HETATM   20  C   UNL     1      -8.516   9.571  69.658  1.00  0.00    -0.174 A  
HETATM   21  C   UNL     1     -11.302  14.133  70.709  1.00  0.00     0.145 C  
HETATM   22  C   UNL     1     -11.793  15.445  70.107  1.00  0.00    -0.362 C  
HETATM   23  C   UNL     1      -9.271   8.453  69.317  1.00  0.00    -0.154 A  
HETATM   24  C   UNL     1     -10.430   8.608  68.562  1.00  0.00    -0.209 A  
HETATM   25  C   UNL     1     -11.748  15.455  68.584  1.00  0.00    -0.371 C  
HETATM   26  C   UNL     1     -12.409  14.219  67.978  1.00  0.00    -0.007 C  
HETATM   27  C   UNL     1     -10.830   9.882  68.147  1.00  0.00    -0.282 A  
ENDBRANCH  10  11
ENDBRANCH   9  10
ENDBRANCH   8   9
ENDBRANCH   6   7
ENDBRANCH   3   6
ENDBRANCH   2   3
TORSDOF 7
ENDMDL
MODEL       78
REMARK 921   NORMALIZED FREE ENERGY PREDICTED BY IDOCK:   -4.51 KCAL/MOL
REMARK 922        TOTAL FREE ENERGY PREDICTED BY IDOCK:   -7.61 KCAL/MOL
REMARK 923 INTER-LIGAND FREE ENERGY PREDICTED BY IDOCK:   -6.12 KCAL/MOL
REMARK 924 INTRA-LIGAND FREE ENERGY PREDICTED BY IDOCK:   -1.48 KCAL/MOL
REMARK 927      BINDING AFFINITY PREDICTED BY RF-SCORE:    0.00 PKD
ROOT
HETATM    1  C   UNL     1     -10.751   2.916  63.049  1.00  0.00    -0.211 C  
HETATM    2  C   UNL     1      -9.755   3.987  63.490  1.00  0.00    -0.143 C  
ENDROOT
BRANCH   2   3
HETATM    3  N   UNL     1      -9.374   3.920  64.912  1.00  0.00    -0.147 NA 
BRANCH   3   4
HETATM    4  C   UNL     1      -7.968   4.271  65.170  1.00  0.00    -0.097 C  
HETATM    5  C   UNL     1      -7.570   5.722  64.928  1.00  0.00    -0.088 C  
ENDBRANCH   3   4
BRANCH   3   6
HETATM    6  C   UNL     1     -10.342   4.693  65.710  1.00  0.00    -0.264 C  
BRANCH   6   7
HETATM    7  C   UNL     1     -10.039   4.632  67.198  1.00  0.00    -0.187 C  
HETATM    8  C   UNL     1      -9.778   4.580  68.474  1.00  0.00    -0.198 C  
BRANCH   8   9
HETATM    9  C   UNL     1      -9.463   4.505  69.903  1.00  0.00    -0.175 C  
BRANCH   9  10
HETATM   10  O   UNL     1      -9.975   5.652  70.596  1.00  0.00    -0.181 OA 
BRANCH  10  11
HETATM   11  C   UNL     1      -9.263   6.805  70.402  1.00  0.00    -0.156 C  
HETATM   12  O   UNL     1      -8.077   6.942  70.682  1.00  0.00    -0.114 OA 
HETATM   13  C   UNL     1     -10.198   7.925  69.820  1.00  0.00    -0.212 C  
HETATM   14  C   UNL     1      -9.637   8.370  68.453  1.00  0.00    -0.157 A  
HETATM   15  C   UNL     1     -10.271   9.110  70.850  1.00  0.00    -0.351 C  
HETATM   16  O   UNL     1     -11.519   7.405  69.607  1.00  0.00    -0.476 OA 
HETATM   17  H   UNL     1     -12.084   8.082  69.255  1.00  0.00     0.000 HD 
HETATM   18  C   UNL     1     -10.405   8.282  67.276  1.00  0.00    -0.372 A  
HETATM   19  C   UNL     1     -11.130  10.311  70.390  1.00  0.00    -0.391 C  
HETATM   20  C   UNL     1      -9.880   8.653  66.035  1.00  0.00    -0.183 A  
HETATM   21  C   UNL     1     -12.638  10.094  70.506  1.00  0.00    -0.289 C  
HETATM   22  C   UNL     1     -13.055   9.636  71.899  1.00  0.00    -0.530 C  
HETATM   23  C   UNL     1      -8.573   9.120  65.940  1.00  0.00    -0.168 A  
HETATM   24  C   UNL     1      -7.794   9.227  67.089  1.00  0.00    -0.099 A  
HETATM   25  C   UNL     1     -12.233   8.459  72.410  1.00  0.00    -0.430 C  
HETATM   26  C   UNL     1     -10.732   8.697  72.268  1.00  0.00    -0.383 C  
HETATM   27  C   UNL     1      -8.323   8.864  68.331  1.00  0.00    -0.125 A  
ENDBRANCH  10  11
ENDBRANCH   9  10
ENDBRANCH   8   9
ENDBRANCH   6   7
ENDBRANCH   3   6
ENDBRANCH   2   3
TORSDOF 7
ENDMDL
MODEL       79
REMARK 921   NORMALIZED FREE ENERGY PREDICTED BY IDOCK:   -4.50 KCAL/MOL
REMARK 922        TOTAL FREE ENERGY PREDICTED BY IDOCK:   -7.59 KCAL/MOL
REMARK 923 INTER-LIGAND FREE ENERGY PREDICTED BY IDOCK:   -6.93 KCAL/MOL
REMARK 924 INTRA-LIGAND FREE ENERGY PREDICTED BY IDOCK:   -0.66 KCAL/MOL
REMARK 927      BINDING AFFINITY PREDICTED BY RF-SCORE:    0.00 PKD
ROOT
HETATM    1  C   UNL     1      -9.622   4.815  67.196  1.00  0.00    -0.185 C  
HETATM    2  C   UNL     1     -10.727   5.860  67.330  1.00  0.00    -0.297 C  
ENDROOT
BRANCH   2   3
HETATM    3  N   UNL     1     -10.586   6.755  68.492  1.00  0.00    -0.209 NA 
BRANCH   3   4
HETATM    4  C   UNL     1     -11.420   6.374  69.644  1.00  0.00    -0.378 C  
HETATM    5  C   UNL     1     -10.723   5.630  70.777  1.00  0.00    -0.320 C  
ENDBRANCH   3   4
BRANCH   3   6
HETATM    6  C   UNL     1      -9.156   6.911  68.813  1.00  0.00    -0.133 C  
BRANCH   6   7
HETATM    7  C   UNL     1      -8.735   8.370  68.872  1.00  0.00    -0.136 C  
HETATM    8  C   UNL     1      -8.374   9.621  68.923  1.00  0.00    -0.116 C  
BRANCH   8   9
HETATM    9  C   UNL     1      -7.995  11.035  68.991  1.00  0.00    -0.114 C  
BRANCH   9  10
HETATM   10  O   UNL     1      -9.042  11.865  68.468  1.00  0.00    -0.184 OA 
BRANCH  10  11
HETATM   11  C   UNL     1      -8.841  12.304  67.187  1.00  0.00    -0.194 C  
HETATM   12  O   UNL     1      -7.968  11.878  66.437  1.00  0.00    -0.031 OA 
HETATM   13  C   UNL     1      -9.854  13.455  66.846  1.00  0.00    -0.256 C  
HETATM   14  C   UNL     1     -10.711  13.013  65.641  1.00  0.00    -0.293 A  
HETATM   15  C   UNL     1      -9.046  14.771  66.553  1.00  0.00    -0.291 C  
HETATM   16  O   UNL     1     -10.735  13.682  67.956  1.00  0.00    -0.238 OA 
HETATM   17  H   UNL     1     -11.348  14.378  67.750  1.00  0.00     0.000 HD 
HETATM   18  C   UNL     1     -12.115  12.936  65.723  1.00  0.00    -0.513 A  
HETATM   19  C   UNL     1      -9.916  15.987  66.161  1.00  0.00    -0.347 C  
HETATM   20  C   UNL     1     -12.884  12.500  64.641  1.00  0.00    -0.325 A  
HETATM   21  C   UNL     1     -10.627  16.664  67.333  1.00  0.00    -0.295 C  
HETATM   22  C   UNL     1      -9.669  17.028  68.462  1.00  0.00    -0.282 C  
HETATM   23  C   UNL     1     -12.268  12.131  63.449  1.00  0.00    -0.635 A  
HETATM   24  C   UNL     1     -10.882  12.208  63.336  1.00  0.00    -0.474 A  
HETATM   25  C   UNL     1      -8.777  15.868  68.884  1.00  0.00    -0.225 C  
HETATM   26  C   UNL     1      -8.092  15.202  67.693  1.00  0.00    -0.177 C  
HETATM   27  C   UNL     1     -10.115  12.651  64.418  1.00  0.00    -0.281 A  
ENDBRANCH  10  11
ENDBRANCH   9  10
ENDBRANCH   8   9
ENDBRANCH   6   7
ENDBRANCH   3   6
ENDBRANCH   2   3
TORSDOF 7
ENDMDL
MODEL       80
REMARK 921   NORMALIZED FREE ENERGY PREDICTED BY IDOCK:   -4.48 KCAL/MOL
REMARK 922        TOTAL FREE ENERGY PREDICTED BY IDOCK:   -7.56 KCAL/MOL
REMARK 923 INTER-LIGAND FREE ENERGY PREDICTED BY IDOCK:   -6.82 KCAL/MOL
REMARK 924 INTRA-LIGAND FREE ENERGY PREDICTED BY IDOCK:   -0.74 KCAL/MOL
REMARK 927      BINDING AFFINITY PREDICTED BY RF-SCORE:    0.00 PKD
ROOT
HETATM    1  C   UNL     1     -11.427  12.365  63.565  1.00  0.00    -0.561 C  
HETATM    2  C   UNL     1     -11.734  13.742  64.150  1.00  0.00    -0.364 C  
ENDROOT
BRANCH   2   3
HETATM    3  N   UNL     1     -10.866  14.138  65.273  1.00  0.00    -0.329 NA 
BRANCH   3   4
HETATM    4  C   UNL     1     -10.680  15.593  65.400  1.00  0.00    -0.408 C  
HETATM    5  C   UNL     1      -9.306  16.069  65.859  1.00  0.00    -0.335 C  
ENDBRANCH   3   4
BRANCH   3   6
HETATM    6  C   UNL     1     -11.339  13.483  66.505  1.00  0.00    -0.319 C  
BRANCH   6   7
HETATM    7  C   UNL     1     -10.244  12.677  67.186  1.00  0.00    -0.230 C  
HETATM    8  C   UNL     1      -9.305  11.987  67.770  1.00  0.00    -0.190 C  
BRANCH   8   9
HETATM    9  C   UNL     1      -8.230  11.222  68.406  1.00  0.00    -0.149 C  
BRANCH   9  10
HETATM   10  O   UNL     1      -8.744  10.432  69.488  1.00  0.00    -0.157 OA 
BRANCH  10  11
HETATM   11  C   UNL     1      -9.633   9.459  69.115  1.00  0.00    -0.163 C  
HETATM   12  O   UNL     1      -9.734   9.010  67.978  1.00  0.00    -0.148 OA 
HETATM   13  C   UNL     1     -10.524   9.044  70.341  1.00  0.00    -0.213 C  
HETATM   14  C   UNL     1     -10.315   7.539  70.613  1.00  0.00    -0.211 A  
HETATM   15  C   UNL     1     -12.022   9.390  70.019  1.00  0.00     0.202 C  
HETATM   16  O   UNL     1     -10.117   9.766  71.514  1.00  0.00    -0.097 OA 
HETATM   17  H   UNL     1     -10.655   9.515  72.255  1.00  0.00     0.000 HD 
HETATM   18  C   UNL     1      -9.850   7.072  71.857  1.00  0.00    -0.173 A  
HETATM   19  C   UNL     1     -13.027   8.998  71.127  1.00  0.00    -0.194 C  
HETATM   20  C   UNL     1      -9.628   5.712  72.087  1.00  0.00    -0.170 A  
HETATM   21  C   UNL     1     -13.050   9.944  72.327  1.00  0.00    -0.419 C  
HETATM   22  C   UNL     1     -13.241  11.400  71.917  1.00  0.00    -0.485 C  
HETATM   23  C   UNL     1      -9.864   4.785  71.077  1.00  0.00    -0.267 A  
HETATM   24  C   UNL     1     -10.334   5.218  69.840  1.00  0.00    -0.374 A  
HETATM   25  C   UNL     1     -12.282  11.840  70.818  1.00  0.00    -0.424 C  
HETATM   26  C   UNL     1     -12.270  10.870  69.639  1.00  0.00    -0.354 C  
HETATM   27  C   UNL     1     -10.564   6.578  69.615  1.00  0.00    -0.291 A  
ENDBRANCH  10  11
ENDBRANCH   9  10
ENDBRANCH   8   9
ENDBRANCH   6   7
ENDBRANCH   3   6
ENDBRANCH   2   3
TORSDOF 7
ENDMDL
MODEL       81
REMARK 921   NORMALIZED FREE ENERGY PREDICTED BY IDOCK:   -4.48 KCAL/MOL
REMARK 922        TOTAL FREE ENERGY PREDICTED BY IDOCK:   -7.56 KCAL/MOL
REMARK 923 INTER-LIGAND FREE ENERGY PREDICTED BY IDOCK:   -6.07 KCAL/MOL
REMARK 924 INTRA-LIGAND FREE ENERGY PREDICTED BY IDOCK:   -1.49 KCAL/MOL
REMARK 927      BINDING AFFINITY PREDICTED BY RF-SCORE:    0.00 PKD
ROOT
HETATM    1  C   UNL     1     -10.339  11.765  63.421  1.00  0.00    -0.481 C  
HETATM    2  C   UNL     1     -10.496  11.989  64.924  1.00  0.00    -0.285 C  
ENDROOT
BRANCH   2   3
HETATM    3  N   UNL     1     -10.203  13.362  65.371  1.00  0.00    -0.307 NA 
BRANCH   3   4
HETATM    4  C   UNL     1     -11.287  14.321  65.106  1.00  0.00    -0.345 C  
HETATM    5  C   UNL     1     -12.688  13.907  65.542  1.00  0.00    -0.536 C  
ENDBRANCH   3   4
BRANCH   3   6
HETATM    6  C   UNL     1      -9.761  13.330  66.777  1.00  0.00    -0.258 C  
BRANCH   6   7
HETATM    7  C   UNL     1      -8.629  12.342  67.003  1.00  0.00    -0.191 C  
HETATM    8  C   UNL     1      -7.657  11.495  67.196  1.00  0.00    -0.149 C  
BRANCH   8   9
HETATM    9  C   UNL     1      -6.549  10.557  67.394  1.00  0.00    -0.067 C  
BRANCH   9  10
HETATM   10  O   UNL     1      -7.031   9.206  67.431  1.00  0.00    -0.076 OA 
BRANCH  10  11
HETATM   11  C   UNL     1      -7.756   8.885  68.546  1.00  0.00    -0.098 C  
HETATM   12  O   UNL     1      -7.321   8.925  69.692  1.00  0.00    -0.054 OA 
HETATM   13  C   UNL     1      -9.199   8.416  68.135  1.00  0.00    -0.137 C  
HETATM   14  C   UNL     1     -10.227   9.360  68.793  1.00  0.00    -0.221 A  
HETATM   15  C   UNL     1      -9.391   6.921  68.579  1.00  0.00    -0.134 C  
HETATM   16  O   UNL     1      -9.361   8.508  66.711  1.00  0.00    -0.158 OA 
HETATM   17  H   UNL     1     -10.232   8.225  66.463  1.00  0.00     0.000 HD 
HETATM   18  C   UNL     1     -11.151  10.094  68.025  1.00  0.00    -0.302 A  
HETATM   19  C   UNL     1     -10.788   6.333  68.272  1.00  0.00    -0.397 C  
HETATM   20  C   UNL     1     -12.057  10.974  68.622  1.00  0.00    -0.129 A  
HETATM   21  C   UNL     1     -11.008   5.945  66.811  1.00  0.00    -0.280 C  
HETATM   22  C   UNL     1      -9.910   5.029  66.281  1.00  0.00    -0.217 C  
HETATM   23  C   UNL     1     -12.060  11.144  70.003  1.00  0.00    -0.437 A  
HETATM   24  C   UNL     1     -11.164  10.423  70.788  1.00  0.00    -0.293 A  
HETATM   25  C   UNL     1      -8.508   5.554  66.563  1.00  0.00    -0.113 C  
HETATM   26  C   UNL     1      -8.322   5.947  68.027  1.00  0.00    -0.111 C  
HETATM   27  C   UNL     1     -10.264   9.536  70.189  1.00  0.00    -0.291 A  
ENDBRANCH  10  11
ENDBRANCH   9  10
ENDBRANCH   8   9
ENDBRANCH   6   7
ENDBRANCH   3   6
ENDBRANCH   2   3
TORSDOF 7
ENDMDL
MODEL       82
REMARK 921   NORMALIZED FREE ENERGY PREDICTED BY IDOCK:   -4.46 KCAL/MOL
REMARK 922        TOTAL FREE ENERGY PREDICTED BY IDOCK:   -7.53 KCAL/MOL
REMARK 923 INTER-LIGAND FREE ENERGY PREDICTED BY IDOCK:   -6.31 KCAL/MOL
REMARK 924 INTRA-LIGAND FREE ENERGY PREDICTED BY IDOCK:   -1.22 KCAL/MOL
REMARK 927      BINDING AFFINITY PREDICTED BY RF-SCORE:    0.00 PKD
ROOT
HETATM    1  C   UNL     1     -11.659   5.605  72.560  1.00  0.00    -0.303 C  
HETATM    2  C   UNL     1     -12.241   6.622  71.580  1.00  0.00    -0.352 C  
ENDROOT
BRANCH   2   3
HETATM    3  N   UNL     1     -11.866   8.020  71.854  1.00  0.00    -0.290 NA 
BRANCH   3   4
HETATM    4  C   UNL     1     -12.983   8.856  72.326  1.00  0.00    -0.419 C  
HETATM    5  C   UNL     1     -13.032  10.288  71.805  1.00  0.00    -0.574 C  
ENDBRANCH   3   4
BRANCH   3   6
HETATM    6  C   UNL     1     -10.686   8.042  72.736  1.00  0.00    -0.362 C  
BRANCH   6   7
HETATM    7  C   UNL     1      -9.427   8.476  72.004  1.00  0.00    -0.364 C  
HETATM    8  C   UNL     1      -8.347   8.848  71.376  1.00  0.00    -0.195 C  
BRANCH   8   9
HETATM    9  C   UNL     1      -7.127   9.284  70.694  1.00  0.00    -0.111 C  
BRANCH   9  10
HETATM   10  O   UNL     1      -7.431  10.262  69.689  1.00  0.00    -0.127 OA 
BRANCH  10  11
HETATM   11  C   UNL     1      -7.546   9.764  68.419  1.00  0.00    -0.080 C  
HETATM   12  O   UNL     1      -6.609   9.335  67.755  1.00  0.00    -0.062 OA 
HETATM   13  C   UNL     1      -9.036   9.870  67.931  1.00  0.00    -0.131 C  
HETATM   14  C   UNL     1      -9.548   8.451  67.607  1.00  0.00    -0.188 A  
HETATM   15  C   UNL     1      -9.094  10.825  66.684  1.00  0.00    -0.174 C  
HETATM   16  O   UNL     1      -9.861  10.410  68.975  1.00  0.00    -0.192 OA 
HETATM   17  H   UNL     1     -10.761  10.474  68.681  1.00  0.00     0.000 HD 
HETATM   18  C   UNL     1     -10.674   7.908  68.254  1.00  0.00    -0.088 A  
HETATM   19  C   UNL     1     -10.502  10.994  66.068  1.00  0.00    -0.304 C  
HETATM   20  C   UNL     1     -11.112   6.609  67.983  1.00  0.00    -0.296 A  
HETATM   21  C   UNL     1     -11.429  11.927  66.846  1.00  0.00    -0.390 C  
HETATM   22  C   UNL     1     -10.793  13.286  67.117  1.00  0.00    -0.268 C  
HETATM   23  C   UNL     1     -10.434   5.820  67.059  1.00  0.00    -0.342 A  
HETATM   24  C   UNL     1      -9.323   6.336  66.397  1.00  0.00    -0.176 A  
HETATM   25  C   UNL     1      -9.397  13.181  67.717  1.00  0.00    -0.206 C  
HETATM   26  C   UNL     1      -8.498  12.233  66.928  1.00  0.00    -0.159 C  
HETATM   27  C   UNL     1      -8.891   7.639  66.663  1.00  0.00    -0.159 A  
ENDBRANCH  10  11
ENDBRANCH   9  10
ENDBRANCH   8   9
ENDBRANCH   6   7
ENDBRANCH   3   6
ENDBRANCH   2   3
TORSDOF 7
ENDMDL
MODEL       83
REMARK 921   NORMALIZED FREE ENERGY PREDICTED BY IDOCK:   -4.46 KCAL/MOL
REMARK 922        TOTAL FREE ENERGY PREDICTED BY IDOCK:   -7.52 KCAL/MOL
REMARK 923 INTER-LIGAND FREE ENERGY PREDICTED BY IDOCK:   -6.29 KCAL/MOL
REMARK 924 INTRA-LIGAND FREE ENERGY PREDICTED BY IDOCK:   -1.23 KCAL/MOL
REMARK 927      BINDING AFFINITY PREDICTED BY RF-SCORE:    0.00 PKD
ROOT
HETATM    1  C   UNL     1      -5.703  20.494  71.582  1.00  0.00    -0.218 C  
HETATM    2  C   UNL     1      -5.417  20.524  70.082  1.00  0.00    -0.326 C  
ENDROOT
BRANCH   2   3
HETATM    3  N   UNL     1      -5.659  19.247  69.387  1.00  0.00    -0.212 NA 
BRANCH   3   4
HETATM    4  C   UNL     1      -5.196  19.231  67.990  1.00  0.00    -0.175 C  
HETATM    5  C   UNL     1      -5.646  20.389  67.107  1.00  0.00    -0.196 C  
ENDBRANCH   3   4
BRANCH   3   6
HETATM    6  C   UNL     1      -5.132  18.142  70.207  1.00  0.00    -0.233 C  
BRANCH   6   7
HETATM    7  C   UNL     1      -5.909  16.852  70.002  1.00  0.00    -0.213 C  
HETATM    8  C   UNL     1      -6.575  15.745  69.825  1.00  0.00    -0.154 C  
BRANCH   8   9
HETATM    9  C   UNL     1      -7.345  14.517  69.612  1.00  0.00    -0.011 C  
BRANCH   9  10
HETATM   10  O   UNL     1      -8.618  14.815  69.021  1.00  0.00    -0.177 OA 
BRANCH  10  11
HETATM   11  C   UNL     1      -8.636  14.787  67.652  1.00  0.00    -0.174 C  
HETATM   12  O   UNL     1      -7.807  14.206  66.959  1.00  0.00    -0.102 OA 
HETATM   13  C   UNL     1      -9.837  15.644  67.111  1.00  0.00    -0.229 C  
HETATM   14  C   UNL     1     -10.759  14.726  66.281  1.00  0.00    -0.313 A  
HETATM   15  C   UNL     1      -9.267  16.839  66.266  1.00  0.00    -0.313 C  
HETATM   16  O   UNL     1     -10.604  16.167  68.207  1.00  0.00    -0.263 OA 
HETATM   17  H   UNL     1     -11.330  16.685  67.880  1.00  0.00     0.000 HD 
HETATM   18  C   UNL     1     -12.117  14.553  66.610  1.00  0.00    -0.319 A  
HETATM   19  C   UNL     1     -10.343  17.752  65.633  1.00  0.00    -0.098 C  
HETATM   20  C   UNL     1     -12.939  13.693  65.877  1.00  0.00    -0.173 A  
HETATM   21  C   UNL     1     -10.998  18.731  66.605  1.00  0.00    -0.038 C  
HETATM   22  C   UNL     1      -9.975  19.559  67.375  1.00  0.00    -0.498 C  
HETATM   23  C   UNL     1     -12.423  12.983  64.797  1.00  0.00    -0.485 A  
HETATM   24  C   UNL     1     -11.086  13.144  64.443  1.00  0.00    -0.407 A  
HETATM   25  C   UNL     1      -8.882  18.712  68.014  1.00  0.00    -0.329 C  
HETATM   26  C   UNL     1      -8.255  17.734  67.023  1.00  0.00    -0.239 C  
HETATM   27  C   UNL     1     -10.267  14.011  65.172  1.00  0.00    -0.396 A  
ENDBRANCH  10  11
ENDBRANCH   9  10
ENDBRANCH   8   9
ENDBRANCH   6   7
ENDBRANCH   3   6
ENDBRANCH   2   3
TORSDOF 7
ENDMDL
MODEL       84
REMARK 921   NORMALIZED FREE ENERGY PREDICTED BY IDOCK:   -4.44 KCAL/MOL
REMARK 922        TOTAL FREE ENERGY PREDICTED BY IDOCK:   -7.51 KCAL/MOL
REMARK 923 INTER-LIGAND FREE ENERGY PREDICTED BY IDOCK:   -6.36 KCAL/MOL
REMARK 924 INTRA-LIGAND FREE ENERGY PREDICTED BY IDOCK:   -1.15 KCAL/MOL
REMARK 927      BINDING AFFINITY PREDICTED BY RF-SCORE:    0.00 PKD
ROOT
HETATM    1  C   UNL     1      -9.008   5.286  73.996  1.00  0.00    -0.119 C  
HETATM    2  C   UNL     1      -9.676   4.738  72.737  1.00  0.00    -0.138 C  
ENDROOT
BRANCH   2   3
HETATM    3  N   UNL     1      -9.402   5.510  71.513  1.00  0.00    -0.146 NA 
BRANCH   3   4
HETATM    4  C   UNL     1      -8.427   4.874  70.611  1.00  0.00    -0.105 C  
HETATM    5  C   UNL     1      -7.295   5.756  70.096  1.00  0.00    -0.073 C  
ENDBRANCH   3   4
BRANCH   3   6
HETATM    6  C   UNL     1     -10.678   5.862  70.865  1.00  0.00    -0.273 C  
BRANCH   6   7
HETATM    7  C   UNL     1     -10.951   7.356  70.905  1.00  0.00    -0.271 C  
HETATM    8  C   UNL     1     -11.185   8.639  70.939  1.00  0.00    -0.311 C  
BRANCH   8   9
HETATM    9  C   UNL     1     -11.419  10.084  70.976  1.00  0.00    -0.383 C  
BRANCH   9  10
HETATM   10  O   UNL     1     -10.685  10.742  69.933  1.00  0.00    -0.236 OA 
BRANCH  10  11
HETATM   11  C   UNL     1     -11.372  10.901  68.760  1.00  0.00    -0.292 C  
HETATM   12  O   UNL     1     -12.595  10.907  68.668  1.00  0.00    -0.255 OA 
HETATM   13  C   UNL     1     -10.367  11.023  67.559  1.00  0.00    -0.198 C  
HETATM   14  C   UNL     1     -10.589  12.386  66.870  1.00  0.00    -0.251 A  
HETATM   15  C   UNL     1     -10.597   9.815  66.580  1.00  0.00    -0.178 C  
HETATM   16  O   UNL     1      -9.015  10.986  68.040  1.00  0.00    -0.136 OA 
HETATM   17  H   UNL     1      -8.407  11.060  67.314  1.00  0.00     0.000 HD 
HETATM   18  C   UNL     1      -9.551  13.329  66.748  1.00  0.00    -0.258 A  
HETATM   19  C   UNL     1      -9.698   9.825  65.322  1.00  0.00    -0.371 C  
HETATM   20  C   UNL     1      -9.767  14.576  66.156  1.00  0.00    -0.340 A  
HETATM   21  C   UNL     1      -8.258   9.374  65.566  1.00  0.00    -0.127 C  
HETATM   22  C   UNL     1      -8.182   8.025  66.272  1.00  0.00    -0.116 C  
HETATM   23  C   UNL     1     -11.027  14.911  65.671  1.00  0.00    -0.347 A  
HETATM   24  C   UNL     1     -12.069  13.993  65.768  1.00  0.00    -0.445 A  
HETATM   25  C   UNL     1      -9.058   7.953  67.516  1.00  0.00    -0.141 C  
HETATM   26  C   UNL     1     -10.486   8.422  67.247  1.00  0.00    -0.373 C  
HETATM   27  C   UNL     1     -11.850  12.743  66.353  1.00  0.00    -0.472 A  
ENDBRANCH  10  11
ENDBRANCH   9  10
ENDBRANCH   8   9
ENDBRANCH   6   7
ENDBRANCH   3   6
ENDBRANCH   2   3
TORSDOF 7
ENDMDL
MODEL       85
REMARK 921   NORMALIZED FREE ENERGY PREDICTED BY IDOCK:   -4.43 KCAL/MOL
REMARK 922        TOTAL FREE ENERGY PREDICTED BY IDOCK:   -7.49 KCAL/MOL
REMARK 923 INTER-LIGAND FREE ENERGY PREDICTED BY IDOCK:   -6.98 KCAL/MOL
REMARK 924 INTRA-LIGAND FREE ENERGY PREDICTED BY IDOCK:   -0.51 KCAL/MOL
REMARK 927      BINDING AFFINITY PREDICTED BY RF-SCORE:    0.00 PKD
ROOT
HETATM    1  C   UNL     1     -11.888  13.088  63.630  1.00  0.00    -0.580 C  
HETATM    2  C   UNL     1     -12.230  14.015  64.793  1.00  0.00    -0.433 C  
ENDROOT
BRANCH   2   3
HETATM    3  N   UNL     1     -11.318  13.914  65.946  1.00  0.00    -0.309 NA 
BRANCH   3   4
HETATM    4  C   UNL     1     -10.889  15.215  66.484  1.00  0.00    -0.317 C  
HETATM    5  C   UNL     1     -10.238  16.181  65.501  1.00  0.00    -0.360 C  
ENDBRANCH   3   4
BRANCH   3   6
HETATM    6  C   UNL     1     -11.906  13.012  66.952  1.00  0.00    -0.380 C  
BRANCH   6   7
HETATM    7  C   UNL     1     -11.291  11.623  66.910  1.00  0.00    -0.364 C  
HETATM    8  C   UNL     1     -10.762  10.432  66.874  1.00  0.00    -0.272 C  
BRANCH   8   9
HETATM    9  C   UNL     1     -10.158   9.099  66.807  1.00  0.00    -0.271 C  
BRANCH   9  10
HETATM   10  O   UNL     1     -10.052   8.525  68.118  1.00  0.00    -0.185 OA 
BRANCH  10  11
HETATM   11  C   UNL     1     -10.475   7.227  68.212  1.00  0.00    -0.199 C  
HETATM   12  O   UNL     1     -11.239   6.687  67.419  1.00  0.00    -0.344 OA 
HETATM   13  C   UNL     1      -9.877   6.557  69.502  1.00  0.00    -0.151 C  
HETATM   14  C   UNL     1      -9.026   5.342  69.075  1.00  0.00    -0.121 A  
HETATM   15  C   UNL     1     -11.059   6.153  70.456  1.00  0.00    -0.405 C  
HETATM   16  O   UNL     1      -9.017   7.481  70.185  1.00  0.00    -0.146 OA 
HETATM   17  H   UNL     1      -8.656   7.077  70.965  1.00  0.00     0.000 HD 
HETATM   18  C   UNL     1      -7.661   5.246  69.405  1.00  0.00    -0.069 A  
HETATM   19  C   UNL     1     -10.621   5.442  71.757  1.00  0.00    -0.286 C  
HETATM   20  C   UNL     1      -6.886   4.162  68.985  1.00  0.00    -0.046 A  
HETATM   21  C   UNL     1     -10.052   6.371  72.829  1.00  0.00    -0.195 C  
HETATM   22  C   UNL     1     -10.982   7.538  73.140  1.00  0.00    -0.420 C  
HETATM   23  C   UNL     1      -7.457   3.147  68.224  1.00  0.00    -0.053 A  
HETATM   24  C   UNL     1      -8.808   3.211  67.892  1.00  0.00    -0.163 A  
HETATM   25  C   UNL     1     -11.454   8.272  71.891  1.00  0.00    -0.372 C  
HETATM   26  C   UNL     1     -12.004   7.319  70.833  1.00  0.00    -0.342 C  
HETATM   27  C   UNL     1      -9.584   4.293  68.320  1.00  0.00    -0.197 A  
ENDBRANCH  10  11
ENDBRANCH   9  10
ENDBRANCH   8   9
ENDBRANCH   6   7
ENDBRANCH   3   6
ENDBRANCH   2   3
TORSDOF 7
ENDMDL
MODEL       86
REMARK 921   NORMALIZED FREE ENERGY PREDICTED BY IDOCK:   -4.43 KCAL/MOL
REMARK 922        TOTAL FREE ENERGY PREDICTED BY IDOCK:   -7.48 KCAL/MOL
REMARK 923 INTER-LIGAND FREE ENERGY PREDICTED BY IDOCK:   -6.49 KCAL/MOL
REMARK 924 INTRA-LIGAND FREE ENERGY PREDICTED BY IDOCK:   -0.99 KCAL/MOL
REMARK 927      BINDING AFFINITY PREDICTED BY RF-SCORE:    0.00 PKD
ROOT
HETATM    1  C   UNL     1     -12.881  16.222  73.589  1.00  0.00    -0.583 C  
HETATM    2  C   UNL     1     -12.957  14.742  73.223  1.00  0.00    -0.493 C  
ENDROOT
BRANCH   2   3
HETATM    3  N   UNL     1     -12.343  14.399  71.929  1.00  0.00    -0.317 NA 
BRANCH   3   4
HETATM    4  C   UNL     1     -13.033  13.316  71.209  1.00  0.00    -0.270 C  
HETATM    5  C   UNL     1     -12.156  12.205  70.642  1.00  0.00    -0.344 C  
ENDBRANCH   3   4
BRANCH   3   6
HETATM    6  C   UNL     1     -12.165  15.628  71.136  1.00  0.00    -0.413 C  
BRANCH   6   7
HETATM    7  C   UNL     1     -10.837  15.649  70.397  1.00  0.00    -0.358 C  
HETATM    8  C   UNL     1      -9.697  15.668  69.764  1.00  0.00    -0.231 C  
BRANCH   8   9
HETATM    9  C   UNL     1      -8.410  15.714  69.066  1.00  0.00    -0.235 C  
BRANCH   9  10
HETATM   10  O   UNL     1      -7.718  14.464  69.197  1.00  0.00    -0.121 OA 
BRANCH  10  11
HETATM   11  C   UNL     1      -7.341  13.890  68.012  1.00  0.00    -0.141 C  
HETATM   12  O   UNL     1      -6.455  14.324  67.283  1.00  0.00    -0.291 OA 
HETATM   13  C   UNL     1      -8.237  12.635  67.711  1.00  0.00    -0.171 C  
HETATM   14  C   UNL     1      -7.325  11.395  67.608  1.00  0.00    -0.102 A  
HETATM   15  C   UNL     1      -9.044  12.895  66.387  1.00  0.00    -0.083 C  
HETATM   16  O   UNL     1      -9.160  12.418  68.789  1.00  0.00    -0.386 OA 
HETATM   17  H   UNL     1      -9.702  11.659  68.607  1.00  0.00     0.000 HD 
HETATM   18  C   UNL     1      -7.501  10.279  68.449  1.00  0.00    -0.090 A  
HETATM   19  C   UNL     1      -9.945  11.720  65.942  1.00  0.00    -0.266 C  
HETATM   20  C   UNL     1      -6.649   9.173  68.377  1.00  0.00    -0.059 A  
HETATM   21  C   UNL     1     -11.248  11.585  66.729  1.00  0.00    -0.350 C  
HETATM   22  C   UNL     1     -12.040  12.887  66.770  1.00  0.00    -0.335 C  
HETATM   23  C   UNL     1      -5.601   9.156  67.463  1.00  0.00    -0.042 A  
HETATM   24  C   UNL     1      -5.410  10.242  66.612  1.00  0.00    -0.042 A  
HETATM   25  C   UNL     1     -11.199  14.084  67.193  1.00  0.00    -0.327 C  
HETATM   26  C   UNL     1      -9.898  14.186  66.401  1.00  0.00    -0.308 C  
HETATM   27  C   UNL     1      -6.268  11.344  66.680  1.00  0.00    -0.137 A  
ENDBRANCH  10  11
ENDBRANCH   9  10
ENDBRANCH   8   9
ENDBRANCH   6   7
ENDBRANCH   3   6
ENDBRANCH   2   3
TORSDOF 7
ENDMDL
MODEL       87
REMARK 921   NORMALIZED FREE ENERGY PREDICTED BY IDOCK:   -4.41 KCAL/MOL
REMARK 922        TOTAL FREE ENERGY PREDICTED BY IDOCK:   -7.46 KCAL/MOL
REMARK 923 INTER-LIGAND FREE ENERGY PREDICTED BY IDOCK:   -6.39 KCAL/MOL
REMARK 924 INTRA-LIGAND FREE ENERGY PREDICTED BY IDOCK:   -1.08 KCAL/MOL
REMARK 927      BINDING AFFINITY PREDICTED BY RF-SCORE:    0.00 PKD
ROOT
HETATM    1  C   UNL     1     -11.277  15.999  64.685  1.00  0.00    -0.340 C  
HETATM    2  C   UNL     1     -11.016  14.507  64.884  1.00  0.00    -0.410 C  
ENDROOT
BRANCH   2   3
HETATM    3  N   UNL     1     -12.153  13.755  65.441  1.00  0.00    -0.382 NA 
BRANCH   3   4
HETATM    4  C   UNL     1     -12.555  12.593  64.630  1.00  0.00    -0.440 C  
HETATM    5  C   UNL     1     -11.602  12.175  63.516  1.00  0.00    -0.562 C  
ENDBRANCH   3   4
BRANCH   3   6
HETATM    6  C   UNL     1     -11.880  13.436  66.853  1.00  0.00    -0.403 C  
BRANCH   6   7
HETATM    7  C   UNL     1     -10.504  12.820  67.048  1.00  0.00    -0.245 C  
HETATM    8  C   UNL     1      -9.324  12.291  67.215  1.00  0.00    -0.185 C  
BRANCH   8   9
HETATM    9  C   UNL     1      -8.011  11.671  67.402  1.00  0.00    -0.147 C  
BRANCH   9  10
HETATM   10  O   UNL     1      -7.989  10.886  68.603  1.00  0.00    -0.123 OA 
BRANCH  10  11
HETATM   11  C   UNL     1      -8.433   9.599  68.457  1.00  0.00    -0.118 C  
HETATM   12  O   UNL     1      -8.366   8.957  67.414  1.00  0.00    -0.108 OA 
HETATM   13  C   UNL     1      -9.078   9.095  69.798  1.00  0.00    -0.167 C  
HETATM   14  C   UNL     1      -8.297   7.855  70.282  1.00  0.00    -0.126 A  
HETATM   15  C   UNL     1     -10.597   8.782  69.543  1.00  0.00    -0.224 C  
HETATM   16  O   UNL     1      -8.970  10.108  70.809  1.00  0.00    -0.220 OA 
HETATM   17  H   UNL     1      -9.360   9.803  71.620  1.00  0.00     0.000 HD 
HETATM   18  C   UNL     1      -7.672   7.823  71.543  1.00  0.00    -0.087 A  
HETATM   19  C   UNL     1     -11.356   8.235  70.774  1.00  0.00    -0.285 C  
HETATM   20  C   UNL     1      -6.936   6.712  71.962  1.00  0.00    -0.072 A  
HETATM   21  C   UNL     1     -11.731   9.292  71.811  1.00  0.00    -0.456 C  
HETATM   22  C   UNL     1     -12.479  10.470  71.197  1.00  0.00    -0.517 C  
HETATM   23  C   UNL     1      -6.805   5.605  71.129  1.00  0.00    -0.061 A  
HETATM   24  C   UNL     1      -7.421   5.605  69.880  1.00  0.00    -0.071 A  
HETATM   25  C   UNL     1     -11.780  11.046  69.972  1.00  0.00    -0.437 C  
HETATM   26  C   UNL     1     -11.405   9.966  68.959  1.00  0.00    -0.073 C  
HETATM   27  C   UNL     1      -8.164   6.714  69.466  1.00  0.00    -0.130 A  
ENDBRANCH  10  11
ENDBRANCH   9  10
ENDBRANCH   8   9
ENDBRANCH   6   7
ENDBRANCH   3   6
ENDBRANCH   2   3
TORSDOF 7
ENDMDL
MODEL       88
REMARK 921   NORMALIZED FREE ENERGY PREDICTED BY IDOCK:   -4.40 KCAL/MOL
REMARK 922        TOTAL FREE ENERGY PREDICTED BY IDOCK:   -7.44 KCAL/MOL
REMARK 923 INTER-LIGAND FREE ENERGY PREDICTED BY IDOCK:   -6.30 KCAL/MOL
REMARK 924 INTRA-LIGAND FREE ENERGY PREDICTED BY IDOCK:   -1.14 KCAL/MOL
REMARK 927      BINDING AFFINITY PREDICTED BY RF-SCORE:    0.00 PKD
ROOT
HETATM    1  C   UNL     1     -12.895  15.628  71.159  1.00  0.00    -0.540 C  
HETATM    2  C   UNL     1     -11.510  15.531  70.523  1.00  0.00    -0.347 C  
ENDROOT
BRANCH   2   3
HETATM    3  N   UNL     1     -11.424  16.082  69.159  1.00  0.00    -0.352 NA 
BRANCH   3   4
HETATM    4  C   UNL     1     -10.179  16.821  68.891  1.00  0.00    -0.304 C  
HETATM    5  C   UNL     1     -10.289  18.038  67.979  1.00  0.00    -0.397 C  
ENDBRANCH   3   4
BRANCH   3   6
HETATM    6  C   UNL     1     -11.709  15.013  68.185  1.00  0.00    -0.312 C  
BRANCH   6   7
HETATM    7  C   UNL     1     -10.505  14.117  67.945  1.00  0.00    -0.237 C  
HETATM    8  C   UNL     1      -9.473  13.347  67.740  1.00  0.00    -0.210 C  
BRANCH   8   9
HETATM    9  C   UNL     1      -8.313  12.475  67.538  1.00  0.00    -0.175 C  
BRANCH   9  10
HETATM   10  O   UNL     1      -8.264  11.457  68.547  1.00  0.00    -0.143 OA 
BRANCH  10  11
HETATM   11  C   UNL     1      -8.808  10.256  68.178  1.00  0.00    -0.123 C  
HETATM   12  O   UNL     1      -8.913   9.869  67.018  1.00  0.00    -0.137 OA 
HETATM   13  C   UNL     1      -9.315   9.480  69.447  1.00  0.00    -0.180 C  
HETATM   14  C   UNL     1      -8.564   8.134  69.531  1.00  0.00    -0.134 A  
HETATM   15  C   UNL     1     -10.871   9.290  69.337  1.00  0.00    -0.184 C  
HETATM   16  O   UNL     1      -9.016  10.228  70.635  1.00  0.00    -0.193 OA 
HETATM   17  H   UNL     1      -9.322   9.760  71.402  1.00  0.00     0.000 HD 
HETATM   18  C   UNL     1      -7.792   7.789  70.657  1.00  0.00    -0.096 A  
HETATM   19  C   UNL     1     -11.508   8.503  70.505  1.00  0.00    -0.198 C  
HETATM   20  C   UNL     1      -7.086   6.585  70.713  1.00  0.00    -0.069 A  
HETATM   21  C   UNL     1     -11.680   9.306  71.793  1.00  0.00    -0.456 C  
HETATM   22  C   UNL     1     -12.417  10.621  71.565  1.00  0.00    -0.471 C  
HETATM   23  C   UNL     1      -7.133   5.696  69.644  1.00  0.00    -0.064 A  
HETATM   24  C   UNL     1      -7.897   6.007  68.522  1.00  0.00    -0.100 A  
HETATM   25  C   UNL     1     -11.838  11.437  70.417  1.00  0.00    -0.428 C  
HETATM   26  C   UNL     1     -11.664  10.606  69.147  1.00  0.00    -0.324 C  
HETATM   27  C   UNL     1      -8.610   7.208  68.471  1.00  0.00    -0.124 A  
ENDBRANCH  10  11
ENDBRANCH   9  10
ENDBRANCH   8   9
ENDBRANCH   6   7
ENDBRANCH   3   6
ENDBRANCH   2   3
TORSDOF 7
ENDMDL
MODEL       89
REMARK 921   NORMALIZED FREE ENERGY PREDICTED BY IDOCK:   -4.40 KCAL/MOL
REMARK 922        TOTAL FREE ENERGY PREDICTED BY IDOCK:   -7.44 KCAL/MOL
REMARK 923 INTER-LIGAND FREE ENERGY PREDICTED BY IDOCK:   -6.29 KCAL/MOL
REMARK 924 INTRA-LIGAND FREE ENERGY PREDICTED BY IDOCK:   -1.15 KCAL/MOL
REMARK 927      BINDING AFFINITY PREDICTED BY RF-SCORE:    0.00 PKD
ROOT
HETATM    1  C   UNL     1      -8.707   8.717  66.516  1.00  0.00    -0.137 C  
HETATM    2  C   UNL     1      -9.401   9.128  65.219  1.00  0.00    -0.156 C  
ENDROOT
BRANCH   2   3
HETATM    3  N   UNL     1      -8.487   9.516  64.131  1.00  0.00    -0.173 NA 
BRANCH   3   4
HETATM    4  C   UNL     1      -7.612   8.426  63.669  1.00  0.00    -0.132 C  
HETATM    5  C   UNL     1      -6.241   8.828  63.139  1.00  0.00    -0.090 C  
ENDBRANCH   3   4
BRANCH   3   6
HETATM    6  C   UNL     1      -9.259  10.163  63.056  1.00  0.00    -0.293 C  
BRANCH   6   7
HETATM    7  C   UNL     1     -10.340  11.084  63.597  1.00  0.00    -0.415 C  
HETATM    8  C   UNL     1     -11.267  11.875  64.061  1.00  0.00    -0.470 C  
BRANCH   8   9
HETATM    9  C   UNL     1     -12.297  12.760  64.610  1.00  0.00    -0.459 C  
BRANCH   9  10
HETATM   10  O   UNL     1     -12.406  12.589  66.031  1.00  0.00    -0.615 OA 
BRANCH  10  11
HETATM   11  C   UNL     1     -12.067  13.692  66.769  1.00  0.00    -0.399 C  
HETATM   12  O   UNL     1     -12.404  14.839  66.497  1.00  0.00    -0.163 OA 
HETATM   13  C   UNL     1     -11.151  13.272  67.975  1.00  0.00    -0.256 C  
HETATM   14  C   UNL     1     -11.853  13.677  69.288  1.00  0.00    -0.395 A  
HETATM   15  C   UNL     1      -9.749  13.963  67.810  1.00  0.00    -0.225 C  
HETATM   16  O   UNL     1     -10.974  11.847  67.989  1.00  0.00    -0.201 OA 
HETATM   17  H   UNL     1     -10.420  11.594  68.717  1.00  0.00     0.000 HD 
HETATM   18  C   UNL     1     -12.168  12.727  70.279  1.00  0.00    -0.351 A  
HETATM   19  C   UNL     1      -8.749  13.671  68.953  1.00  0.00     0.181 C  
HETATM   20  C   UNL     1     -12.836  13.093  71.451  1.00  0.00    -0.401 A  
HETATM   21  C   UNL     1      -8.095  12.291  68.889  1.00  0.00     0.158 C  
HETATM   22  C   UNL     1      -7.459  12.012  67.532  1.00  0.00    -0.140 C  
HETATM   23  C   UNL     1     -13.208  14.417  71.660  1.00  0.00    -0.425 A  
HETATM   24  C   UNL     1     -12.900  15.379  70.701  1.00  0.00    -0.484 A  
HETATM   25  C   UNL     1      -8.397  12.292  66.365  1.00  0.00     0.157 C  
HETATM   26  C   UNL     1      -9.046  13.670  66.462  1.00  0.00    -0.138 C  
HETATM   27  C   UNL     1     -12.224  15.013  69.534  1.00  0.00    -0.267 A  
ENDBRANCH  10  11
ENDBRANCH   9  10
ENDBRANCH   8   9
ENDBRANCH   6   7
ENDBRANCH   3   6
ENDBRANCH   2   3
TORSDOF 7
ENDMDL
MODEL       90
REMARK 921   NORMALIZED FREE ENERGY PREDICTED BY IDOCK:   -4.39 KCAL/MOL
REMARK 922        TOTAL FREE ENERGY PREDICTED BY IDOCK:   -7.43 KCAL/MOL
REMARK 923 INTER-LIGAND FREE ENERGY PREDICTED BY IDOCK:   -7.13 KCAL/MOL
REMARK 924 INTRA-LIGAND FREE ENERGY PREDICTED BY IDOCK:   -0.30 KCAL/MOL
REMARK 927      BINDING AFFINITY PREDICTED BY RF-SCORE:    0.00 PKD
ROOT
HETATM    1  C   UNL     1     -12.323  15.593  71.456  1.00  0.00    -0.490 C  
HETATM    2  C   UNL     1     -11.184  15.334  70.473  1.00  0.00    -0.310 C  
ENDROOT
BRANCH   2   3
HETATM    3  N   UNL     1     -11.040  16.355  69.421  1.00  0.00    -0.318 NA 
BRANCH   3   4
HETATM    4  C   UNL     1      -9.643  16.652  69.064  1.00  0.00    -0.246 C  
HETATM    5  C   UNL     1      -8.650  15.500  69.172  1.00  0.00    -0.246 C  
ENDBRANCH   3   4
BRANCH   3   6
HETATM    6  C   UNL     1     -11.889  15.991  68.273  1.00  0.00     0.005 C  
BRANCH   6   7
HETATM    7  C   UNL     1     -11.720  14.536  67.870  1.00  0.00    -0.381 C  
HETATM    8  C   UNL     1     -11.576  13.287  67.525  1.00  0.00    -0.388 C  
BRANCH   8   9
HETATM    9  C   UNL     1     -11.415  11.876  67.166  1.00  0.00    -0.319 C  
BRANCH   9  10
HETATM   10  O   UNL     1     -12.059  11.032  68.131  1.00  0.00    -0.610 OA 
BRANCH  10  11
HETATM   11  C   UNL     1     -11.370  10.871  69.303  1.00  0.00    -0.277 C  
HETATM   12  O   UNL     1     -11.457  11.622  70.268  1.00  0.00    -0.216 OA 
HETATM   13  C   UNL     1     -10.426   9.618  69.205  1.00  0.00    -0.217 C  
HETATM   14  C   UNL     1     -10.826   8.615  70.307  1.00  0.00    -0.250 A  
HETATM   15  C   UNL     1      -8.935  10.096  69.345  1.00  0.00    -0.205 C  
HETATM   16  O   UNL     1     -10.594   8.970  67.935  1.00  0.00    -0.301 OA 
HETATM   17  H   UNL     1     -10.024   8.214  67.876  1.00  0.00     0.000 HD 
HETATM   18  C   UNL     1     -11.221   7.299  69.999  1.00  0.00    -0.234 A  
HETATM   19  C   UNL     1      -7.889   8.958  69.308  1.00  0.00    -0.096 C  
HETATM   20  C   UNL     1     -11.618   6.406  70.998  1.00  0.00    -0.386 A  
HETATM   21  C   UNL     1      -7.598   8.407  67.912  1.00  0.00    -0.099 C  
HETATM   22  C   UNL     1      -7.237   9.504  66.917  1.00  0.00    -0.087 C  
HETATM   23  C   UNL     1     -11.630   6.806  72.330  1.00  0.00    -0.311 A  
HETATM   24  C   UNL     1     -11.234   8.099  72.665  1.00  0.00    -0.447 A  
HETATM   25  C   UNL     1      -8.231  10.659  66.917  1.00  0.00    -0.123 C  
HETATM   26  C   UNL     1      -8.512  11.180  68.325  1.00  0.00    -0.145 C  
HETATM   27  C   UNL     1     -10.830   8.989  71.665  1.00  0.00    -0.437 A  
ENDBRANCH  10  11
ENDBRANCH   9  10
ENDBRANCH   8   9
ENDBRANCH   6   7
ENDBRANCH   3   6
ENDBRANCH   2   3
TORSDOF 7
ENDMDL
MODEL       91
REMARK 921   NORMALIZED FREE ENERGY PREDICTED BY IDOCK:   -4.39 KCAL/MOL
REMARK 922        TOTAL FREE ENERGY PREDICTED BY IDOCK:   -7.42 KCAL/MOL
REMARK 923 INTER-LIGAND FREE ENERGY PREDICTED BY IDOCK:   -6.70 KCAL/MOL
REMARK 924 INTRA-LIGAND FREE ENERGY PREDICTED BY IDOCK:   -0.72 KCAL/MOL
REMARK 927      BINDING AFFINITY PREDICTED BY RF-SCORE:    0.00 PKD
ROOT
HETATM    1  C   UNL     1     -13.849  15.713  72.797  1.00  0.00    -0.628 C  
HETATM    2  C   UNL     1     -14.042  15.230  71.361  1.00  0.00    -0.495 C  
ENDROOT
BRANCH   2   3
HETATM    3  N   UNL     1     -12.795  14.874  70.662  1.00  0.00    -0.359 NA 
BRANCH   3   4
HETATM    4  C   UNL     1     -11.695  15.828  70.880  1.00  0.00    -0.406 C  
HETATM    5  C   UNL     1     -10.910  16.260  69.647  1.00  0.00    -0.345 C  
ENDBRANCH   3   4
BRANCH   3   6
HETATM    6  C   UNL     1     -12.447  13.476  70.972  1.00  0.00    -0.369 C  
BRANCH   6   7
HETATM    7  C   UNL     1     -12.068  12.687  69.730  1.00  0.00    -0.301 C  
HETATM    8  C   UNL     1     -11.743  12.012  68.664  1.00  0.00    -0.380 C  
BRANCH   8   9
HETATM    9  C   UNL     1     -11.406  11.252  67.457  1.00  0.00    -0.288 C  
BRANCH   9  10
HETATM   10  O   UNL     1     -11.414   9.843  67.728  1.00  0.00    -0.121 OA 
BRANCH  10  11
HETATM   11  C   UNL     1     -10.264   9.185  67.381  1.00  0.00    -0.247 C  
HETATM   12  O   UNL     1      -9.915   8.961  66.227  1.00  0.00    -0.282 OA 
HETATM   13  C   UNL     1      -9.495   8.726  68.672  1.00  0.00    -0.141 C  
HETATM   14  C   UNL     1      -8.097   9.380  68.669  1.00  0.00    -0.104 A  
HETATM   15  C   UNL     1      -9.419   7.156  68.684  1.00  0.00    -0.140 C  
HETATM   16  O   UNL     1     -10.190   9.172  69.846  1.00  0.00    -0.188 OA 
HETATM   17  H   UNL     1      -9.725   8.894  70.626  1.00  0.00     0.000 HD 
HETATM   18  C   UNL     1      -7.670  10.212  69.722  1.00  0.00    -0.176 A  
HETATM   19  C   UNL     1      -8.650   6.558  69.885  1.00  0.00    -0.139 C  
HETATM   20  C   UNL     1      -6.418  10.831  69.697  1.00  0.00    -0.103 A  
HETATM   21  C   UNL     1      -9.430   6.547  71.198  1.00  0.00    -0.173 C  
HETATM   22  C   UNL     1     -10.800   5.893  71.056  1.00  0.00    -0.339 C  
HETATM   23  C   UNL     1      -5.561  10.635  68.618  1.00  0.00    -0.040 A  
HETATM   24  C   UNL     1      -5.954   9.809  67.568  1.00  0.00    -0.051 A  
HETATM   25  C   UNL     1     -11.601   6.436  69.880  1.00  0.00    -0.422 C  
HETATM   26  C   UNL     1     -10.792   6.448  68.585  1.00  0.00    -0.379 C  
HETATM   27  C   UNL     1      -7.204   9.183  67.598  1.00  0.00    -0.083 A  
ENDBRANCH  10  11
ENDBRANCH   9  10
ENDBRANCH   8   9
ENDBRANCH   6   7
ENDBRANCH   3   6
ENDBRANCH   2   3
TORSDOF 7
ENDMDL
MODEL       92
REMARK 921   NORMALIZED FREE ENERGY PREDICTED BY IDOCK:   -4.39 KCAL/MOL
REMARK 922        TOTAL FREE ENERGY PREDICTED BY IDOCK:   -7.42 KCAL/MOL
REMARK 923 INTER-LIGAND FREE ENERGY PREDICTED BY IDOCK:   -6.24 KCAL/MOL
REMARK 924 INTRA-LIGAND FREE ENERGY PREDICTED BY IDOCK:   -1.18 KCAL/MOL
REMARK 927      BINDING AFFINITY PREDICTED BY RF-SCORE:    0.00 PKD
ROOT
HETATM    1  C   UNL     1      -9.567  15.774  65.687  1.00  0.00    -0.299 C  
HETATM    2  C   UNL     1      -8.570  16.309  66.713  1.00  0.00    -0.237 C  
ENDROOT
BRANCH   2   3
HETATM    3  N   UNL     1      -9.183  17.017  67.851  1.00  0.00    -0.236 NA 
BRANCH   3   4
HETATM    4  C   UNL     1     -10.540  17.520  67.580  1.00  0.00    -0.355 C  
HETATM    5  C   UNL     1     -10.666  19.000  67.241  1.00  0.00    -0.556 C  
ENDBRANCH   3   4
BRANCH   3   6
HETATM    6  C   UNL     1      -9.085  16.175  69.056  1.00  0.00    -0.250 C  
BRANCH   6   7
HETATM    7  C   UNL     1     -10.118  15.061  69.067  1.00  0.00    -0.241 C  
HETATM    8  C   UNL     1     -11.005  14.105  69.075  1.00  0.00    -0.286 C  
BRANCH   8   9
HETATM    9  C   UNL     1     -12.020  13.049  69.070  1.00  0.00    -0.267 C  
BRANCH   9  10
HETATM   10  O   UNL     1     -11.556  11.904  68.341  1.00  0.00    -0.271 OA 
BRANCH  10  11
HETATM   11  C   UNL     1     -10.919  10.960  69.100  1.00  0.00    -0.239 C  
HETATM   12  O   UNL     1     -11.115  10.785  70.299  1.00  0.00    -0.276 OA 
HETATM   13  C   UNL     1      -9.876  10.177  68.224  1.00  0.00    -0.145 C  
HETATM   14  C   UNL     1     -10.254   8.681  68.231  1.00  0.00    -0.237 A  
HETATM   15  C   UNL     1      -8.436  10.432  68.801  1.00  0.00    -0.132 C  
HETATM   16  O   UNL     1      -9.926  10.639  66.866  1.00  0.00    -0.189 OA 
HETATM   17  H   UNL     1      -9.296  10.166  66.336  1.00  0.00     0.000 HD 
HETATM   18  C   UNL     1     -10.528   7.984  67.039  1.00  0.00    -0.410 A  
HETATM   19  C   UNL     1      -7.303   9.687  68.057  1.00  0.00    -0.082 C  
HETATM   20  C   UNL     1     -10.905   6.638  67.054  1.00  0.00    -0.467 A  
HETATM   21  C   UNL     1      -6.898  10.315  66.724  1.00  0.00    -0.088 C  
HETATM   22  C   UNL     1      -6.572  11.798  66.855  1.00  0.00    -0.114 C  
HETATM   23  C   UNL     1     -11.019   5.957  68.261  1.00  0.00    -0.262 A  
HETATM   24  C   UNL     1     -10.743   6.618  69.455  1.00  0.00    -0.303 A  
HETATM   25  C   UNL     1      -7.651  12.583  67.590  1.00  0.00    -0.145 C  
HETATM   26  C   UNL     1      -8.046  11.926  68.910  1.00  0.00     0.066 C  
HETATM   27  C   UNL     1     -10.358   7.962  69.438  1.00  0.00    -0.220 A  
ENDBRANCH  10  11
ENDBRANCH   9  10
ENDBRANCH   8   9
ENDBRANCH   6   7
ENDBRANCH   3   6
ENDBRANCH   2   3
TORSDOF 7
ENDMDL
MODEL       93
REMARK 921   NORMALIZED FREE ENERGY PREDICTED BY IDOCK:   -4.38 KCAL/MOL
REMARK 922        TOTAL FREE ENERGY PREDICTED BY IDOCK:   -7.42 KCAL/MOL
REMARK 923 INTER-LIGAND FREE ENERGY PREDICTED BY IDOCK:   -6.98 KCAL/MOL
REMARK 924 INTRA-LIGAND FREE ENERGY PREDICTED BY IDOCK:   -0.43 KCAL/MOL
REMARK 927      BINDING AFFINITY PREDICTED BY RF-SCORE:    0.00 PKD
ROOT
HETATM    1  C   UNL     1     -10.345  19.460  66.015  1.00  0.00    -0.584 C  
HETATM    2  C   UNL     1     -10.538  19.116  67.491  1.00  0.00    -0.471 C  
ENDROOT
BRANCH   2   3
HETATM    3  N   UNL     1      -9.915  17.848  67.909  1.00  0.00    -0.313 NA 
BRANCH   3   4
HETATM    4  C   UNL     1     -10.882  16.799  68.274  1.00  0.00    -0.366 C  
HETATM    5  C   UNL     1     -10.898  16.362  69.734  1.00  0.00    -0.343 C  
ENDBRANCH   3   4
BRANCH   3   6
HETATM    6  C   UNL     1      -8.933  17.431  66.893  1.00  0.00    -0.245 C  
BRANCH   6   7
HETATM    7  C   UNL     1      -8.414  16.024  67.137  1.00  0.00    -0.223 C  
HETATM    8  C   UNL     1      -7.969  14.817  67.347  1.00  0.00    -0.220 C  
BRANCH   8   9
HETATM    9  C   UNL     1      -7.460  13.468  67.610  1.00  0.00    -0.181 C  
BRANCH   9  10
HETATM   10  O   UNL     1      -8.472  12.658  68.227  1.00  0.00    -0.169 OA 
BRANCH  10  11
HETATM   11  C   UNL     1      -9.519  12.326  67.409  1.00  0.00    -0.181 C  
HETATM   12  O   UNL     1     -10.437  13.085  67.117  1.00  0.00    -0.241 OA 
HETATM   13  C   UNL     1      -9.390  10.830  66.948  1.00  0.00    -0.160 C  
HETATM   14  C   UNL     1      -9.302  10.797  65.408  1.00  0.00    -0.243 A  
HETATM   15  C   UNL     1     -10.625  10.024  67.492  1.00  0.00    -0.336 C  
HETATM   16  O   UNL     1      -8.185  10.253  67.473  1.00  0.00    -0.114 OA 
HETATM   17  H   UNL     1      -8.107   9.348  67.194  1.00  0.00     0.000 HD 
HETATM   18  C   UNL     1      -8.200  10.224  64.744  1.00  0.00    -0.163 A  
HETATM   19  C   UNL     1     -10.654   8.534  67.080  1.00  0.00    -0.314 C  
HETATM   20  C   UNL     1      -8.108  10.230  63.350  1.00  0.00    -0.154 A  
HETATM   21  C   UNL     1      -9.700   7.638  67.870  1.00  0.00    -0.174 C  
HETATM   22  C   UNL     1      -9.878   7.784  69.377  1.00  0.00    -0.176 C  
HETATM   23  C   UNL     1      -9.114  10.809  62.584  1.00  0.00    -0.343 A  
HETATM   24  C   UNL     1     -10.221  11.373  63.214  1.00  0.00    -0.430 A  
HETATM   25  C   UNL     1      -9.868   9.235  69.840  1.00  0.00    -0.219 C  
HETATM   26  C   UNL     1     -10.818  10.109  69.026  1.00  0.00    -0.257 C  
HETATM   27  C   UNL     1     -10.316  11.360  64.609  1.00  0.00    -0.362 A  
ENDBRANCH  10  11
ENDBRANCH   9  10
ENDBRANCH   8   9
ENDBRANCH   6   7
ENDBRANCH   3   6
ENDBRANCH   2   3
TORSDOF 7
ENDMDL
MODEL       94
REMARK 921   NORMALIZED FREE ENERGY PREDICTED BY IDOCK:   -4.38 KCAL/MOL
REMARK 922        TOTAL FREE ENERGY PREDICTED BY IDOCK:   -7.41 KCAL/MOL
REMARK 923 INTER-LIGAND FREE ENERGY PREDICTED BY IDOCK:   -6.19 KCAL/MOL
REMARK 924 INTRA-LIGAND FREE ENERGY PREDICTED BY IDOCK:   -1.22 KCAL/MOL
REMARK 927      BINDING AFFINITY PREDICTED BY RF-SCORE:    0.00 PKD
ROOT
HETATM    1  C   UNL     1     -10.321  11.745  63.222  1.00  0.00    -0.446 C  
HETATM    2  C   UNL     1     -10.484  10.879  64.469  1.00  0.00    -0.323 C  
ENDROOT
BRANCH   2   3
HETATM    3  N   UNL     1      -9.391  11.004  65.448  1.00  0.00    -0.210 NA 
BRANCH   3   4
HETATM    4  C   UNL     1      -9.809  11.570  66.742  1.00  0.00    -0.203 C  
HETATM    5  C   UNL     1     -11.284  11.924  66.888  1.00  0.00    -0.382 C  
ENDBRANCH   3   4
BRANCH   3   6
HETATM    6  C   UNL     1      -8.688   9.713  65.558  1.00  0.00    -0.153 C  
BRANCH   6   7
HETATM    7  C   UNL     1      -9.547   8.643  66.210  1.00  0.00    -0.322 C  
HETATM    8  C   UNL     1     -10.285   7.725  66.769  1.00  0.00    -0.346 C  
BRANCH   8   9
HETATM    9  C   UNL     1     -11.126   6.715  67.415  1.00  0.00    -0.320 C  
BRANCH   9  10
HETATM   10  O   UNL     1     -10.432   6.106  68.513  1.00  0.00    -0.186 OA 
BRANCH  10  11
HETATM   11  C   UNL     1     -10.938   6.407  69.749  1.00  0.00    -0.356 C  
HETATM   12  O   UNL     1     -12.127   6.594  69.985  1.00  0.00    -0.280 OA 
HETATM   13  C   UNL     1      -9.771   6.522  70.796  1.00  0.00    -0.179 C  
HETATM   14  C   UNL     1     -10.005   5.477  71.907  1.00  0.00    -0.227 A  
HETATM   15  C   UNL     1      -9.735   7.991  71.355  1.00  0.00    -0.205 C  
HETATM   16  O   UNL     1      -8.514   6.227  70.169  1.00  0.00    -0.130 OA 
HETATM   17  H   UNL     1      -7.809   6.297  70.801  1.00  0.00     0.000 HD 
HETATM   18  C   UNL     1      -9.050   4.485  72.199  1.00  0.00    -0.153 A  
HETATM   19  C   UNL     1      -8.655   8.244  72.431  1.00  0.00    -0.270 C  
HETATM   20  C   UNL     1      -9.281   3.519  73.182  1.00  0.00    -0.114 A  
HETATM   21  C   UNL     1      -7.237   8.399  71.884  1.00  0.00    -0.111 C  
HETATM   22  C   UNL     1      -7.151   9.446  70.779  1.00  0.00    -0.119 C  
HETATM   23  C   UNL     1     -10.475   3.521  73.897  1.00  0.00    -0.257 A  
HETATM   24  C   UNL     1     -11.433   4.498  73.637  1.00  0.00    -0.195 A  
HETATM   25  C   UNL     1      -8.201   9.253  69.693  1.00  0.00    -0.126 C  
HETATM   26  C   UNL     1      -9.605   9.086  70.268  1.00  0.00    -0.230 C  
HETATM   27  C   UNL     1     -11.196   5.468  72.659  1.00  0.00    -0.348 A  
ENDBRANCH  10  11
ENDBRANCH   9  10
ENDBRANCH   8   9
ENDBRANCH   6   7
ENDBRANCH   3   6
ENDBRANCH   2   3
TORSDOF 7
ENDMDL
MODEL       95
REMARK 921   NORMALIZED FREE ENERGY PREDICTED BY IDOCK:   -4.37 KCAL/MOL
REMARK 922        TOTAL FREE ENERGY PREDICTED BY IDOCK:   -7.40 KCAL/MOL
REMARK 923 INTER-LIGAND FREE ENERGY PREDICTED BY IDOCK:   -6.55 KCAL/MOL
REMARK 924 INTRA-LIGAND FREE ENERGY PREDICTED BY IDOCK:   -0.85 KCAL/MOL
REMARK 927      BINDING AFFINITY PREDICTED BY RF-SCORE:    0.00 PKD
ROOT
HETATM    1  C   UNL     1      -9.454  11.067  62.779  1.00  0.00    -0.361 C  
HETATM    2  C   UNL     1      -9.766  11.137  64.273  1.00  0.00    -0.271 C  
ENDROOT
BRANCH   2   3
HETATM    3  N   UNL     1     -10.184  12.467  64.749  1.00  0.00    -0.293 NA 
BRANCH   3   4
HETATM    4  C   UNL     1     -11.642  12.671  64.749  1.00  0.00    -0.331 C  
HETATM    5  C   UNL     1     -12.235  13.361  63.526  1.00  0.00    -0.468 C  
ENDBRANCH   3   4
BRANCH   3   6
HETATM    6  C   UNL     1      -9.540  12.742  66.046  1.00  0.00    -0.178 C  
BRANCH   6   7
HETATM    7  C   UNL     1      -9.011  11.480  66.706  1.00  0.00    -0.181 C  
HETATM    8  C   UNL     1      -8.558  10.397  67.273  1.00  0.00    -0.126 C  
BRANCH   8   9
HETATM    9  C   UNL     1      -8.041   9.196  67.934  1.00  0.00    -0.105 C  
BRANCH   9  10
HETATM   10  O   UNL     1      -8.561   9.089  69.267  1.00  0.00    -0.130 OA 
BRANCH  10  11
HETATM   11  C   UNL     1      -9.720   8.368  69.376  1.00  0.00    -0.177 C  
HETATM   12  O   UNL     1     -10.050   7.466  68.613  1.00  0.00    -0.168 OA 
HETATM   13  C   UNL     1     -10.574   8.898  70.583  1.00  0.00    -0.229 C  
HETATM   14  C   UNL     1     -10.776   7.743  71.586  1.00  0.00    -0.257 A  
HETATM   15  C   UNL     1     -11.935   9.458  70.034  1.00  0.00     0.202 C  
HETATM   16  O   UNL     1      -9.871   9.952  71.260  1.00  0.00    -0.183 OA 
HETATM   17  H   UNL     1     -10.387  10.273  71.990  1.00  0.00     0.000 HD 
HETATM   18  C   UNL     1     -10.350   7.843  72.924  1.00  0.00    -0.413 A  
HETATM   19  C   UNL     1     -12.902   9.982  71.121  1.00  0.00    -0.480 C  
HETATM   20  C   UNL     1     -10.503   6.781  73.818  1.00  0.00    -0.383 A  
HETATM   21  C   UNL     1     -12.544  11.358  71.681  1.00  0.00    -0.338 C  
HETATM   22  C   UNL     1     -12.350  12.399  70.584  1.00  0.00    -0.367 C  
HETATM   23  C   UNL     1     -11.086   5.590  73.396  1.00  0.00    -0.280 A  
HETATM   24  C   UNL     1     -11.527   5.467  72.081  1.00  0.00    -0.096 A  
HETATM   25  C   UNL     1     -11.413  11.933  69.478  1.00  0.00    -0.357 C  
HETATM   26  C   UNL     1     -11.786  10.551  68.948  1.00  0.00    -0.217 C  
HETATM   27  C   UNL     1     -11.380   6.534  71.190  1.00  0.00    -0.367 A  
ENDBRANCH  10  11
ENDBRANCH   9  10
ENDBRANCH   8   9
ENDBRANCH   6   7
ENDBRANCH   3   6
ENDBRANCH   2   3
TORSDOF 7
ENDMDL
MODEL       96
REMARK 921   NORMALIZED FREE ENERGY PREDICTED BY IDOCK:   -4.35 KCAL/MOL
REMARK 922        TOTAL FREE ENERGY PREDICTED BY IDOCK:   -7.38 KCAL/MOL
REMARK 923 INTER-LIGAND FREE ENERGY PREDICTED BY IDOCK:   -6.14 KCAL/MOL
REMARK 924 INTRA-LIGAND FREE ENERGY PREDICTED BY IDOCK:   -1.24 KCAL/MOL
REMARK 927      BINDING AFFINITY PREDICTED BY RF-SCORE:    0.00 PKD
ROOT
HETATM    1  C   UNL     1      -9.564   8.122  73.007  1.00  0.00    -0.336 C  
HETATM    2  C   UNL     1     -10.772   7.266  73.380  1.00  0.00    -0.369 C  
ENDROOT
BRANCH   2   3
HETATM    3  N   UNL     1     -11.034   6.143  72.462  1.00  0.00    -0.245 NA 
BRANCH   3   4
HETATM    4  C   UNL     1     -11.267   4.858  73.141  1.00  0.00    -0.326 C  
HETATM    5  C   UNL     1     -10.087   3.896  73.208  1.00  0.00    -0.204 C  
ENDBRANCH   3   4
BRANCH   3   6
HETATM    6  C   UNL     1     -12.100   6.526  71.519  1.00  0.00    -0.308 C  
BRANCH   6   7
HETATM    7  C   UNL     1     -11.635   6.477  70.073  1.00  0.00    -0.455 C  
HETATM    8  C   UNL     1     -11.236   6.435  68.833  1.00  0.00    -0.385 C  
BRANCH   8   9
HETATM    9  C   UNL     1     -10.792   6.417  67.437  1.00  0.00    -0.375 C  
BRANCH   9  10
HETATM   10  O   UNL     1      -9.541   7.106  67.295  1.00  0.00    -0.132 OA 
BRANCH  10  11
HETATM   11  C   UNL     1      -9.649   8.458  67.103  1.00  0.00    -0.179 C  
HETATM   12  O   UNL     1     -10.090   8.981  66.085  1.00  0.00    -0.290 OA 
HETATM   13  C   UNL     1      -9.083   9.226  68.352  1.00  0.00    -0.128 C  
HETATM   14  C   UNL     1     -10.213  10.092  68.948  1.00  0.00    -0.213 A  
HETATM   15  C   UNL     1      -7.847  10.086  67.900  1.00  0.00    -0.090 C  
HETATM   16  O   UNL     1      -8.664   8.292  69.358  1.00  0.00    -0.139 OA 
HETATM   17  H   UNL     1      -8.322   8.757  70.113  1.00  0.00     0.000 HD 
HETATM   18  C   UNL     1     -10.637   9.936  70.281  1.00  0.00    -0.359 A  
HETATM   19  C   UNL     1      -7.207  10.933  69.024  1.00  0.00    -0.101 C  
HETATM   20  C   UNL     1     -11.685  10.697  70.805  1.00  0.00    -0.435 A  
HETATM   21  C   UNL     1      -6.326  10.144  69.992  1.00  0.00    -0.088 C  
HETATM   22  C   UNL     1      -5.268   9.316  69.272  1.00  0.00    -0.036 C  
HETATM   23  C   UNL     1     -12.336  11.633  70.009  1.00  0.00    -0.261 A  
HETATM   24  C   UNL     1     -11.930  11.817  68.689  1.00  0.00    -0.299 A  
HETATM   25  C   UNL     1      -5.840   8.467  68.145  1.00  0.00    -0.038 C  
HETATM   26  C   UNL     1      -6.727   9.277  67.202  1.00  0.00    -0.076 C  
HETATM   27  C   UNL     1     -10.876  11.060  68.169  1.00  0.00    -0.274 A  
ENDBRANCH  10  11
ENDBRANCH   9  10
ENDBRANCH   8   9
ENDBRANCH   6   7
ENDBRANCH   3   6
ENDBRANCH   2   3
TORSDOF 7
ENDMDL
MODEL       97
REMARK 921   NORMALIZED FREE ENERGY PREDICTED BY IDOCK:   -4.35 KCAL/MOL
REMARK 922        TOTAL FREE ENERGY PREDICTED BY IDOCK:   -7.37 KCAL/MOL
REMARK 923 INTER-LIGAND FREE ENERGY PREDICTED BY IDOCK:   -6.87 KCAL/MOL
REMARK 924 INTRA-LIGAND FREE ENERGY PREDICTED BY IDOCK:   -0.50 KCAL/MOL
REMARK 927      BINDING AFFINITY PREDICTED BY RF-SCORE:    0.00 PKD
ROOT
HETATM    1  C   UNL     1     -10.485  11.680  63.462  1.00  0.00    -0.498 C  
HETATM    2  C   UNL     1     -10.381  12.258  64.871  1.00  0.00    -0.290 C  
ENDROOT
BRANCH   2   3
HETATM    3  N   UNL     1     -10.288  13.727  64.926  1.00  0.00    -0.404 NA 
BRANCH   3   4
HETATM    4  C   UNL     1     -11.569  14.416  64.695  1.00  0.00    -0.409 C  
HETATM    5  C   UNL     1     -12.757  13.944  65.526  1.00  0.00    -0.536 C  
ENDBRANCH   3   4
BRANCH   3   6
HETATM    6  C   UNL     1      -9.609  14.125  66.171  1.00  0.00    -0.254 C  
BRANCH   6   7
HETATM    7  C   UNL     1      -9.577  13.001  67.194  1.00  0.00    -0.230 C  
HETATM    8  C   UNL     1      -9.549  12.037  68.071  1.00  0.00    -0.199 C  
BRANCH   8   9
HETATM    9  C   UNL     1      -9.493  10.944  69.045  1.00  0.00    -0.146 C  
BRANCH   9  10
HETATM   10  O   UNL     1      -9.073   9.726  68.414  1.00  0.00    -0.123 OA 
BRANCH  10  11
HETATM   11  C   UNL     1     -10.084   8.843  68.140  1.00  0.00    -0.189 C  
HETATM   12  O   UNL     1     -11.012   9.069  67.372  1.00  0.00    -0.152 OA 
HETATM   13  C   UNL     1      -9.899   7.533  68.988  1.00  0.00    -0.170 C  
HETATM   14  C   UNL     1      -9.760   6.339  68.022  1.00  0.00    -0.122 A  
HETATM   15  C   UNL     1     -11.129   7.379  69.955  1.00  0.00    -0.238 C  
HETATM   16  O   UNL     1      -8.697   7.614  69.768  1.00  0.00    -0.138 OA 
HETATM   17  H   UNL     1      -8.585   6.823  70.281  1.00  0.00     0.000 HD 
HETATM   18  C   UNL     1      -8.621   5.510  68.033  1.00  0.00    -0.100 A  
HETATM   19  C   UNL     1     -11.104   6.104  70.830  1.00  0.00    -0.375 C  
HETATM   20  C   UNL     1      -8.483   4.451  67.131  1.00  0.00    -0.104 A  
HETATM   21  C   UNL     1     -10.153   6.171  72.024  1.00  0.00    -0.206 C  
HETATM   22  C   UNL     1     -10.384   7.409  72.883  1.00  0.00    -0.328 C  
HETATM   23  C   UNL     1      -9.480   4.196  66.195  1.00  0.00    -0.187 A  
HETATM   24  C   UNL     1     -10.621   4.993  66.168  1.00  0.00    -0.321 A  
HETATM   25  C   UNL     1     -10.428   8.697  72.071  1.00  0.00    -0.422 C  
HETATM   26  C   UNL     1     -11.375   8.597  70.878  1.00  0.00    -0.314 C  
HETATM   27  C   UNL     1     -10.761   6.047  67.076  1.00  0.00    -0.412 A  
ENDBRANCH  10  11
ENDBRANCH   9  10
ENDBRANCH   8   9
ENDBRANCH   6   7
ENDBRANCH   3   6
ENDBRANCH   2   3
TORSDOF 7
ENDMDL
MODEL       98
REMARK 921   NORMALIZED FREE ENERGY PREDICTED BY IDOCK:   -4.35 KCAL/MOL
REMARK 922        TOTAL FREE ENERGY PREDICTED BY IDOCK:   -7.37 KCAL/MOL
REMARK 923 INTER-LIGAND FREE ENERGY PREDICTED BY IDOCK:   -6.45 KCAL/MOL
REMARK 924 INTRA-LIGAND FREE ENERGY PREDICTED BY IDOCK:   -0.92 KCAL/MOL
REMARK 927      BINDING AFFINITY PREDICTED BY RF-SCORE:    0.00 PKD
ROOT
HETATM    1  C   UNL     1     -10.217  10.980  64.774  1.00  0.00    -0.381 C  
HETATM    2  C   UNL     1     -10.885  11.409  66.079  1.00  0.00    -0.249 C  
ENDROOT
BRANCH   2   3
HETATM    3  N   UNL     1     -10.922  12.866  66.298  1.00  0.00    -0.277 NA 
BRANCH   3   4
HETATM    4  C   UNL     1     -12.161  13.508  65.832  1.00  0.00    -0.460 C  
HETATM    5  C   UNL     1     -12.157  14.049  64.406  1.00  0.00    -0.486 C  
ENDBRANCH   3   4
BRANCH   3   6
HETATM    6  C   UNL     1     -10.588  13.153  67.704  1.00  0.00    -0.228 C  
BRANCH   6   7
HETATM    7  C   UNL     1      -9.543  12.198  68.255  1.00  0.00    -0.210 C  
HETATM    8  C   UNL     1      -8.647  11.378  68.729  1.00  0.00    -0.085 C  
BRANCH   8   9
HETATM    9  C   UNL     1      -7.654  10.457  69.287  1.00  0.00    -0.132 C  
BRANCH   9  10
HETATM   10  O   UNL     1      -8.224   9.684  70.353  1.00  0.00    -0.183 OA 
BRANCH  10  11
HETATM   11  C   UNL     1      -8.957   8.601  69.948  1.00  0.00    -0.149 C  
HETATM   12  O   UNL     1      -8.825   8.039  68.866  1.00  0.00    -0.140 OA 
HETATM   13  C   UNL     1     -10.013   8.223  71.049  1.00  0.00    -0.187 C  
HETATM   14  C   UNL     1      -9.741   6.777  71.514  1.00  0.00    -0.168 A  
HETATM   15  C   UNL     1     -11.455   8.395  70.447  1.00  0.00    -0.129 C  
HETATM   16  O   UNL     1      -9.873   9.088  72.186  1.00  0.00    -0.273 OA 
HETATM   17  H   UNL     1     -10.511   8.860  72.851  1.00  0.00     0.000 HD 
HETATM   18  C   UNL     1      -9.464   6.476  72.862  1.00  0.00    -0.151 A  
HETATM   19  C   UNL     1     -12.604   8.018  71.411  1.00  0.00    -0.307 C  
HETATM   20  C   UNL     1      -9.182   5.171  73.272  1.00  0.00    -0.133 A  
HETATM   21  C   UNL     1     -12.907   9.067  72.480  1.00  0.00    -0.408 C  
HETATM   22  C   UNL     1     -13.135  10.453  71.887  1.00  0.00    -0.563 C  
HETATM   23  C   UNL     1      -9.168   4.134  72.345  1.00  0.00    -0.151 A  
HETATM   24  C   UNL     1      -9.448   4.401  71.007  1.00  0.00    -0.232 A  
HETATM   25  C   UNL     1     -12.036  10.874  70.919  1.00  0.00    -0.455 C  
HETATM   26  C   UNL     1     -11.745   9.802  69.872  1.00  0.00    -0.073 C  
HETATM   27  C   UNL     1      -9.739   5.706  70.600  1.00  0.00    -0.232 A  
ENDBRANCH  10  11
ENDBRANCH   9  10
ENDBRANCH   8   9
ENDBRANCH   6   7
ENDBRANCH   3   6
ENDBRANCH   2   3
TORSDOF 7
ENDMDL
MODEL       99
REMARK 921   NORMALIZED FREE ENERGY PREDICTED BY IDOCK:   -4.34 KCAL/MOL
REMARK 922        TOTAL FREE ENERGY PREDICTED BY IDOCK:   -7.36 KCAL/MOL
REMARK 923 INTER-LIGAND FREE ENERGY PREDICTED BY IDOCK:   -6.59 KCAL/MOL
REMARK 924 INTRA-LIGAND FREE ENERGY PREDICTED BY IDOCK:   -0.77 KCAL/MOL
REMARK 927      BINDING AFFINITY PREDICTED BY RF-SCORE:    0.00 PKD
ROOT
HETATM    1  C   UNL     1     -10.482  19.075  65.907  1.00  0.00    -0.468 C  
HETATM    2  C   UNL     1     -10.690  18.664  67.362  1.00  0.00    -0.402 C  
ENDROOT
BRANCH   2   3
HETATM    3  N   UNL     1     -10.205  17.313  67.692  1.00  0.00    -0.320 NA 
BRANCH   3   4
HETATM    4  C   UNL     1     -11.152  16.516  68.489  1.00  0.00    -0.335 C  
HETATM    5  C   UNL     1     -10.960  16.537  70.001  1.00  0.00    -0.245 C  
ENDBRANCH   3   4
BRANCH   3   6
HETATM    6  C   UNL     1      -9.749  16.647  66.459  1.00  0.00    -0.274 C  
BRANCH   6   7
HETATM    7  C   UNL     1      -9.063  15.320  66.741  1.00  0.00    -0.283 C  
HETATM    8  C   UNL     1      -8.475  14.182  66.983  1.00  0.00    -0.178 C  
BRANCH   8   9
HETATM    9  C   UNL     1      -7.797  12.917  67.275  1.00  0.00    -0.131 C  
BRANCH   9  10
HETATM   10  O   UNL     1      -8.544  12.151  68.231  1.00  0.00    -0.173 OA 
BRANCH  10  11
HETATM   11  C   UNL     1      -9.545  11.386  67.698  1.00  0.00    -0.169 C  
HETATM   12  O   UNL     1      -9.805  11.319  66.501  1.00  0.00    -0.199 OA 
HETATM   13  C   UNL     1     -10.333  10.653  68.843  1.00  0.00    -0.207 C  
HETATM   14  C   UNL     1     -10.224   9.131  68.617  1.00  0.00    -0.225 A  
HETATM   15  C   UNL     1     -11.823  11.154  68.833  1.00  0.00    -0.406 C  
HETATM   16  O   UNL     1      -9.745  10.954  70.118  1.00  0.00    -0.013 OA 
HETATM   17  H   UNL     1     -10.221  10.512  70.810  1.00  0.00     0.000 HD 
HETATM   18  C   UNL     1      -9.671   8.278  69.591  1.00  0.00    -0.173 A  
HETATM   19  C   UNL     1     -12.733  10.485  69.889  1.00  0.00    -0.037 C  
HETATM   20  C   UNL     1      -9.542   6.905  69.367  1.00  0.00    -0.147 A  
HETATM   21  C   UNL     1     -12.549  11.010  71.312  1.00  0.00    -0.517 C  
HETATM   22  C   UNL     1     -12.659  12.529  71.390  1.00  0.00    -0.297 C  
HETATM   23  C   UNL     1      -9.962   6.350  68.162  1.00  0.00    -0.143 A  
HETATM   24  C   UNL     1     -10.522   7.169  67.185  1.00  0.00    -0.389 A  
HETATM   25  C   UNL     1     -11.788  13.243  70.364  1.00  0.00    -0.270 C  
HETATM   26  C   UNL     1     -11.983  12.689  68.955  1.00  0.00    -0.284 C  
HETATM   27  C   UNL     1     -10.659   8.541  67.414  1.00  0.00    -0.304 A  
ENDBRANCH  10  11
ENDBRANCH   9  10
ENDBRANCH   8   9
ENDBRANCH   6   7
ENDBRANCH   3   6
ENDBRANCH   2   3
TORSDOF 7
ENDMDL
MODEL      100
REMARK 921   NORMALIZED FREE ENERGY PREDICTED BY IDOCK:   -4.33 KCAL/MOL
REMARK 922        TOTAL FREE ENERGY PREDICTED BY IDOCK:   -7.35 KCAL/MOL
REMARK 923 INTER-LIGAND FREE ENERGY PREDICTED BY IDOCK:   -6.33 KCAL/MOL
REMARK 924 INTRA-LIGAND FREE ENERGY PREDICTED BY IDOCK:   -1.02 KCAL/MOL
REMARK 927      BINDING AFFINITY PREDICTED BY RF-SCORE:    0.00 PKD
ROOT
HETATM    1  C   UNL     1      -9.059   3.165  71.060  1.00  0.00    -0.184 C  
HETATM    2  C   UNL     1      -9.388   4.178  72.155  1.00  0.00    -0.127 C  
ENDROOT
BRANCH   2   3
HETATM    3  N   UNL     1     -10.634   4.933  71.936  1.00  0.00    -0.161 NA 
BRANCH   3   4
HETATM    4  C   UNL     1     -11.062   5.729  73.098  1.00  0.00    -0.247 C  
HETATM    5  C   UNL     1      -9.974   6.134  74.087  1.00  0.00    -0.276 C  
ENDBRANCH   3   4
BRANCH   3   6
HETATM    6  C   UNL     1     -10.519   5.707  70.688  1.00  0.00    -0.270 C  
BRANCH   6   7
HETATM    7  C   UNL     1     -10.883   7.170  70.882  1.00  0.00    -0.266 C  
HETATM    8  C   UNL     1     -11.195   8.425  71.049  1.00  0.00    -0.304 C  
BRANCH   8   9
HETATM    9  C   UNL     1     -11.552   9.829  71.265  1.00  0.00    -0.390 C  
BRANCH   9  10
HETATM   10  O   UNL     1     -11.161  10.629  70.140  1.00  0.00    -0.288 OA 
BRANCH  10  11
HETATM   11  C   UNL     1      -9.966  10.277  69.573  1.00  0.00    -0.228 C  
HETATM   12  O   UNL     1      -8.901  10.217  70.180  1.00  0.00    -0.091 OA 
HETATM   13  C   UNL     1     -10.155  10.012  68.036  1.00  0.00    -0.167 C  
HETATM   14  C   UNL     1      -9.742   8.556  67.734  1.00  0.00    -0.199 A  
HETATM   15  C   UNL     1      -9.297  11.055  67.233  1.00  0.00    -0.167 C  
HETATM   16  O   UNL     1     -11.537  10.164  67.675  1.00  0.00    -0.574 OA 
HETATM   17  H   UNL     1     -11.652  10.004  66.746  1.00  0.00     0.000 HD 
HETATM   18  C   UNL     1     -10.640   7.640  67.154  1.00  0.00    -0.410 A  
HETATM   19  C   UNL     1      -9.354  10.890  65.696  1.00  0.00    -0.236 C  
HETATM   20  C   UNL     1     -10.273   6.313  66.916  1.00  0.00    -0.268 A  
HETATM   21  C   UNL     1     -10.633  11.418  65.048  1.00  0.00    -0.359 C  
HETATM   22  C   UNL     1     -10.935  12.858  65.446  1.00  0.00    -0.305 C  
HETATM   23  C   UNL     1      -8.999   5.869  67.254  1.00  0.00    -0.108 A  
HETATM   24  C   UNL     1      -8.087   6.756  67.819  1.00  0.00    -0.113 A  
HETATM   25  C   UNL     1     -10.883  13.084  66.952  1.00  0.00    -0.282 C  
HETATM   26  C   UNL     1      -9.602  12.534  67.575  1.00  0.00    -0.187 C  
HETATM   27  C   UNL     1      -8.453   8.086  68.049  1.00  0.00    -0.126 A  
ENDBRANCH  10  11
ENDBRANCH   9  10
ENDBRANCH   8   9
ENDBRANCH   6   7
ENDBRANCH   3   6
ENDBRANCH   2   3
TORSDOF 7
ENDMDL
MODEL      101
REMARK 921   NORMALIZED FREE ENERGY PREDICTED BY IDOCK:   -4.33 KCAL/MOL
REMARK 922        TOTAL FREE ENERGY PREDICTED BY IDOCK:   -7.34 KCAL/MOL
REMARK 923 INTER-LIGAND FREE ENERGY PREDICTED BY IDOCK:   -6.10 KCAL/MOL
REMARK 924 INTRA-LIGAND FREE ENERGY PREDICTED BY IDOCK:   -1.25 KCAL/MOL
REMARK 927      BINDING AFFINITY PREDICTED BY RF-SCORE:    0.00 PKD
ROOT
HETATM    1  C   UNL     1      -9.517  15.241  66.920  1.00  0.00    -0.249 C  
HETATM    2  C   UNL     1     -10.939  14.686  66.979  1.00  0.00    -0.317 C  
ENDROOT
BRANCH   2   3
HETATM    3  N   UNL     1     -11.137  13.430  66.236  1.00  0.00    -0.291 NA 
BRANCH   3   4
HETATM    4  C   UNL     1     -10.866  13.540  64.793  1.00  0.00    -0.381 C  
HETATM    5  C   UNL     1     -11.312  12.372  63.922  1.00  0.00    -0.502 C  
ENDBRANCH   3   4
BRANCH   3   6
HETATM    6  C   UNL     1     -10.393  12.348  66.905  1.00  0.00    -0.224 C  
BRANCH   6   7
HETATM    7  C   UNL     1     -11.052  11.912  68.203  1.00  0.00    -0.294 C  
HETATM    8  C   UNL     1     -11.618  11.540  69.317  1.00  0.00    -0.388 C  
BRANCH   8   9
HETATM    9  C   UNL     1     -12.229  11.130  70.583  1.00  0.00    -0.397 C  
BRANCH   9  10
HETATM   10  O   UNL     1     -11.411  10.157  71.248  1.00  0.00    -0.353 OA 
BRANCH  10  11
HETATM   11  C   UNL     1     -11.233   8.988  70.558  1.00  0.00    -0.260 C  
HETATM   12  O   UNL     1     -12.143   8.245  70.207  1.00  0.00     0.153 OA 
HETATM   13  C   UNL     1      -9.701   8.724  70.331  1.00  0.00    -0.180 C  
HETATM   14  C   UNL     1      -9.435   8.654  68.812  1.00  0.00    -0.143 A  
HETATM   15  C   UNL     1      -9.301   7.395  71.069  1.00  0.00    -0.157 C  
HETATM   16  O   UNL     1      -8.928   9.809  70.865  1.00  0.00    -0.349 OA 
HETATM   17  H   UNL     1      -8.002   9.650  70.728  1.00  0.00     0.000 HD 
HETATM   18  C   UNL     1      -8.527   9.525  68.181  1.00  0.00    -0.119 A  
HETATM   19  C   UNL     1      -7.820   6.985  70.899  1.00  0.00    -0.096 C  
HETATM   20  C   UNL     1      -8.317   9.481  66.801  1.00  0.00    -0.116 A  
HETATM   21  C   UNL     1      -6.838   7.778  71.760  1.00  0.00    -0.059 C  
HETATM   22  C   UNL     1      -7.229   7.785  73.233  1.00  0.00    -0.120 C  
HETATM   23  C   UNL     1      -9.012   8.566  66.016  1.00  0.00    -0.228 A  
HETATM   24  C   UNL     1      -9.908   7.685  66.615  1.00  0.00    -0.283 A  
HETATM   25  C   UNL     1      -8.684   8.174  73.462  1.00  0.00    -0.317 C  
HETATM   26  C   UNL     1      -9.641   7.375  72.579  1.00  0.00    -0.199 C  
HETATM   27  C   UNL     1     -10.111   7.724  67.998  1.00  0.00    -0.227 A  
ENDBRANCH  10  11
ENDBRANCH   9  10
ENDBRANCH   8   9
ENDBRANCH   6   7
ENDBRANCH   3   6
ENDBRANCH   2   3
TORSDOF 7
ENDMDL
MODEL      102
REMARK 921   NORMALIZED FREE ENERGY PREDICTED BY IDOCK:   -4.33 KCAL/MOL
REMARK 922        TOTAL FREE ENERGY PREDICTED BY IDOCK:   -7.34 KCAL/MOL
REMARK 923 INTER-LIGAND FREE ENERGY PREDICTED BY IDOCK:   -6.74 KCAL/MOL
REMARK 924 INTRA-LIGAND FREE ENERGY PREDICTED BY IDOCK:   -0.60 KCAL/MOL
REMARK 927      BINDING AFFINITY PREDICTED BY RF-SCORE:    0.00 PKD
ROOT
HETATM    1  C   UNL     1      -7.005  16.412  67.034  1.00  0.00    -0.254 C  
HETATM    2  C   UNL     1      -7.878  17.467  66.358  1.00  0.00    -0.294 C  
ENDROOT
BRANCH   2   3
HETATM    3  N   UNL     1      -9.057  17.878  67.141  1.00  0.00    -0.247 NA 
BRANCH   3   4
HETATM    4  C   UNL     1      -8.895  19.168  67.832  1.00  0.00    -0.304 C  
HETATM    5  C   UNL     1      -9.664  20.353  67.258  1.00  0.00    -0.602 C  
ENDBRANCH   3   4
BRANCH   3   6
HETATM    6  C   UNL     1     -10.256  17.801  66.288  1.00  0.00    -0.364 C  
BRANCH   6   7
HETATM    7  C   UNL     1     -10.444  16.420  65.681  1.00  0.00    -0.364 C  
HETATM    8  C   UNL     1     -10.605  15.236  65.162  1.00  0.00    -0.453 C  
BRANCH   8   9
HETATM    9  C   UNL     1     -10.778  13.892  64.603  1.00  0.00    -0.407 C  
BRANCH   9  10
HETATM   10  O   UNL     1     -10.060  12.925  65.383  1.00  0.00    -0.285 OA 
BRANCH  10  11
HETATM   11  C   UNL     1     -10.236  11.625  64.988  1.00  0.00    -0.275 C  
HETATM   12  O   UNL     1     -11.072  11.256  64.171  1.00  0.00    -0.354 OA 
HETATM   13  C   UNL     1      -9.248  10.686  65.770  1.00  0.00    -0.189 C  
HETATM   14  C   UNL     1      -8.343   9.967  64.748  1.00  0.00    -0.166 A  
HETATM   15  C   UNL     1     -10.087   9.678  66.637  1.00  0.00    -0.307 C  
HETATM   16  O   UNL     1      -8.407  11.464  66.636  1.00  0.00    -0.164 OA 
HETATM   17  H   UNL     1      -7.811  10.896  67.108  1.00  0.00     0.000 HD 
HETATM   18  C   UNL     1      -6.941  10.089  64.791  1.00  0.00    -0.137 A  
HETATM   19  C   UNL     1      -9.242   8.659  67.436  1.00  0.00    -0.158 C  
HETATM   20  C   UNL     1      -6.127   9.465  63.841  1.00  0.00    -0.091 A  
HETATM   21  C   UNL     1      -8.588   9.224  68.696  1.00  0.00    -0.127 C  
HETATM   22  C   UNL     1      -9.589   9.926  69.607  1.00  0.00    -0.249 C  
HETATM   23  C   UNL     1      -6.695   8.706  62.824  1.00  0.00    -0.091 A  
HETATM   24  C   UNL     1      -8.079   8.560  62.763  1.00  0.00    -0.176 A  
HETATM   25  C   UNL     1     -10.458  10.937  68.870  1.00  0.00    -0.228 C  
HETATM   26  C   UNL     1     -11.087  10.350  67.609  1.00  0.00    -0.361 C  
HETATM   27  C   UNL     1      -8.891   9.178  63.719  1.00  0.00    -0.095 A  
ENDBRANCH  10  11
ENDBRANCH   9  10
ENDBRANCH   8   9
ENDBRANCH   6   7
ENDBRANCH   3   6
ENDBRANCH   2   3
TORSDOF 7
ENDMDL
MODEL      103
REMARK 921   NORMALIZED FREE ENERGY PREDICTED BY IDOCK:   -4.32 KCAL/MOL
REMARK 922        TOTAL FREE ENERGY PREDICTED BY IDOCK:   -7.33 KCAL/MOL
REMARK 923 INTER-LIGAND FREE ENERGY PREDICTED BY IDOCK:   -6.02 KCAL/MOL
REMARK 924 INTRA-LIGAND FREE ENERGY PREDICTED BY IDOCK:   -1.31 KCAL/MOL
REMARK 927      BINDING AFFINITY PREDICTED BY RF-SCORE:    0.00 PKD
ROOT
HETATM    1  C   UNL     1     -11.545  15.429  71.978  1.00  0.00    -0.544 C  
HETATM    2  C   UNL     1     -12.480  15.277  70.780  1.00  0.00    -0.402 C  
ENDROOT
BRANCH   2   3
HETATM    3  N   UNL     1     -12.011  15.938  69.550  1.00  0.00    -0.321 NA 
BRANCH   3   4
HETATM    4  C   UNL     1     -10.764  16.701  69.720  1.00  0.00    -0.254 C  
HETATM    5  C   UNL     1      -9.998  17.052  68.450  1.00  0.00    -0.289 C  
ENDBRANCH   3   4
BRANCH   3   6
HETATM    6  C   UNL     1     -11.966  14.951  68.456  1.00  0.00    -0.241 C  
BRANCH   6   7
HETATM    7  C   UNL     1     -11.667  13.548  68.959  1.00  0.00    -0.370 C  
HETATM    8  C   UNL     1     -11.412  12.344  69.389  1.00  0.00    -0.336 C  
BRANCH   8   9
HETATM    9  C   UNL     1     -11.143  10.996  69.896  1.00  0.00    -0.205 C  
BRANCH   9  10
HETATM   10  O   UNL     1     -10.046  10.400  69.190  1.00  0.00    -0.200 OA 
BRANCH  10  11
HETATM   11  C   UNL     1     -10.318  10.051  67.894  1.00  0.00    -0.207 C  
HETATM   12  O   UNL     1     -11.214   9.285  67.556  1.00  0.00     0.039 OA 
HETATM   13  C   UNL     1      -9.290  10.736  66.923  1.00  0.00    -0.160 C  
HETATM   14  C   UNL     1     -10.068  11.632  65.937  1.00  0.00    -0.267 A  
HETATM   15  C   UNL     1      -8.464   9.618  66.190  1.00  0.00    -0.126 C  
HETATM   16  O   UNL     1      -8.391  11.573  67.667  1.00  0.00    -0.127 OA 
HETATM   17  H   UNL     1      -7.769  11.987  67.080  1.00  0.00     0.000 HD 
HETATM   18  C   UNL     1      -9.813  13.013  65.837  1.00  0.00    -0.243 A  
HETATM   19  C   UNL     1      -7.432  10.147  65.167  1.00  0.00    -0.141 C  
HETATM   20  C   UNL     1     -10.546  13.827  64.969  1.00  0.00    -0.402 A  
HETATM   21  C   UNL     1      -6.153  10.709  65.785  1.00  0.00    -0.134 C  
HETATM   22  C   UNL     1      -5.498   9.732  66.755  1.00  0.00    -0.045 C  
HETATM   23  C   UNL     1     -11.552  13.280  64.179  1.00  0.00    -0.451 A  
HETATM   24  C   UNL     1     -11.818  11.915  64.250  1.00  0.00    -0.367 A  
HETATM   25  C   UNL     1      -6.471   9.170  67.783  1.00  0.00    -0.056 C  
HETATM   26  C   UNL     1      -7.745   8.628  67.138  1.00  0.00    -0.096 C  
HETATM   27  C   UNL     1     -11.079  11.101  65.113  1.00  0.00    -0.079 A  
ENDBRANCH  10  11
ENDBRANCH   9  10
ENDBRANCH   8   9
ENDBRANCH   6   7
ENDBRANCH   3   6
ENDBRANCH   2   3
TORSDOF 7
ENDMDL
MODEL      104
REMARK 921   NORMALIZED FREE ENERGY PREDICTED BY IDOCK:   -4.28 KCAL/MOL
REMARK 922        TOTAL FREE ENERGY PREDICTED BY IDOCK:   -7.28 KCAL/MOL
REMARK 923 INTER-LIGAND FREE ENERGY PREDICTED BY IDOCK:   -6.18 KCAL/MOL
REMARK 924 INTRA-LIGAND FREE ENERGY PREDICTED BY IDOCK:   -1.10 KCAL/MOL
REMARK 927      BINDING AFFINITY PREDICTED BY RF-SCORE:    0.00 PKD
ROOT
HETATM    1  C   UNL     1     -13.493   9.452  72.136  1.00  0.00    -0.543 C  
HETATM    2  C   UNL     1     -12.330  10.161  71.445  1.00  0.00    -0.416 C  
ENDROOT
BRANCH   2   3
HETATM    3  N   UNL     1     -12.727  11.281  70.574  1.00  0.00    -0.219 NA 
BRANCH   3   4
HETATM    4  C   UNL     1     -12.490  12.609  71.164  1.00  0.00    -0.228 C  
HETATM    5  C   UNL     1     -13.520  13.103  72.174  1.00  0.00    -0.653 C  
ENDBRANCH   3   4
BRANCH   3   6
HETATM    6  C   UNL     1     -12.123  11.100  69.243  1.00  0.00    -0.308 C  
BRANCH   6   7
HETATM    7  C   UNL     1     -10.678  10.635  69.325  1.00  0.00    -0.275 C  
HETATM    8  C   UNL     1      -9.439  10.237  69.397  1.00  0.00    -0.225 C  
BRANCH   8   9
HETATM    9  C   UNL     1      -8.038   9.817  69.485  1.00  0.00    -0.141 C  
BRANCH   9  10
HETATM   10  O   UNL     1      -7.797   8.681  68.643  1.00  0.00    -0.103 OA 
BRANCH  10  11
HETATM   11  C   UNL     1      -7.775   7.477  69.295  1.00  0.00    -0.112 C  
HETATM   12  O   UNL     1      -6.906   7.135  70.090  1.00  0.00    -0.056 OA 
HETATM   13  C   UNL     1      -8.991   6.594  68.838  1.00  0.00    -0.130 C  
HETATM   14  C   UNL     1      -9.855   6.270  70.075  1.00  0.00    -0.200 A  
HETATM   15  C   UNL     1      -8.441   5.298  68.137  1.00  0.00    -0.096 C  
HETATM   16  O   UNL     1      -9.807   7.320  67.906  1.00  0.00    -0.137 OA 
HETATM   17  H   UNL     1     -10.542   6.787  67.630  1.00  0.00     0.000 HD 
HETATM   18  C   UNL     1     -11.214   6.630  70.140  1.00  0.00    -0.416 A  
HETATM   19  C   UNL     1      -9.532   4.308  67.667  1.00  0.00    -0.217 C  
HETATM   20  C   UNL     1     -11.983   6.367  71.277  1.00  0.00    -0.288 A  
HETATM   21  C   UNL     1     -10.250   4.718  66.382  1.00  0.00    -0.308 C  
HETATM   22  C   UNL     1      -9.281   5.030  65.248  1.00  0.00    -0.125 C  
HETATM   23  C   UNL     1     -11.410   5.737  72.378  1.00  0.00    -0.348 A  
HETATM   24  C   UNL     1     -10.070   5.360  72.336  1.00  0.00    -0.225 A  
HETATM   25  C   UNL     1      -8.176   5.996  65.657  1.00  0.00    -0.139 C  
HETATM   26  C   UNL     1      -7.485   5.569  66.950  1.00  0.00    -0.088 C  
HETATM   27  C   UNL     1      -9.305   5.617  71.195  1.00  0.00    -0.180 A  
ENDBRANCH  10  11
ENDBRANCH   9  10
ENDBRANCH   8   9
ENDBRANCH   6   7
ENDBRANCH   3   6
ENDBRANCH   2   3
TORSDOF 7
ENDMDL
MODEL      105
REMARK 921   NORMALIZED FREE ENERGY PREDICTED BY IDOCK:   -4.27 KCAL/MOL
REMARK 922        TOTAL FREE ENERGY PREDICTED BY IDOCK:   -7.26 KCAL/MOL
REMARK 923 INTER-LIGAND FREE ENERGY PREDICTED BY IDOCK:   -6.10 KCAL/MOL
REMARK 924 INTRA-LIGAND FREE ENERGY PREDICTED BY IDOCK:   -1.17 KCAL/MOL
REMARK 927      BINDING AFFINITY PREDICTED BY RF-SCORE:    0.00 PKD
ROOT
HETATM    1  C   UNL     1     -10.094  16.495  66.207  1.00  0.00    -0.347 C  
HETATM    2  C   UNL     1      -9.571  16.632  67.635  1.00  0.00    -0.239 C  
ENDROOT
BRANCH   2   3
HETATM    3  N   UNL     1      -8.160  17.047  67.732  1.00  0.00    -0.188 NA 
BRANCH   3   4
HETATM    4  C   UNL     1      -7.977  18.484  67.993  1.00  0.00    -0.276 C  
HETATM    5  C   UNL     1      -7.209  19.277  66.941  1.00  0.00    -0.217 C  
ENDBRANCH   3   4
BRANCH   3   6
HETATM    6  C   UNL     1      -7.462  16.170  68.689  1.00  0.00    -0.179 C  
BRANCH   6   7
HETATM    7  C   UNL     1      -7.210  14.783  68.121  1.00  0.00    -0.125 C  
HETATM    8  C   UNL     1      -6.995  13.593  67.633  1.00  0.00    -0.183 C  
BRANCH   8   9
HETATM    9  C   UNL     1      -6.766  12.245  67.110  1.00  0.00    -0.104 C  
BRANCH   9  10
HETATM   10  O   UNL     1      -7.500  11.275  67.871  1.00  0.00    -0.089 OA 
BRANCH  10  11
HETATM   11  C   UNL     1      -8.578  10.733  67.224  1.00  0.00    -0.130 C  
HETATM   12  O   UNL     1      -8.621  10.506  66.019  1.00  0.00    -0.148 OA 
HETATM   13  C   UNL     1      -9.753  10.494  68.239  1.00  0.00    -0.154 C  
HETATM   14  C   UNL     1     -10.094   8.989  68.249  1.00  0.00    -0.223 A  
HETATM   15  C   UNL     1     -10.978  11.381  67.814  1.00  0.00    -0.301 C  
HETATM   16  O   UNL     1      -9.343  10.863  69.565  1.00  0.00    -0.409 OA 
HETATM   17  H   UNL     1     -10.053  10.719  70.179  1.00  0.00     0.000 HD 
HETATM   18  C   UNL     1     -10.028   8.226  69.430  1.00  0.00    -0.188 A  
HETATM   19  C   UNL     1     -12.231  11.219  68.705  1.00  0.00    -0.101 C  
HETATM   20  C   UNL     1     -10.303   6.856  69.427  1.00  0.00    -0.220 A  
HETATM   21  C   UNL     1     -12.153  11.942  70.049  1.00  0.00    -0.366 C  
HETATM   22  C   UNL     1     -11.787  13.414  69.897  1.00  0.00    -0.385 C  
HETATM   23  C   UNL     1     -10.650   6.214  68.242  1.00  0.00    -0.324 A  
HETATM   24  C   UNL     1     -10.732   6.947  67.061  1.00  0.00    -0.432 A  
HETATM   25  C   UNL     1     -10.563  13.636  69.018  1.00  0.00    -0.147 C  
HETATM   26  C   UNL     1     -10.662  12.891  67.689  1.00  0.00    -0.237 C  
HETATM   27  C   UNL     1     -10.465   8.319  67.068  1.00  0.00    -0.384 A  
ENDBRANCH  10  11
ENDBRANCH   9  10
ENDBRANCH   8   9
ENDBRANCH   6   7
ENDBRANCH   3   6
ENDBRANCH   2   3
TORSDOF 7
ENDMDL
MODEL      106
REMARK 921   NORMALIZED FREE ENERGY PREDICTED BY IDOCK:   -4.26 KCAL/MOL
REMARK 922        TOTAL FREE ENERGY PREDICTED BY IDOCK:   -7.25 KCAL/MOL
REMARK 923 INTER-LIGAND FREE ENERGY PREDICTED BY IDOCK:   -6.35 KCAL/MOL
REMARK 924 INTRA-LIGAND FREE ENERGY PREDICTED BY IDOCK:   -0.90 KCAL/MOL
REMARK 927      BINDING AFFINITY PREDICTED BY RF-SCORE:    0.00 PKD
ROOT
HETATM    1  C   UNL     1     -14.310   7.547  71.604  1.00  0.00    -0.621 C  
HETATM    2  C   UNL     1     -13.162   8.376  72.176  1.00  0.00    -0.318 C  
ENDROOT
BRANCH   2   3
HETATM    3  N   UNL     1     -11.823   7.968  71.716  1.00  0.00    -0.281 NA 
BRANCH   3   4
HETATM    4  C   UNL     1     -10.805   7.955  72.779  1.00  0.00    -0.386 C  
HETATM    5  C   UNL     1      -9.413   8.447  72.398  1.00  0.00    -0.365 C  
ENDBRANCH   3   4
BRANCH   3   6
HETATM    6  C   UNL     1     -11.932   6.699  70.973  1.00  0.00    -0.359 C  
BRANCH   6   7
HETATM    7  C   UNL     1     -11.326   6.792  69.583  1.00  0.00    -0.326 C  
HETATM    8  C   UNL     1     -10.806   6.873  68.390  1.00  0.00    -0.238 C  
BRANCH   8   9
HETATM    9  C   UNL     1     -10.250   6.964  67.038  1.00  0.00    -0.248 C  
BRANCH   9  10
HETATM   10  O   UNL     1      -8.980   7.631  67.058  1.00  0.00    -0.126 OA 
BRANCH  10  11
HETATM   11  C   UNL     1      -8.865   8.672  66.176  1.00  0.00    -0.171 C  
HETATM   12  O   UNL     1      -8.864   8.550  64.955  1.00  0.00    -0.144 OA 
HETATM   13  C   UNL     1      -8.687  10.024  66.957  1.00  0.00    -0.132 C  
HETATM   14  C   UNL     1      -9.851  10.965  66.580  1.00  0.00    -0.237 A  
HETATM   15  C   UNL     1      -7.284  10.635  66.598  1.00  0.00    -0.128 C  
HETATM   16  O   UNL     1      -8.748   9.788  68.372  1.00  0.00    -0.118 OA 
HETATM   17  H   UNL     1      -8.641  10.605  68.844  1.00  0.00     0.000 HD 
HETATM   18  C   UNL     1     -10.725  11.482  67.554  1.00  0.00    -0.267 A  
HETATM   19  C   UNL     1      -6.985  11.997  67.267  1.00  0.00    -0.146 C  
HETATM   20  C   UNL     1     -11.799  12.305  67.204  1.00  0.00    -0.328 A  
HETATM   21  C   UNL     1      -6.587  11.907  68.740  1.00  0.00    -0.080 C  
HETATM   22  C   UNL     1      -5.443  10.928  68.975  1.00  0.00    -0.040 C  
HETATM   23  C   UNL     1     -12.026  12.629  65.871  1.00  0.00    -0.497 A  
HETATM   24  C   UNL     1     -11.170  12.140  64.887  1.00  0.00    -0.374 A  
HETATM   25  C   UNL     1      -5.678   9.569  68.328  1.00  0.00    -0.037 C  
HETATM   26  C   UNL     1      -6.087   9.690  66.862  1.00  0.00    -0.063 C  
HETATM   27  C   UNL     1     -10.091  11.324  65.240  1.00  0.00    -0.318 A  
ENDBRANCH  10  11
ENDBRANCH   9  10
ENDBRANCH   8   9
ENDBRANCH   6   7
ENDBRANCH   3   6
ENDBRANCH   2   3
TORSDOF 7
ENDMDL
MODEL      107
REMARK 921   NORMALIZED FREE ENERGY PREDICTED BY IDOCK:   -4.25 KCAL/MOL
REMARK 922        TOTAL FREE ENERGY PREDICTED BY IDOCK:   -7.24 KCAL/MOL
REMARK 923 INTER-LIGAND FREE ENERGY PREDICTED BY IDOCK:   -6.83 KCAL/MOL
REMARK 924 INTRA-LIGAND FREE ENERGY PREDICTED BY IDOCK:   -0.41 KCAL/MOL
REMARK 927      BINDING AFFINITY PREDICTED BY RF-SCORE:    0.00 PKD
ROOT
HETATM    1  C   UNL     1      -8.403   9.769  65.657  1.00  0.00    -0.138 C  
HETATM    2  C   UNL     1      -9.574   9.817  64.678  1.00  0.00    -0.174 C  
ENDROOT
BRANCH   2   3
HETATM    3  N   UNL     1      -9.502  10.908  63.690  1.00  0.00    -0.258 NA 
BRANCH   3   4
HETATM    4  C   UNL     1      -8.759  10.559  62.468  1.00  0.00    -0.244 C  
HETATM    5  C   UNL     1      -7.239  10.529  62.577  1.00  0.00    -0.138 C  
ENDBRANCH   3   4
BRANCH   3   6
HETATM    6  C   UNL     1     -10.859  11.426  63.441  1.00  0.00    -0.297 C  
BRANCH   6   7
HETATM    7  C   UNL     1     -11.461  12.080  64.673  1.00  0.00    -0.371 C  
HETATM    8  C   UNL     1     -11.978  12.643  65.729  1.00  0.00    -0.503 C  
BRANCH   8   9
HETATM    9  C   UNL     1     -12.531  13.283  66.925  1.00  0.00     0.015 C  
BRANCH   9  10
HETATM   10  O   UNL     1     -11.931  14.570  67.133  1.00  0.00    -0.406 OA 
BRANCH  10  11
HETATM   11  C   UNL     1     -10.822  14.563  67.936  1.00  0.00    -0.256 C  
HETATM   12  O   UNL     1      -9.848  13.837  67.767  1.00  0.00    -0.223 OA 
HETATM   13  C   UNL     1     -11.006  15.581  69.119  1.00  0.00    -0.259 C  
HETATM   14  C   UNL     1      -9.881  16.634  69.040  1.00  0.00    -0.267 A  
HETATM   15  C   UNL     1     -10.988  14.788  70.476  1.00  0.00    -0.059 C  
HETATM   16  O   UNL     1     -12.262  16.265  68.991  1.00  0.00    -0.233 OA 
HETATM   17  H   UNL     1     -12.373  16.880  69.706  1.00  0.00     0.000 HD 
HETATM   18  C   UNL     1     -10.164  18.008  68.917  1.00  0.00    -0.320 A  
HETATM   19  C   UNL     1     -11.120  15.671  71.739  1.00  0.00    -0.182 C  
HETATM   20  C   UNL     1      -9.141  18.954  68.809  1.00  0.00    -0.352 A  
HETATM   21  C   UNL     1     -12.538  16.162  72.025  1.00  0.00    -0.353 C  
HETATM   22  C   UNL     1     -13.553  15.024  72.055  1.00  0.00    -0.522 C  
HETATM   23  C   UNL     1      -7.810  18.550  68.820  1.00  0.00    -0.301 A  
HETATM   24  C   UNL     1      -7.501  17.198  68.951  1.00  0.00    -0.241 A  
HETATM   25  C   UNL     1     -13.462  14.114  70.837  1.00  0.00    -0.148 C  
HETATM   26  C   UNL     1     -12.033  13.650  70.566  1.00  0.00    -0.353 C  
HETATM   27  C   UNL     1      -8.525  16.254  69.067  1.00  0.00    -0.244 A  
ENDBRANCH  10  11
ENDBRANCH   9  10
ENDBRANCH   8   9
ENDBRANCH   6   7
ENDBRANCH   3   6
ENDBRANCH   2   3
TORSDOF 7
ENDMDL
MODEL      108
REMARK 921   NORMALIZED FREE ENERGY PREDICTED BY IDOCK:   -4.25 KCAL/MOL
REMARK 922        TOTAL FREE ENERGY PREDICTED BY IDOCK:   -7.24 KCAL/MOL
REMARK 923 INTER-LIGAND FREE ENERGY PREDICTED BY IDOCK:   -5.69 KCAL/MOL
REMARK 924 INTRA-LIGAND FREE ENERGY PREDICTED BY IDOCK:   -1.55 KCAL/MOL
REMARK 927      BINDING AFFINITY PREDICTED BY RF-SCORE:    0.00 PKD
ROOT
HETATM    1  C   UNL     1      -7.725  17.864  67.228  1.00  0.00    -0.218 C  
HETATM    2  C   UNL     1      -8.397  17.026  66.141  1.00  0.00    -0.241 C  
ENDROOT
BRANCH   2   3
HETATM    3  N   UNL     1      -9.644  16.364  66.562  1.00  0.00    -0.253 NA 
BRANCH   3   4
HETATM    4  C   UNL     1     -10.321  17.028  67.689  1.00  0.00    -0.332 C  
HETATM    5  C   UNL     1     -11.224  16.155  68.553  1.00  0.00    -0.365 C  
ENDBRANCH   3   4
BRANCH   3   6
HETATM    6  C   UNL     1     -10.504  16.155  65.384  1.00  0.00    -0.373 C  
BRANCH   6   7
HETATM    7  C   UNL     1     -10.488  14.712  64.908  1.00  0.00    -0.415 C  
HETATM    8  C   UNL     1     -10.476  13.474  64.501  1.00  0.00    -0.426 C  
BRANCH   8   9
HETATM    9  C   UNL     1     -10.452  12.074  64.070  1.00  0.00    -0.372 C  
BRANCH   9  10
HETATM   10  O   UNL     1     -10.311  11.200  65.199  1.00  0.00    -0.269 OA 
BRANCH  10  11
HETATM   11  C   UNL     1      -9.036  11.090  65.684  1.00  0.00    -0.199 C  
HETATM   12  O   UNL     1      -8.038  10.945  64.986  1.00  0.00    -0.033 OA 
HETATM   13  C   UNL     1      -9.051  11.129  67.255  1.00  0.00    -0.150 C  
HETATM   14  C   UNL     1      -8.203  12.330  67.724  1.00  0.00    -0.161 A  
HETATM   15  C   UNL     1      -8.502   9.761  67.801  1.00  0.00    -0.121 C  
HETATM   16  O   UNL     1     -10.392  11.321  67.731  1.00  0.00    -0.175 OA 
HETATM   17  H   UNL     1     -10.401  11.344  68.681  1.00  0.00     0.000 HD 
HETATM   18  C   UNL     1      -8.750  13.351  68.524  1.00  0.00    -0.071 A  
HETATM   19  C   UNL     1      -8.422   9.669  69.342  1.00  0.00    -0.156 C  
HETATM   20  C   UNL     1      -7.988  14.455  68.916  1.00  0.00    -0.109 A  
HETATM   21  C   UNL     1      -9.762   9.427  70.036  1.00  0.00    -0.255 C  
HETATM   22  C   UNL     1     -10.505   8.226  69.462  1.00  0.00    -0.228 C  
HETATM   23  C   UNL     1      -6.660  14.565  68.517  1.00  0.00    -0.093 A  
HETATM   24  C   UNL     1      -6.090  13.564  67.734  1.00  0.00    -0.148 A  
HETATM   25  C   UNL     1     -10.607   8.258  67.943  1.00  0.00    -0.212 C  
HETATM   26  C   UNL     1      -9.257   8.515  67.278  1.00  0.00    -0.168 C  
HETATM   27  C   UNL     1      -6.852  12.457  67.350  1.00  0.00    -0.147 A  
ENDBRANCH  10  11
ENDBRANCH   9  10
ENDBRANCH   8   9
ENDBRANCH   6   7
ENDBRANCH   3   6
ENDBRANCH   2   3
TORSDOF 7
ENDMDL
MODEL      109
REMARK 921   NORMALIZED FREE ENERGY PREDICTED BY IDOCK:   -4.25 KCAL/MOL
REMARK 922        TOTAL FREE ENERGY PREDICTED BY IDOCK:   -7.23 KCAL/MOL
REMARK 923 INTER-LIGAND FREE ENERGY PREDICTED BY IDOCK:   -6.37 KCAL/MOL
REMARK 924 INTRA-LIGAND FREE ENERGY PREDICTED BY IDOCK:   -0.86 KCAL/MOL
REMARK 927      BINDING AFFINITY PREDICTED BY RF-SCORE:    0.00 PKD
ROOT
HETATM    1  C   UNL     1      -6.703   5.227  71.530  1.00  0.00    -0.051 C  
HETATM    2  C   UNL     1      -7.833   5.325  72.552  1.00  0.00    -0.102 C  
ENDROOT
BRANCH   2   3
HETATM    3  N   UNL     1      -8.807   6.398  72.287  1.00  0.00    -0.135 NA 
BRANCH   3   4
HETATM    4  C   UNL     1      -9.270   7.097  73.498  1.00  0.00    -0.181 C  
HETATM    5  C   UNL     1     -10.778   7.181  73.704  1.00  0.00    -0.302 C  
ENDBRANCH   3   4
BRANCH   3   6
HETATM    6  C   UNL     1      -8.272   7.293  71.246  1.00  0.00    -0.106 C  
BRANCH   6   7
HETATM    7  C   UNL     1      -9.227   8.428  70.916  1.00  0.00    -0.192 C  
HETATM    8  C   UNL     1     -10.045   9.403  70.633  1.00  0.00    -0.356 C  
BRANCH   8   9
HETATM    9  C   UNL     1     -10.972  10.500  70.344  1.00  0.00    -0.178 C  
BRANCH   9  10
HETATM   10  O   UNL     1     -10.456  11.334  69.297  1.00  0.00    -0.197 OA 
BRANCH  10  11
HETATM   11  C   UNL     1     -11.170  11.296  68.129  1.00  0.00    -0.286 C  
HETATM   12  O   UNL     1     -12.379  11.102  68.060  1.00  0.00    -0.393 OA 
HETATM   13  C   UNL     1     -10.207  11.487  66.902  1.00  0.00    -0.217 C  
HETATM   14  C   UNL     1     -10.649  12.744  66.122  1.00  0.00    -0.286 A  
HETATM   15  C   UNL     1     -10.249  10.189  66.017  1.00  0.00    -0.288 C  
HETATM   16  O   UNL     1      -8.862  11.700  67.358  1.00  0.00    -0.152 OA 
HETATM   17  H   UNL     1      -8.280  11.816  66.617  1.00  0.00     0.000 HD 
HETATM   18  C   UNL     1      -9.775  13.828  65.914  1.00  0.00    -0.217 A  
HETATM   19  C   UNL     1      -9.374  10.249  64.744  1.00  0.00    -0.313 C  
HETATM   20  C   UNL     1     -10.192  14.978  65.239  1.00  0.00    -0.409 A  
HETATM   21  C   UNL     1      -7.879  10.051  64.990  1.00  0.00    -0.137 C  
HETATM   22  C   UNL     1      -7.583   8.787  65.788  1.00  0.00    -0.086 C  
HETATM   23  C   UNL     1     -11.493  15.073  64.756  1.00  0.00    -0.403 A  
HETATM   24  C   UNL     1     -12.375  14.011  64.939  1.00  0.00    -0.447 A  
HETATM   25  C   UNL     1      -8.426   8.669  67.052  1.00  0.00    -0.110 C  
HETATM   26  C   UNL     1      -9.912   8.884  66.778  1.00  0.00    -0.338 C  
HETATM   27  C   UNL     1     -11.954  12.858  65.607  1.00  0.00    -0.490 A  
ENDBRANCH  10  11
ENDBRANCH   9  10
ENDBRANCH   8   9
ENDBRANCH   6   7
ENDBRANCH   3   6
ENDBRANCH   2   3
TORSDOF 7
ENDMDL
MODEL      110
REMARK 921   NORMALIZED FREE ENERGY PREDICTED BY IDOCK:   -4.25 KCAL/MOL
REMARK 922        TOTAL FREE ENERGY PREDICTED BY IDOCK:   -7.23 KCAL/MOL
REMARK 923 INTER-LIGAND FREE ENERGY PREDICTED BY IDOCK:   -6.27 KCAL/MOL
REMARK 924 INTRA-LIGAND FREE ENERGY PREDICTED BY IDOCK:   -0.96 KCAL/MOL
REMARK 927      BINDING AFFINITY PREDICTED BY RF-SCORE:    0.00 PKD
ROOT
HETATM    1  C   UNL     1     -10.413   5.298  71.025  1.00  0.00    -0.274 C  
HETATM    2  C   UNL     1     -10.042   5.113  69.556  1.00  0.00    -0.246 C  
ENDROOT
BRANCH   2   3
HETATM    3  N   UNL     1      -8.593   5.090  69.289  1.00  0.00    -0.088 NA 
BRANCH   3   4
HETATM    4  C   UNL     1      -8.053   3.743  69.041  1.00  0.00    -0.057 C  
HETATM    5  C   UNL     1      -8.949   2.778  68.272  1.00  0.00    -0.194 C  
ENDBRANCH   3   4
BRANCH   3   6
HETATM    6  C   UNL     1      -8.278   6.066  68.231  1.00  0.00    -0.110 C  
BRANCH   6   7
HETATM    7  C   UNL     1      -8.631   7.488  68.635  1.00  0.00    -0.129 C  
HETATM    8  C   UNL     1      -8.932   8.708  68.982  1.00  0.00    -0.142 C  
BRANCH   8   9
HETATM    9  C   UNL     1      -9.245  10.081  69.384  1.00  0.00    -0.216 C  
BRANCH   9  10
HETATM   10  O   UNL     1      -9.138  10.973  68.265  1.00  0.00    -0.145 OA 
BRANCH  10  11
HETATM   11  C   UNL     1     -10.204  10.947  67.406  1.00  0.00    -0.201 C  
HETATM   12  O   UNL     1     -11.336  10.591  67.717  1.00  0.00    -0.367 OA 
HETATM   13  C   UNL     1      -9.751  11.391  65.969  1.00  0.00    -0.223 C  
HETATM   14  C   UNL     1     -10.559  12.642  65.564  1.00  0.00    -0.301 A  
HETATM   15  C   UNL     1      -9.968  10.192  64.976  1.00  0.00    -0.375 C  
HETATM   16  O   UNL     1      -8.360  11.747  65.978  1.00  0.00    -0.382 OA 
HETATM   17  H   UNL     1      -8.085  12.016  65.109  1.00  0.00     0.000 HD 
HETATM   18  C   UNL     1      -9.925  13.854  65.231  1.00  0.00    -0.266 A  
HETATM   19  C   UNL     1      -9.599  10.499  63.506  1.00  0.00    -0.374 C  
HETATM   20  C   UNL     1     -10.663  14.993  64.900  1.00  0.00    -0.420 A  
HETATM   21  C   UNL     1      -8.100  10.492  63.212  1.00  0.00    -0.087 C  
HETATM   22  C   UNL     1      -7.421   9.211  63.681  1.00  0.00    -0.106 C  
HETATM   23  C   UNL     1     -12.053  14.949  64.896  1.00  0.00    -0.275 A  
HETATM   24  C   UNL     1     -12.707  13.761  65.211  1.00  0.00    -0.481 A  
HETATM   25  C   UNL     1      -7.756   8.852  65.123  1.00  0.00    -0.102 C  
HETATM   26  C   UNL     1      -9.259   8.881  65.392  1.00  0.00    -0.202 C  
HETATM   27  C   UNL     1     -11.967  12.619  65.533  1.00  0.00    -0.509 A  
ENDBRANCH  10  11
ENDBRANCH   9  10
ENDBRANCH   8   9
ENDBRANCH   6   7
ENDBRANCH   3   6
ENDBRANCH   2   3
TORSDOF 7
ENDMDL
MODEL      111
REMARK 921   NORMALIZED FREE ENERGY PREDICTED BY IDOCK:   -4.24 KCAL/MOL
REMARK 922        TOTAL FREE ENERGY PREDICTED BY IDOCK:   -7.22 KCAL/MOL
REMARK 923 INTER-LIGAND FREE ENERGY PREDICTED BY IDOCK:   -6.15 KCAL/MOL
REMARK 924 INTRA-LIGAND FREE ENERGY PREDICTED BY IDOCK:   -1.06 KCAL/MOL
REMARK 927      BINDING AFFINITY PREDICTED BY RF-SCORE:    0.00 PKD
ROOT
HETATM    1  C   UNL     1      -5.722  20.217  71.496  1.00  0.00    -0.397 C  
HETATM    2  C   UNL     1      -6.187  20.035  70.052  1.00  0.00    -0.359 C  
ENDROOT
BRANCH   2   3
HETATM    3  N   UNL     1      -6.300  18.632  69.617  1.00  0.00    -0.252 NA 
BRANCH   3   4
HETATM    4  C   UNL     1      -6.166  18.445  68.163  1.00  0.00    -0.187 C  
HETATM    5  C   UNL     1      -7.163  19.190  67.283  1.00  0.00    -0.231 C  
ENDBRANCH   3   4
BRANCH   3   6
HETATM    6  C   UNL     1      -5.383  17.801  70.417  1.00  0.00    -0.263 C  
BRANCH   6   7
HETATM    7  C   UNL     1      -5.429  16.338  70.009  1.00  0.00    -0.169 C  
HETATM    8  C   UNL     1      -5.468  15.083  69.659  1.00  0.00    -0.096 C  
BRANCH   8   9
HETATM    9  C   UNL     1      -5.539  13.677  69.253  1.00  0.00    -0.081 C  
BRANCH   9  10
HETATM   10  O   UNL     1      -6.904  13.252  69.135  1.00  0.00    -0.105 OA 
BRANCH  10  11
HETATM   11  C   UNL     1      -7.280  12.869  67.875  1.00  0.00    -0.125 C  
HETATM   12  O   UNL     1      -6.498  12.550  66.986  1.00  0.00    -0.148 OA 
HETATM   13  C   UNL     1      -8.843  12.945  67.732  1.00  0.00    -0.188 C  
HETATM   14  C   UNL     1      -9.372  11.538  67.384  1.00  0.00    -0.168 A  
HETATM   15  C   UNL     1      -9.199  14.007  66.630  1.00  0.00    -0.262 C  
HETATM   16  O   UNL     1      -9.434  13.344  68.978  1.00  0.00    -0.390 OA 
HETATM   17  H   UNL     1     -10.379  13.390  68.891  1.00  0.00     0.000 HD 
HETATM   18  C   UNL     1     -10.314  10.882  68.199  1.00  0.00    -0.202 A  
HETATM   19  C   UNL     1     -10.712  14.162  66.350  1.00  0.00    -0.288 C  
HETATM   20  C   UNL     1     -10.763   9.593  67.899  1.00  0.00    -0.302 A  
HETATM   21  C   UNL     1     -11.472  14.971  67.399  1.00  0.00    -0.326 C  
HETATM   22  C   UNL     1     -10.832  16.329  67.664  1.00  0.00    -0.293 C  
HETATM   23  C   UNL     1     -10.281   8.928  66.776  1.00  0.00    -0.348 A  
HETATM   24  C   UNL     1      -9.357   9.558  65.946  1.00  0.00    -0.285 A  
HETATM   25  C   UNL     1      -9.336  16.239  67.936  1.00  0.00    -0.209 C  
HETATM   26  C   UNL     1      -8.604  15.414  66.881  1.00  0.00    -0.291 C  
HETATM   27  C   UNL     1      -8.915  10.850  66.243  1.00  0.00    -0.188 A  
ENDBRANCH  10  11
ENDBRANCH   9  10
ENDBRANCH   8   9
ENDBRANCH   6   7
ENDBRANCH   3   6
ENDBRANCH   2   3
TORSDOF 7
ENDMDL
MODEL      112
REMARK 921   NORMALIZED FREE ENERGY PREDICTED BY IDOCK:   -4.23 KCAL/MOL
REMARK 922        TOTAL FREE ENERGY PREDICTED BY IDOCK:   -7.20 KCAL/MOL
REMARK 923 INTER-LIGAND FREE ENERGY PREDICTED BY IDOCK:   -6.30 KCAL/MOL
REMARK 924 INTRA-LIGAND FREE ENERGY PREDICTED BY IDOCK:   -0.89 KCAL/MOL
REMARK 927      BINDING AFFINITY PREDICTED BY RF-SCORE:    0.00 PKD
ROOT
HETATM    1  C   UNL     1      -9.867   3.473  73.801  1.00  0.00    -0.153 C  
HETATM    2  C   UNL     1     -10.432   4.542  72.868  1.00  0.00    -0.190 C  
ENDROOT
BRANCH   2   3
HETATM    3  N   UNL     1     -11.079   5.674  73.555  1.00  0.00    -0.205 NA 
BRANCH   3   4
HETATM    4  C   UNL     1     -10.141   6.553  74.271  1.00  0.00    -0.356 C  
HETATM    5  C   UNL     1      -9.540   7.706  73.474  1.00  0.00    -0.348 C  
ENDBRANCH   3   4
BRANCH   3   6
HETATM    6  C   UNL     1     -11.958   6.380  72.606  1.00  0.00     0.022 C  
BRANCH   6   7
HETATM    7  C   UNL     1     -11.515   6.193  71.164  1.00  0.00    -0.314 C  
HETATM    8  C   UNL     1     -11.135   6.033  69.927  1.00  0.00    -0.469 C  
BRANCH   8   9
HETATM    9  C   UNL     1     -10.679   5.857  68.546  1.00  0.00    -0.255 C  
BRANCH   9  10
HETATM   10  O   UNL     1     -10.834   7.075  67.804  1.00  0.00    -0.228 OA 
BRANCH  10  11
HETATM   11  C   UNL     1      -9.701   7.839  67.712  1.00  0.00    -0.153 C  
HETATM   12  O   UNL     1      -8.561   7.408  67.849  1.00  0.00    -0.124 OA 
HETATM   13  C   UNL     1     -10.083   9.341  67.456  1.00  0.00    -0.218 C  
HETATM   14  C   UNL     1      -9.452   9.787  66.120  1.00  0.00    -0.261 A  
HETATM   15  C   UNL     1      -9.583  10.205  68.670  1.00  0.00    -0.165 C  
HETATM   16  O   UNL     1     -11.508   9.476  67.340  1.00  0.00    -0.211 OA 
HETATM   17  H   UNL     1     -11.739  10.384  67.185  1.00  0.00     0.000 HD 
HETATM   18  C   UNL     1     -10.239  10.275  65.060  1.00  0.00    -0.277 A  
HETATM   19  C   UNL     1      -9.856  11.721  68.538  1.00  0.00    -0.192 C  
HETATM   20  C   UNL     1      -9.667  10.644  63.839  1.00  0.00    -0.378 A  
HETATM   21  C   UNL     1     -11.300  12.134  68.819  1.00  0.00    -0.339 C  
HETATM   22  C   UNL     1     -11.805  11.610  70.159  1.00  0.00    -0.428 C  
HETATM   23  C   UNL     1      -8.294  10.532  63.649  1.00  0.00    -0.108 A  
HETATM   24  C   UNL     1      -7.490  10.063  64.684  1.00  0.00    -0.143 A  
HETATM   25  C   UNL     1     -11.553  10.120  70.349  1.00  0.00    -0.396 C  
HETATM   26  C   UNL     1     -10.107   9.734  70.049  1.00  0.00    -0.301 C  
HETATM   27  C   UNL     1      -8.063   9.702  65.907  1.00  0.00    -0.112 A  
ENDBRANCH  10  11
ENDBRANCH   9  10
ENDBRANCH   8   9
ENDBRANCH   6   7
ENDBRANCH   3   6
ENDBRANCH   2   3
TORSDOF 7
ENDMDL
MODEL      113
REMARK 921   NORMALIZED FREE ENERGY PREDICTED BY IDOCK:   -4.21 KCAL/MOL
REMARK 922        TOTAL FREE ENERGY PREDICTED BY IDOCK:   -7.17 KCAL/MOL
REMARK 923 INTER-LIGAND FREE ENERGY PREDICTED BY IDOCK:   -5.91 KCAL/MOL
REMARK 924 INTRA-LIGAND FREE ENERGY PREDICTED BY IDOCK:   -1.27 KCAL/MOL
REMARK 927      BINDING AFFINITY PREDICTED BY RF-SCORE:    0.00 PKD
ROOT
HETATM    1  C   UNL     1      -9.416   3.089  67.375  1.00  0.00    -0.155 C  
HETATM    2  C   UNL     1      -9.785   4.442  66.771  1.00  0.00    -0.215 C  
ENDROOT
BRANCH   2   3
HETATM    3  N   UNL     1      -9.521   5.597  67.647  1.00  0.00    -0.113 NA 
BRANCH   3   4
HETATM    4  C   UNL     1      -8.398   6.438  67.204  1.00  0.00    -0.112 C  
HETATM    5  C   UNL     1      -7.016   5.794  67.212  1.00  0.00    -0.065 C  
ENDBRANCH   3   4
BRANCH   3   6
HETATM    6  C   UNL     1     -10.776   6.338  67.864  1.00  0.00    -0.305 C  
BRANCH   6   7
HETATM    7  C   UNL     1     -10.554   7.641  68.612  1.00  0.00    -0.161 C  
HETATM    8  C   UNL     1     -10.363   8.760  69.254  1.00  0.00    -0.221 C  
BRANCH   8   9
HETATM    9  C   UNL     1     -10.174  10.027  69.964  1.00  0.00    -0.255 C  
BRANCH   9  10
HETATM   10  O   UNL     1     -10.515  11.136  69.119  1.00  0.00    -0.213 OA 
BRANCH  10  11
HETATM   11  C   UNL     1      -9.503  11.569  68.304  1.00  0.00    -0.189 C  
HETATM   12  O   UNL     1      -8.403  11.938  68.702  1.00  0.00    -0.136 OA 
HETATM   13  C   UNL     1      -9.978  11.566  66.807  1.00  0.00    -0.208 C  
HETATM   14  C   UNL     1      -9.058  10.624  66.002  1.00  0.00    -0.201 A  
HETATM   15  C   UNL     1      -9.945  13.041  66.262  1.00  0.00    -0.283 C  
HETATM   16  O   UNL     1     -11.318  11.061  66.714  1.00  0.00    -0.317 OA 
HETATM   17  H   UNL     1     -11.606  11.060  65.809  1.00  0.00     0.000 HD 
HETATM   18  C   UNL     1      -9.571   9.520  65.295  1.00  0.00    -0.314 A  
HETATM   19  C   UNL     1     -10.352  13.188  64.778  1.00  0.00    -0.369 C  
HETATM   20  C   UNL     1      -8.730   8.648  64.598  1.00  0.00    -0.065 A  
HETATM   21  C   UNL     1     -11.856  13.109  64.521  1.00  0.00    -0.427 C  
HETATM   22  C   UNL     1     -12.647  14.075  65.395  1.00  0.00    -0.529 C  
HETATM   23  C   UNL     1      -7.355   8.859  64.591  1.00  0.00    -0.101 A  
HETATM   24  C   UNL     1      -6.821   9.949  65.273  1.00  0.00    -0.114 A  
HETATM   25  C   UNL     1     -12.280  13.981  66.870  1.00  0.00    -0.415 C  
HETATM   26  C   UNL     1     -10.772  14.049  67.096  1.00  0.00    -0.283 C  
HETATM   27  C   UNL     1      -7.665  10.825  65.963  1.00  0.00    -0.139 A  
ENDBRANCH  10  11
ENDBRANCH   9  10
ENDBRANCH   8   9
ENDBRANCH   6   7
ENDBRANCH   3   6
ENDBRANCH   2   3
TORSDOF 7
ENDMDL
MODEL      114
REMARK 921   NORMALIZED FREE ENERGY PREDICTED BY IDOCK:   -4.20 KCAL/MOL
REMARK 922        TOTAL FREE ENERGY PREDICTED BY IDOCK:   -7.16 KCAL/MOL
REMARK 923 INTER-LIGAND FREE ENERGY PREDICTED BY IDOCK:   -6.58 KCAL/MOL
REMARK 924 INTRA-LIGAND FREE ENERGY PREDICTED BY IDOCK:   -0.58 KCAL/MOL
REMARK 927      BINDING AFFINITY PREDICTED BY RF-SCORE:    0.00 PKD
ROOT
HETATM    1  C   UNL     1      -9.416  10.608  64.795  1.00  0.00    -0.306 C  
HETATM    2  C   UNL     1     -10.400  10.557  65.962  1.00  0.00    -0.211 C  
ENDROOT
BRANCH   2   3
HETATM    3  N   UNL     1      -9.868  11.074  67.234  1.00  0.00    -0.176 NA 
BRANCH   3   4
HETATM    4  C   UNL     1     -10.358  10.356  68.422  1.00  0.00    -0.174 C  
HETATM    5  C   UNL     1     -11.225  11.151  69.392  1.00  0.00    -0.334 C  
ENDBRANCH   3   4
BRANCH   3   6
HETATM    6  C   UNL     1      -8.400  11.159  67.148  1.00  0.00    -0.136 C  
BRANCH   6   7
HETATM    7  C   UNL     1      -7.883  12.552  67.465  1.00  0.00    -0.168 C  
HETATM    8  C   UNL     1      -7.441  13.748  67.737  1.00  0.00    -0.168 C  
BRANCH   8   9
HETATM    9  C   UNL     1      -6.960  15.102  68.021  1.00  0.00    -0.133 C  
BRANCH   9  10
HETATM   10  O   UNL     1      -7.407  16.019  67.012  1.00  0.00    -0.202 OA 
BRANCH  10  11
HETATM   11  C   UNL     1      -8.748  15.965  66.741  1.00  0.00    -0.269 C  
HETATM   12  O   UNL     1      -9.247  15.299  65.840  1.00  0.00    -0.315 OA 
HETATM   13  C   UNL     1      -9.535  16.913  67.717  1.00  0.00    -0.237 C  
HETATM   14  C   UNL     1     -10.541  16.063  68.521  1.00  0.00    -0.268 A  
HETATM   15  C   UNL     1     -10.241  18.035  66.874  1.00  0.00    -0.366 C  
HETATM   16  O   UNL     1      -8.629  17.524  68.648  1.00  0.00    -0.279 OA 
HETATM   17  H   UNL     1      -9.104  18.097  69.238  1.00  0.00     0.000 HD 
HETATM   18  C   UNL     1     -10.510  16.017  69.928  1.00  0.00    -0.287 A  
HETATM   19  C   UNL     1     -11.091  19.025  67.703  1.00  0.00    -0.153 C  
HETATM   20  C   UNL     1     -11.400  15.218  70.650  1.00  0.00    -0.345 A  
HETATM   21  C   UNL     1     -10.282  20.079  68.459  1.00  0.00    -0.484 C  
HETATM   22  C   UNL     1      -9.313  20.829  67.552  1.00  0.00    -0.376 C  
HETATM   23  C   UNL     1     -12.343  14.443  69.982  1.00  0.00    -0.391 A  
HETATM   24  C   UNL     1     -12.404  14.477  68.592  1.00  0.00    -0.040 A  
HETATM   25  C   UNL     1      -8.454  19.903  66.702  1.00  0.00    -0.381 C  
HETATM   26  C   UNL     1      -9.286  18.852  65.970  1.00  0.00    -0.063 C  
HETATM   27  C   UNL     1     -11.518  15.284  67.871  1.00  0.00    -0.325 A  
ENDBRANCH  10  11
ENDBRANCH   9  10
ENDBRANCH   8   9
ENDBRANCH   6   7
ENDBRANCH   3   6
ENDBRANCH   2   3
TORSDOF 7
ENDMDL
MODEL      115
REMARK 921   NORMALIZED FREE ENERGY PREDICTED BY IDOCK:   -4.19 KCAL/MOL
REMARK 922        TOTAL FREE ENERGY PREDICTED BY IDOCK:   -7.15 KCAL/MOL
REMARK 923 INTER-LIGAND FREE ENERGY PREDICTED BY IDOCK:   -6.74 KCAL/MOL
REMARK 924 INTRA-LIGAND FREE ENERGY PREDICTED BY IDOCK:   -0.41 KCAL/MOL
REMARK 927      BINDING AFFINITY PREDICTED BY RF-SCORE:    0.00 PKD
ROOT
HETATM    1  C   UNL     1      -7.350   7.341  74.488  1.00  0.00    -0.133 C  
HETATM    2  C   UNL     1      -8.340   8.000  73.530  1.00  0.00    -0.233 C  
ENDROOT
BRANCH   2   3
HETATM    3  N   UNL     1      -9.268   7.065  72.870  1.00  0.00    -0.137 NA 
BRANCH   3   4
HETATM    4  C   UNL     1     -10.689   7.398  73.064  1.00  0.00    -0.364 C  
HETATM    5  C   UNL     1     -11.689   6.668  72.174  1.00  0.00    -0.342 C  
ENDBRANCH   3   4
BRANCH   3   6
HETATM    6  C   UNL     1      -8.875   6.908  71.458  1.00  0.00    -0.132 C  
BRANCH   6   7
HETATM    7  C   UNL     1      -8.576   8.241  70.792  1.00  0.00    -0.147 C  
HETATM    8  C   UNL     1      -8.320   9.384  70.220  1.00  0.00    -0.217 C  
BRANCH   8   9
HETATM    9  C   UNL     1      -8.042  10.658  69.553  1.00  0.00    -0.043 C  
BRANCH   9  10
HETATM   10  O   UNL     1      -8.807  10.773  68.344  1.00  0.00    -0.133 OA 
BRANCH  10  11
HETATM   11  C   UNL     1     -10.107  11.166  68.522  1.00  0.00    -0.201 C  
HETATM   12  O   UNL     1     -10.924  10.566  69.212  1.00  0.00    -0.212 OA 
HETATM   13  C   UNL     1     -10.399  12.459  67.679  1.00  0.00    -0.216 C  
HETATM   14  C   UNL     1     -10.834  13.584  68.642  1.00  0.00    -0.281 A  
HETATM   15  C   UNL     1     -11.504  12.128  66.610  1.00  0.00    -0.426 C  
HETATM   16  O   UNL     1      -9.207  12.889  67.004  1.00  0.00    -0.212 OA 
HETATM   17  H   UNL     1      -9.384  13.671  66.495  1.00  0.00     0.000 HD 
HETATM   18  C   UNL     1     -10.131  14.802  68.717  1.00  0.00    -0.237 A  
HETATM   19  C   UNL     1     -11.925  13.326  65.728  1.00  0.00    -0.463 C  
HETATM   20  C   UNL     1     -10.506  15.803  69.617  1.00  0.00    -0.289 A  
HETATM   21  C   UNL     1     -10.934  13.677  64.619  1.00  0.00    -0.403 C  
HETATM   22  C   UNL     1     -10.574  12.473  63.756  1.00  0.00    -0.471 C  
HETATM   23  C   UNL     1     -11.593  15.611  70.463  1.00  0.00    -0.383 A  
HETATM   24  C   UNL     1     -12.313  14.421  70.402  1.00  0.00    -0.406 A  
HETATM   25  C   UNL     1     -10.160  11.257  64.575  1.00  0.00    -0.348 C  
HETATM   26  C   UNL     1     -11.160  10.937  65.683  1.00  0.00     0.068 C  
HETATM   27  C   UNL     1     -11.941  13.423  69.496  1.00  0.00    -0.377 A  
ENDBRANCH  10  11
ENDBRANCH   9  10
ENDBRANCH   8   9
ENDBRANCH   6   7
ENDBRANCH   3   6
ENDBRANCH   2   3
TORSDOF 7
ENDMDL
MODEL      116
REMARK 921   NORMALIZED FREE ENERGY PREDICTED BY IDOCK:   -4.19 KCAL/MOL
REMARK 922        TOTAL FREE ENERGY PREDICTED BY IDOCK:   -7.15 KCAL/MOL
REMARK 923 INTER-LIGAND FREE ENERGY PREDICTED BY IDOCK:   -6.15 KCAL/MOL
REMARK 924 INTRA-LIGAND FREE ENERGY PREDICTED BY IDOCK:   -1.00 KCAL/MOL
REMARK 927      BINDING AFFINITY PREDICTED BY RF-SCORE:    0.00 PKD
ROOT
HETATM    1  C   UNL     1     -12.621  12.214  63.596  1.00  0.00    -0.616 C  
HETATM    2  C   UNL     1     -12.502  13.297  64.666  1.00  0.00    -0.349 C  
ENDROOT
BRANCH   2   3
HETATM    3  N   UNL     1     -11.492  13.024  65.704  1.00  0.00    -0.321 NA 
BRANCH   3   4
HETATM    4  C   UNL     1     -12.026  13.040  67.076  1.00  0.00    -0.347 C  
HETATM    5  C   UNL     1     -11.856  14.336  67.861  1.00  0.00    -0.393 C  
ENDBRANCH   3   4
BRANCH   3   6
HETATM    6  C   UNL     1     -10.762  11.792  65.358  1.00  0.00    -0.283 C  
BRANCH   6   7
HETATM    7  C   UNL     1      -9.680  11.460  66.372  1.00  0.00    -0.231 C  
HETATM    8  C   UNL     1      -8.753  11.174  67.242  1.00  0.00    -0.139 C  
BRANCH   8   9
HETATM    9  C   UNL     1      -7.723  10.872  68.240  1.00  0.00    -0.111 C  
BRANCH   9  10
HETATM   10  O   UNL     1      -8.322  10.412  69.461  1.00  0.00    -0.162 OA 
BRANCH  10  11
HETATM   11  C   UNL     1      -7.867   9.199  69.902  1.00  0.00    -0.091 C  
HETATM   12  O   UNL     1      -6.696   8.955  70.176  1.00  0.00    -0.037 OA 
HETATM   13  C   UNL     1      -9.050   8.166  69.956  1.00  0.00    -0.151 C  
HETATM   14  C   UNL     1      -9.200   7.668  71.409  1.00  0.00    -0.152 A  
HETATM   15  C   UNL     1      -8.748   6.996  68.952  1.00  0.00    -0.131 C  
HETATM   16  O   UNL     1     -10.280   8.804  69.578  1.00  0.00    -0.197 OA 
HETATM   17  H   UNL     1     -10.995   8.180  69.611  1.00  0.00     0.000 HD 
HETATM   18  C   UNL     1     -10.405   7.823  72.121  1.00  0.00    -0.279 A  
HETATM   19  C   UNL     1      -9.815   5.877  68.927  1.00  0.00    -0.183 C  
HETATM   20  C   UNL     1     -10.524   7.402  73.448  1.00  0.00    -0.419 A  
HETATM   21  C   UNL     1     -11.088   6.230  68.158  1.00  0.00    -0.364 C  
HETATM   22  C   UNL     1     -10.796   6.728  66.747  1.00  0.00    -0.296 C  
HETATM   23  C   UNL     1      -9.441   6.818  74.097  1.00  0.00    -0.268 A  
HETATM   24  C   UNL     1      -8.241   6.643  73.414  1.00  0.00    -0.124 A  
HETATM   25  C   UNL     1      -9.742   7.827  66.709  1.00  0.00    -0.296 C  
HETATM   26  C   UNL     1      -8.488   7.453  67.496  1.00  0.00    -0.116 C  
HETATM   27  C   UNL     1      -8.126   7.057  72.083  1.00  0.00    -0.093 A  
ENDBRANCH  10  11
ENDBRANCH   9  10
ENDBRANCH   8   9
ENDBRANCH   6   7
ENDBRANCH   3   6
ENDBRANCH   2   3
TORSDOF 7
ENDMDL
MODEL      117
REMARK 921   NORMALIZED FREE ENERGY PREDICTED BY IDOCK:   -4.19 KCAL/MOL
REMARK 922        TOTAL FREE ENERGY PREDICTED BY IDOCK:   -7.14 KCAL/MOL
REMARK 923 INTER-LIGAND FREE ENERGY PREDICTED BY IDOCK:   -5.90 KCAL/MOL
REMARK 924 INTRA-LIGAND FREE ENERGY PREDICTED BY IDOCK:   -1.25 KCAL/MOL
REMARK 927      BINDING AFFINITY PREDICTED BY RF-SCORE:    0.00 PKD
ROOT
HETATM    1  C   UNL     1     -11.060   6.088  70.498  1.00  0.00    -0.385 C  
HETATM    2  C   UNL     1     -11.447   7.553  70.679  1.00  0.00    -0.269 C  
ENDROOT
BRANCH   2   3
HETATM    3  N   UNL     1     -11.492   8.006  72.081  1.00  0.00    -0.310 NA 
BRANCH   3   4
HETATM    4  C   UNL     1     -10.193   8.462  72.603  1.00  0.00    -0.249 C  
HETATM    5  C   UNL     1      -9.449   7.499  73.521  1.00  0.00    -0.326 C  
ENDBRANCH   3   4
BRANCH   3   6
HETATM    6  C   UNL     1     -12.580   8.987  72.239  1.00  0.00    -0.375 C  
BRANCH   6   7
HETATM    7  C   UNL     1     -12.428  10.173  71.302  1.00  0.00    -0.510 C  
HETATM    8  C   UNL     1     -12.296  11.190  70.497  1.00  0.00    -0.454 C  
BRANCH   8   9
HETATM    9  C   UNL     1     -12.119  12.330  69.594  1.00  0.00    -0.212 C  
BRANCH   9  10
HETATM   10  O   UNL     1     -11.475  11.917  68.380  1.00  0.00    -0.250 OA 
BRANCH  10  11
HETATM   11  C   UNL     1     -10.119  12.106  68.356  1.00  0.00    -0.209 C  
HETATM   12  O   UNL     1      -9.545  13.074  68.844  1.00  0.00     0.029 OA 
HETATM   13  C   UNL     1      -9.425  10.932  67.575  1.00  0.00    -0.155 C  
HETATM   14  C   UNL     1      -8.441  10.223  68.530  1.00  0.00    -0.121 A  
HETATM   15  C   UNL     1      -8.707  11.522  66.308  1.00  0.00    -0.159 C  
HETATM   16  O   UNL     1     -10.405   9.971  67.155  1.00  0.00    -0.214 OA 
HETATM   17  H   UNL     1      -9.985   9.261  66.683  1.00  0.00     0.000 HD 
HETATM   18  C   UNL     1      -8.556   8.850  68.820  1.00  0.00    -0.136 A  
HETATM   19  C   UNL     1      -7.942  10.481  65.458  1.00  0.00    -0.145 C  
HETATM   20  C   UNL     1      -7.685   8.220  69.713  1.00  0.00    -0.098 A  
HETATM   21  C   UNL     1      -8.829   9.610  64.571  1.00  0.00    -0.257 C  
HETATM   22  C   UNL     1      -9.766  10.435  63.696  1.00  0.00    -0.338 C  
HETATM   23  C   UNL     1      -6.678   8.948  70.338  1.00  0.00    -0.047 A  
HETATM   24  C   UNL     1      -6.535  10.305  70.062  1.00  0.00    -0.116 A  
HETATM   25  C   UNL     1     -10.541  11.486  64.479  1.00  0.00    -0.387 C  
HETATM   26  C   UNL     1      -9.632  12.332  65.368  1.00  0.00    -0.079 C  
HETATM   27  C   UNL     1      -7.402  10.932  69.162  1.00  0.00    -0.126 A  
ENDBRANCH  10  11
ENDBRANCH   9  10
ENDBRANCH   8   9
ENDBRANCH   6   7
ENDBRANCH   3   6
ENDBRANCH   2   3
TORSDOF 7
ENDMDL
MODEL      118
REMARK 921   NORMALIZED FREE ENERGY PREDICTED BY IDOCK:   -4.18 KCAL/MOL
REMARK 922        TOTAL FREE ENERGY PREDICTED BY IDOCK:   -7.14 KCAL/MOL
REMARK 923 INTER-LIGAND FREE ENERGY PREDICTED BY IDOCK:   -6.76 KCAL/MOL
REMARK 924 INTRA-LIGAND FREE ENERGY PREDICTED BY IDOCK:   -0.38 KCAL/MOL
REMARK 927      BINDING AFFINITY PREDICTED BY RF-SCORE:    0.00 PKD
ROOT
HETATM    1  C   UNL     1     -10.354  16.693  68.933  1.00  0.00    -0.300 C  
HETATM    2  C   UNL     1     -11.120  15.966  67.830  1.00  0.00    -0.317 C  
ENDROOT
BRANCH   2   3
HETATM    3  N   UNL     1     -10.475  16.009  66.506  1.00  0.00    -0.302 NA 
BRANCH   3   4
HETATM    4  C   UNL     1      -9.044  15.663  66.527  1.00  0.00    -0.303 C  
HETATM    5  C   UNL     1      -8.063  16.796  66.244  1.00  0.00    -0.365 C  
ENDBRANCH   3   4
BRANCH   3   6
HETATM    6  C   UNL     1     -11.271  15.215  65.553  1.00  0.00    -0.320 C  
BRANCH   6   7
HETATM    7  C   UNL     1     -11.090  13.720  65.757  1.00  0.00    -0.290 C  
HETATM    8  C   UNL     1     -10.935  12.438  65.932  1.00  0.00    -0.323 C  
BRANCH   8   9
HETATM    9  C   UNL     1     -10.750  10.994  66.101  1.00  0.00    -0.194 C  
BRANCH   9  10
HETATM   10  O   UNL     1     -11.373  10.544  67.312  1.00  0.00    -0.359 OA 
BRANCH  10  11
HETATM   11  C   UNL     1     -10.509  10.310  68.349  1.00  0.00    -0.200 C  
HETATM   12  O   UNL     1      -9.995  11.187  69.035  1.00  0.00    -0.199 OA 
HETATM   13  C   UNL     1     -10.242   8.768  68.491  1.00  0.00    -0.195 C  
HETATM   14  C   UNL     1     -10.689   8.321  69.899  1.00  0.00    -0.234 A  
HETATM   15  C   UNL     1      -8.717   8.492  68.233  1.00  0.00    -0.143 C  
HETATM   16  O   UNL     1     -11.021   8.041  67.529  1.00  0.00    -0.513 OA 
HETATM   17  H   UNL     1     -10.860   7.109  67.614  1.00  0.00     0.000 HD 
HETATM   18  C   UNL     1     -11.665   7.323  70.081  1.00  0.00    -0.095 A  
HETATM   19  C   UNL     1      -8.297   7.011  68.380  1.00  0.00    -0.124 C  
HETATM   20  C   UNL     1     -12.093   6.947  71.357  1.00  0.00    -0.408 A  
HETATM   21  C   UNL     1      -8.675   6.123  67.195  1.00  0.00    -0.106 C  
HETATM   22  C   UNL     1      -8.192   6.690  65.865  1.00  0.00    -0.132 C  
HETATM   23  C   UNL     1     -11.555   7.561  72.483  1.00  0.00    -0.352 A  
HETATM   24  C   UNL     1     -10.581   8.544  72.334  1.00  0.00    -0.368 A  
HETATM   25  C   UNL     1      -8.570   8.153  65.670  1.00  0.00    -0.181 C  
HETATM   26  C   UNL     1      -8.193   9.014  66.873  1.00  0.00    -0.116 C  
HETATM   27  C   UNL     1     -10.148   8.913  71.056  1.00  0.00    -0.324 A  
ENDBRANCH  10  11
ENDBRANCH   9  10
ENDBRANCH   8   9
ENDBRANCH   6   7
ENDBRANCH   3   6
ENDBRANCH   2   3
TORSDOF 7
ENDMDL
MODEL      119
REMARK 921   NORMALIZED FREE ENERGY PREDICTED BY IDOCK:   -4.13 KCAL/MOL
REMARK 922        TOTAL FREE ENERGY PREDICTED BY IDOCK:   -7.06 KCAL/MOL
REMARK 923 INTER-LIGAND FREE ENERGY PREDICTED BY IDOCK:   -6.09 KCAL/MOL
REMARK 924 INTRA-LIGAND FREE ENERGY PREDICTED BY IDOCK:   -0.98 KCAL/MOL
REMARK 927      BINDING AFFINITY PREDICTED BY RF-SCORE:    0.00 PKD
ROOT
HETATM    1  C   UNL     1     -11.648  15.976  64.454  1.00  0.00    -0.212 C  
HETATM    2  C   UNL     1     -10.445  15.128  64.864  1.00  0.00    -0.319 C  
ENDROOT
BRANCH   2   3
HETATM    3  N   UNL     1      -9.559  15.761  65.855  1.00  0.00    -0.340 NA 
BRANCH   3   4
HETATM    4  C   UNL     1     -10.131  16.962  66.487  1.00  0.00    -0.315 C  
HETATM    5  C   UNL     1      -9.457  17.449  67.765  1.00  0.00    -0.261 C  
ENDBRANCH   3   4
BRANCH   3   6
HETATM    6  C   UNL     1      -9.095  14.742  66.813  1.00  0.00    -0.267 C  
BRANCH   6   7
HETATM    7  C   UNL     1     -10.214  13.810  67.248  1.00  0.00    -0.253 C  
HETATM    8  C   UNL     1     -11.173  13.009  67.620  1.00  0.00    -0.315 C  
BRANCH   8   9
HETATM    9  C   UNL     1     -12.268  12.121  68.017  1.00  0.00     0.288 C  
BRANCH   9  10
HETATM   10  O   UNL     1     -11.782  10.791  68.248  1.00  0.00    -0.468 OA 
BRANCH  10  11
HETATM   11  C   UNL     1     -11.168  10.607  69.458  1.00  0.00    -0.272 C  
HETATM   12  O   UNL     1     -11.350  11.314  70.443  1.00  0.00    -0.219 OA 
HETATM   13  C   UNL     1     -10.172   9.394  69.378  1.00  0.00    -0.207 C  
HETATM   14  C   UNL     1     -10.608   8.333  70.410  1.00  0.00    -0.231 A  
HETATM   15  C   UNL     1      -8.714   9.919  69.640  1.00  0.00    -0.218 C  
HETATM   16  O   UNL     1     -10.228   8.794  68.075  1.00  0.00    -0.194 OA 
HETATM   17  H   UNL     1      -9.626   8.061  68.027  1.00  0.00     0.000 HD 
HETATM   18  C   UNL     1     -10.929   7.017  70.024  1.00  0.00    -0.303 A  
HETATM   19  C   UNL     1      -7.624   8.822  69.632  1.00  0.00    -0.076 C  
HETATM   20  C   UNL     1     -11.358   6.070  70.958  1.00  0.00    -0.299 A  
HETATM   21  C   UNL     1      -7.218   8.340  68.240  1.00  0.00    -0.093 C  
HETATM   22  C   UNL     1      -6.833   9.490  67.315  1.00  0.00    -0.084 C  
HETATM   23  C   UNL     1     -11.476   6.415  72.300  1.00  0.00    -0.339 A  
HETATM   24  C   UNL     1     -11.155   7.705  72.712  1.00  0.00    -0.437 A  
HETATM   25  C   UNL     1      -7.868  10.607  67.291  1.00  0.00    -0.112 C  
HETATM   26  C   UNL     1      -8.265  11.059  68.694  1.00  0.00    -0.151 C  
HETATM   27  C   UNL     1     -10.718   8.650  71.778  1.00  0.00    -0.392 A  
ENDBRANCH  10  11
ENDBRANCH   9  10
ENDBRANCH   8   9
ENDBRANCH   6   7
ENDBRANCH   3   6
ENDBRANCH   2   3
TORSDOF 7
ENDMDL
MODEL      120
REMARK 921   NORMALIZED FREE ENERGY PREDICTED BY IDOCK:   -4.10 KCAL/MOL
REMARK 922        TOTAL FREE ENERGY PREDICTED BY IDOCK:   -7.02 KCAL/MOL
REMARK 923 INTER-LIGAND FREE ENERGY PREDICTED BY IDOCK:   -5.84 KCAL/MOL
REMARK 924 INTRA-LIGAND FREE ENERGY PREDICTED BY IDOCK:   -1.18 KCAL/MOL
REMARK 927      BINDING AFFINITY PREDICTED BY RF-SCORE:    0.00 PKD
ROOT
HETATM    1  C   UNL     1     -11.805  14.630  68.056  1.00  0.00    -0.343 C  
HETATM    2  C   UNL     1     -11.158  13.246  68.061  1.00  0.00    -0.256 C  
ENDROOT
BRANCH   2   3
HETATM    3  N   UNL     1     -11.884  12.229  67.281  1.00  0.00    -0.555 NA 
BRANCH   3   4
HETATM    4  C   UNL     1     -11.655  12.313  65.829  1.00  0.00    -0.388 C  
HETATM    5  C   UNL     1     -12.718  13.039  65.011  1.00  0.00    -0.475 C  
ENDBRANCH   3   4
BRANCH   3   6
HETATM    6  C   UNL     1     -11.617  10.897  67.854  1.00  0.00    -0.188 C  
BRANCH   6   7
HETATM    7  C   UNL     1     -10.632  10.098  67.018  1.00  0.00    -0.290 C  
HETATM    8  C   UNL     1      -9.787   9.412  66.300  1.00  0.00    -0.351 C  
BRANCH   8   9
HETATM    9  C   UNL     1      -8.860   8.630  65.479  1.00  0.00    -0.179 C  
BRANCH   9  10
HETATM   10  O   UNL     1      -8.627   7.342  66.066  1.00  0.00    -0.141 OA 
BRANCH  10  11
HETATM   11  C   UNL     1      -8.072   7.374  67.318  1.00  0.00    -0.112 C  
HETATM   12  O   UNL     1      -7.049   7.985  67.607  1.00  0.00    -0.079 OA 
HETATM   13  C   UNL     1      -8.909   6.479  68.302  1.00  0.00    -0.119 C  
HETATM   14  C   UNL     1      -9.429   7.368  69.451  1.00  0.00    -0.155 A  
HETATM   15  C   UNL     1      -7.999   5.307  68.819  1.00  0.00    -0.086 C  
HETATM   16  O   UNL     1     -10.046   5.926  67.621  1.00  0.00    -0.137 OA 
HETATM   17  H   UNL     1     -10.552   5.385  68.216  1.00  0.00     0.000 HD 
HETATM   18  C   UNL     1     -10.805   7.494  69.721  1.00  0.00    -0.234 A  
HETATM   19  C   UNL     1      -8.682   4.361  69.834  1.00  0.00    -0.111 C  
HETATM   20  C   UNL     1     -11.273   8.329  70.739  1.00  0.00    -0.284 A  
HETATM   21  C   UNL     1      -9.652   3.356  69.214  1.00  0.00    -0.137 C  
HETATM   22  C   UNL     1      -9.018   2.561  68.078  1.00  0.00    -0.195 C  
HETATM   23  C   UNL     1     -10.377   9.059  71.512  1.00  0.00    -0.412 A  
HETATM   24  C   UNL     1      -9.009   8.946  71.274  1.00  0.00    -0.312 A  
HETATM   25  C   UNL     1      -8.320   3.442  67.050  1.00  0.00    -0.096 C  
HETATM   26  C   UNL     1      -7.368   4.444  67.699  1.00  0.00    -0.069 C  
HETATM   27  C   UNL     1      -8.543   8.104  70.260  1.00  0.00    -0.131 A  
ENDBRANCH  10  11
ENDBRANCH   9  10
ENDBRANCH   8   9
ENDBRANCH   6   7
ENDBRANCH   3   6
ENDBRANCH   2   3
TORSDOF 7
ENDMDL
MODEL      121
REMARK 921   NORMALIZED FREE ENERGY PREDICTED BY IDOCK:   -4.10 KCAL/MOL
REMARK 922        TOTAL FREE ENERGY PREDICTED BY IDOCK:   -7.01 KCAL/MOL
REMARK 923 INTER-LIGAND FREE ENERGY PREDICTED BY IDOCK:   -5.40 KCAL/MOL
REMARK 924 INTRA-LIGAND FREE ENERGY PREDICTED BY IDOCK:   -1.62 KCAL/MOL
REMARK 927      BINDING AFFINITY PREDICTED BY RF-SCORE:    0.00 PKD
ROOT
HETATM    1  C   UNL     1      -9.254   4.769  68.444  1.00  0.00    -0.162 C  
HETATM    2  C   UNL     1      -7.901   4.738  69.150  1.00  0.00    -0.071 C  
ENDROOT
BRANCH   2   3
HETATM    3  N   UNL     1      -7.874   5.424  70.453  1.00  0.00    -0.086 NA 
BRANCH   3   4
HETATM    4  C   UNL     1      -7.741   4.516  71.604  1.00  0.00    -0.083 C  
HETATM    5  C   UNL     1      -6.985   3.214  71.364  1.00  0.00    -0.032 C  
ENDBRANCH   3   4
BRANCH   3   6
HETATM    6  C   UNL     1      -6.866   6.498  70.416  1.00  0.00    -0.062 C  
BRANCH   6   7
HETATM    7  C   UNL     1      -7.041   7.412  69.215  1.00  0.00    -0.075 C  
HETATM    8  C   UNL     1      -7.191   8.196  68.184  1.00  0.00    -0.094 C  
BRANCH   8   9
HETATM    9  C   UNL     1      -7.335   9.092  67.035  1.00  0.00    -0.090 C  
BRANCH   9  10
HETATM   10  O   UNL     1      -8.430   9.998  67.235  1.00  0.00    -0.121 OA 
BRANCH  10  11
HETATM   11  C   UNL     1      -9.615   9.401  67.574  1.00  0.00    -0.141 C  
HETATM   12  O   UNL     1     -10.131   8.480  66.950  1.00  0.00    -0.239 OA 
HETATM   13  C   UNL     1     -10.228  10.101  68.840  1.00  0.00    -0.199 C  
HETATM   14  C   UNL     1     -10.371   9.049  69.960  1.00  0.00    -0.226 A  
HETATM   15  C   UNL     1     -11.606  10.745  68.446  1.00  0.00    -0.311 C  
HETATM   16  O   UNL     1      -9.346  11.131  69.312  1.00  0.00    -0.400 OA 
HETATM   17  H   UNL     1      -9.716  11.554  70.077  1.00  0.00     0.000 HD 
HETATM   18  C   UNL     1      -9.739   9.209  71.208  1.00  0.00    -0.351 A  
HETATM   19  C   UNL     1     -12.349  11.439  69.611  1.00  0.00    -0.236 C  
HETATM   20  C   UNL     1      -9.843   8.236  72.206  1.00  0.00    -0.364 A  
HETATM   21  C   UNL     1     -11.797  12.813  69.988  1.00  0.00    -0.352 C  
HETATM   22  C   UNL     1     -11.687  13.745  68.787  1.00  0.00    -0.391 C  
HETATM   23  C   UNL     1     -10.580   7.078  71.980  1.00  0.00    -0.237 A  
HETATM   24  C   UNL     1     -11.224   6.898  70.759  1.00  0.00    -0.338 A  
HETATM   25  C   UNL     1     -10.970  13.110  67.603  1.00  0.00    -0.282 C  
HETATM   26  C   UNL     1     -11.533  11.733  67.257  1.00  0.00    -0.373 C  
HETATM   27  C   UNL     1     -11.127   7.876  69.765  1.00  0.00    -0.079 A  
ENDBRANCH  10  11
ENDBRANCH   9  10
ENDBRANCH   8   9
ENDBRANCH   6   7
ENDBRANCH   3   6
ENDBRANCH   2   3
TORSDOF 7
ENDMDL
MODEL      122
REMARK 921   NORMALIZED FREE ENERGY PREDICTED BY IDOCK:   -4.09 KCAL/MOL
REMARK 922        TOTAL FREE ENERGY PREDICTED BY IDOCK:   -7.01 KCAL/MOL
REMARK 923 INTER-LIGAND FREE ENERGY PREDICTED BY IDOCK:   -6.13 KCAL/MOL
REMARK 924 INTRA-LIGAND FREE ENERGY PREDICTED BY IDOCK:   -0.89 KCAL/MOL
REMARK 927      BINDING AFFINITY PREDICTED BY RF-SCORE:    0.00 PKD
ROOT
HETATM    1  C   UNL     1      -5.153  16.068  71.047  1.00  0.00    -0.161 C  
HETATM    2  C   UNL     1      -5.203  16.645  69.634  1.00  0.00    -0.145 C  
ENDROOT
BRANCH   2   3
HETATM    3  N   UNL     1      -6.218  16.034  68.759  1.00  0.00    -0.112 NA 
BRANCH   3   4
HETATM    4  C   UNL     1      -6.529  14.634  69.092  1.00  0.00    -0.110 C  
HETATM    5  C   UNL     1      -6.271  13.598  68.004  1.00  0.00    -0.139 C  
ENDBRANCH   3   4
BRANCH   3   6
HETATM    6  C   UNL     1      -7.398  16.913  68.697  1.00  0.00    -0.222 C  
BRANCH   6   7
HETATM    7  C   UNL     1      -8.637  16.181  68.208  1.00  0.00    -0.182 C  
HETATM    8  C   UNL     1      -9.700  15.554  67.787  1.00  0.00    -0.211 C  
BRANCH   8   9
HETATM    9  C   UNL     1     -10.905  14.875  67.306  1.00  0.00    -0.306 C  
BRANCH   9  10
HETATM   10  O   UNL     1     -11.154  13.686  68.069  1.00  0.00    -0.247 OA 
BRANCH  10  11
HETATM   11  C   UNL     1     -11.429  12.571  67.323  1.00  0.00    -0.353 C  
HETATM   12  O   UNL     1     -12.283  12.519  66.444  1.00  0.00    -0.584 OA 
HETATM   13  C   UNL     1     -10.529  11.372  67.793  1.00  0.00    -0.185 C  
HETATM   14  C   UNL     1      -9.672  10.905  66.597  1.00  0.00    -0.222 A  
HETATM   15  C   UNL     1     -11.455  10.230  68.346  1.00  0.00    -0.163 C  
HETATM   16  O   UNL     1      -9.638  11.801  68.834  1.00  0.00    -0.393 OA 
HETATM   17  H   UNL     1      -9.094  11.076  69.118  1.00  0.00     0.000 HD 
HETATM   18  C   UNL     1      -8.265  10.896  66.657  1.00  0.00    -0.145 A  
HETATM   19  C   UNL     1     -10.704   8.961  68.811  1.00  0.00    -0.123 C  
HETATM   20  C   UNL     1      -7.493  10.506  65.559  1.00  0.00    -0.111 A  
HETATM   21  C   UNL     1     -10.022   9.089  70.172  1.00  0.00    -0.216 C  
HETATM   22  C   UNL     1     -10.974   9.579  71.257  1.00  0.00    -0.440 C  
HETATM   23  C   UNL     1      -8.109  10.117  64.374  1.00  0.00    -0.163 A  
HETATM   24  C   UNL     1      -9.499  10.106  64.291  1.00  0.00    -0.366 A  
HETATM   25  C   UNL     1     -11.750  10.825  70.850  1.00  0.00    -0.334 C  
HETATM   26  C   UNL     1     -12.410  10.674  69.481  1.00  0.00    -0.154 C  
HETATM   27  C   UNL     1     -10.270  10.488  65.392  1.00  0.00    -0.340 A  
ENDBRANCH  10  11
ENDBRANCH   9  10
ENDBRANCH   8   9
ENDBRANCH   6   7
ENDBRANCH   3   6
ENDBRANCH   2   3
TORSDOF 7
ENDMDL
MODEL      123
REMARK 921   NORMALIZED FREE ENERGY PREDICTED BY IDOCK:   -4.06 KCAL/MOL
REMARK 922        TOTAL FREE ENERGY PREDICTED BY IDOCK:   -6.97 KCAL/MOL
REMARK 923 INTER-LIGAND FREE ENERGY PREDICTED BY IDOCK:   -6.90 KCAL/MOL
REMARK 924 INTRA-LIGAND FREE ENERGY PREDICTED BY IDOCK:   -0.07 KCAL/MOL
REMARK 927      BINDING AFFINITY PREDICTED BY RF-SCORE:    0.00 PKD
ROOT
HETATM    1  C   UNL     1     -10.544   5.898  73.929  1.00  0.00    -0.248 C  
HETATM    2  C   UNL     1     -10.528   7.371  73.527  1.00  0.00    -0.345 C  
ENDROOT
BRANCH   2   3
HETATM    3  N   UNL     1     -11.238   7.670  72.271  1.00  0.00    -0.272 NA 
BRANCH   3   4
HETATM    4  C   UNL     1     -11.806   6.483  71.609  1.00  0.00    -0.333 C  
HETATM    5  C   UNL     1     -11.549   6.346  70.113  1.00  0.00    -0.449 C  
ENDBRANCH   3   4
BRANCH   3   6
HETATM    6  C   UNL     1     -12.213   8.748  72.510  1.00  0.00    -0.277 C  
BRANCH   6   7
HETATM    7  C   UNL     1     -12.219   9.778  71.392  1.00  0.00    -0.486 C  
HETATM    8  C   UNL     1     -12.224  10.660  70.432  1.00  0.00    -0.432 C  
BRANCH   8   9
HETATM    9  C   UNL     1     -12.226  11.630  69.335  1.00  0.00    -0.182 C  
BRANCH   9  10
HETATM   10  O   UNL     1     -11.836  11.003  68.105  1.00  0.00    -0.573 OA 
BRANCH  10  11
HETATM   11  C   UNL     1     -11.380  11.862  67.141  1.00  0.00    -0.331 C  
HETATM   12  O   UNL     1     -11.995  12.150  66.120  1.00  0.00    -0.593 OA 
HETATM   13  C   UNL     1      -9.944  12.379  67.517  1.00  0.00    -0.196 C  
HETATM   14  C   UNL     1      -9.993  13.916  67.642  1.00  0.00    -0.237 A  
HETATM   15  C   UNL     1      -8.930  11.902  66.414  1.00  0.00    -0.180 C  
HETATM   16  O   UNL     1      -9.543  11.844  68.787  1.00  0.00    -0.362 OA 
HETATM   17  H   UNL     1      -8.675  12.155  69.014  1.00  0.00     0.000 HD 
HETATM   18  C   UNL     1      -9.631  14.570  68.835  1.00  0.00    -0.158 A  
HETATM   19  C   UNL     1      -7.474  12.373  66.632  1.00  0.00     0.324 C  
HETATM   20  C   UNL     1      -9.712  15.960  68.956  1.00  0.00    -0.243 A  
HETATM   21  C   UNL     1      -6.706  11.594  67.699  1.00  0.00    -0.087 C  
HETATM   22  C   UNL     1      -6.756  10.088  67.467  1.00  0.00    -0.072 C  
HETATM   23  C   UNL     1     -10.157  16.730  67.887  1.00  0.00    -0.284 A  
HETATM   24  C   UNL     1     -10.512  16.110  66.691  1.00  0.00    -0.300 A  
HETATM   25  C   UNL     1      -8.168   9.567  67.237  1.00  0.00    -0.114 C  
HETATM   26  C   UNL     1      -8.916  10.372  66.177  1.00  0.00    -0.175 C  
HETATM   27  C   UNL     1     -10.423  14.721  66.570  1.00  0.00    -0.291 A  
ENDBRANCH  10  11
ENDBRANCH   9  10
ENDBRANCH   8   9
ENDBRANCH   6   7
ENDBRANCH   3   6
ENDBRANCH   2   3
TORSDOF 7
ENDMDL
MODEL      124
REMARK 921   NORMALIZED FREE ENERGY PREDICTED BY IDOCK:   -4.06 KCAL/MOL
REMARK 922        TOTAL FREE ENERGY PREDICTED BY IDOCK:   -6.97 KCAL/MOL
REMARK 923 INTER-LIGAND FREE ENERGY PREDICTED BY IDOCK:   -6.47 KCAL/MOL
REMARK 924 INTRA-LIGAND FREE ENERGY PREDICTED BY IDOCK:   -0.50 KCAL/MOL
REMARK 927      BINDING AFFINITY PREDICTED BY RF-SCORE:    0.00 PKD
ROOT
HETATM    1  C   UNL     1      -8.860   7.394  74.373  1.00  0.00    -0.220 C  
HETATM    2  C   UNL     1      -9.166   7.500  72.881  1.00  0.00    -0.168 C  
ENDROOT
BRANCH   2   3
HETATM    3  N   UNL     1      -9.633   6.248  72.261  1.00  0.00    -0.153 NA 
BRANCH   3   4
HETATM    4  C   UNL     1      -9.867   5.157  73.221  1.00  0.00    -0.153 C  
HETATM    5  C   UNL     1      -9.097   3.863  72.987  1.00  0.00    -0.120 C  
ENDBRANCH   3   4
BRANCH   3   6
HETATM    6  C   UNL     1     -10.786   6.539  71.390  1.00  0.00    -0.238 C  
BRANCH   6   7
HETATM    7  C   UNL     1     -10.639   7.865  70.663  1.00  0.00    -0.221 C  
HETATM    8  C   UNL     1     -10.513   9.003  70.040  1.00  0.00    -0.233 C  
BRANCH   8   9
HETATM    9  C   UNL     1     -10.392  10.294  69.357  1.00  0.00    -0.235 C  
BRANCH   9  10
HETATM   10  O   UNL     1     -10.607  11.374  70.276  1.00  0.00     0.536 OA 
BRANCH  10  11
HETATM   11  C   UNL     1     -11.808  12.017  70.136  1.00  0.00    -0.301 C  
HETATM   12  O   UNL     1     -12.901  11.464  70.190  1.00  0.00    -0.061 OA 
HETATM   13  C   UNL     1     -11.571  13.544  69.849  1.00  0.00    -0.201 C  
HETATM   14  C   UNL     1     -12.245  14.364  70.970  1.00  0.00    -0.422 A  
HETATM   15  C   UNL     1     -12.149  13.888  68.429  1.00  0.00    -0.327 C  
HETATM   16  O   UNL     1     -10.166  13.839  69.868  1.00  0.00     0.032 OA 
HETATM   17  H   UNL     1     -10.023  14.761  69.695  1.00  0.00     0.000 HD 
HETATM   18  C   UNL     1     -11.510  15.255  71.774  1.00  0.00    -0.494 A  
HETATM   19  C   UNL     1     -12.022  15.375  68.025  1.00  0.00    -0.003 C  
HETATM   20  C   UNL     1     -12.117  15.968  72.812  1.00  0.00    -0.635 A  
HETATM   21  C   UNL     1     -10.624  15.795  67.575  1.00  0.00    -0.309 C  
HETATM   22  C   UNL     1     -10.068  14.890  66.481  1.00  0.00    -0.279 C  
HETATM   23  C   UNL     1     -13.474  15.805  73.071  1.00  0.00    -0.672 A  
HETATM   24  C   UNL     1     -14.227  14.938  72.285  1.00  0.00    -0.568 A  
HETATM   25  C   UNL     1     -10.176  13.409  66.820  1.00  0.00    -0.259 C  
HETATM   26  C   UNL     1     -11.580  13.022  67.279  1.00  0.00    -0.409 C  
HETATM   27  C   UNL     1     -13.620  14.232  71.242  1.00  0.00    -0.355 A  
ENDBRANCH  10  11
ENDBRANCH   9  10
ENDBRANCH   8   9
ENDBRANCH   6   7
ENDBRANCH   3   6
ENDBRANCH   2   3
TORSDOF 7
ENDMDL
MODEL      125
REMARK 921   NORMALIZED FREE ENERGY PREDICTED BY IDOCK:   -4.04 KCAL/MOL
REMARK 922        TOTAL FREE ENERGY PREDICTED BY IDOCK:   -6.93 KCAL/MOL
REMARK 923 INTER-LIGAND FREE ENERGY PREDICTED BY IDOCK:   -6.37 KCAL/MOL
REMARK 924 INTRA-LIGAND FREE ENERGY PREDICTED BY IDOCK:   -0.57 KCAL/MOL
REMARK 927      BINDING AFFINITY PREDICTED BY RF-SCORE:    0.00 PKD
ROOT
HETATM    1  C   UNL     1     -10.464  15.501  65.290  1.00  0.00    -0.437 C  
HETATM    2  C   UNL     1     -10.690  13.995  65.167  1.00  0.00    -0.382 C  
ENDROOT
BRANCH   2   3
HETATM    3  N   UNL     1     -12.057  13.553  65.493  1.00  0.00    -0.392 NA 
BRANCH   3   4
HETATM    4  C   UNL     1     -12.597  12.549  64.560  1.00  0.00    -0.421 C  
HETATM    5  C   UNL     1     -11.723  12.186  63.366  1.00  0.00    -0.533 C  
ENDBRANCH   3   4
BRANCH   3   6
HETATM    6  C   UNL     1     -12.111  13.147  66.908  1.00  0.00    -0.316 C  
BRANCH   6   7
HETATM    7  C   UNL     1     -11.408  11.823  67.156  1.00  0.00    -0.387 C  
HETATM    8  C   UNL     1     -10.804  10.687  67.367  1.00  0.00    -0.353 C  
BRANCH   8   9
HETATM    9  C   UNL     1     -10.149   9.397  67.594  1.00  0.00    -0.211 C  
BRANCH   9  10
HETATM   10  O   UNL     1     -10.658   8.772  68.781  1.00  0.00    -0.211 OA 
BRANCH  10  11
HETATM   11  C   UNL     1      -9.816   8.817  69.859  1.00  0.00    -0.184 C  
HETATM   12  O   UNL     1      -9.565   9.832  70.501  1.00  0.00    -0.239 OA 
HETATM   13  C   UNL     1      -9.192   7.398  70.116  1.00  0.00    -0.151 C  
HETATM   14  C   UNL     1      -9.587   6.937  71.535  1.00  0.00    -0.162 A  
HETATM   15  C   UNL     1      -7.634   7.489  69.929  1.00  0.00    -0.093 C  
HETATM   16  O   UNL     1      -9.722   6.449  69.179  1.00  0.00    -0.135 OA 
HETATM   17  H   UNL     1      -9.345   5.591  69.333  1.00  0.00     0.000 HD 
HETATM   18  C   UNL     1     -10.300   5.743  71.750  1.00  0.00    -0.271 A  
HETATM   19  C   UNL     1      -6.876   6.167  70.191  1.00  0.00    -0.057 C  
HETATM   20  C   UNL     1     -10.686   5.348  73.034  1.00  0.00    -0.301 A  
HETATM   21  C   UNL     1      -6.968   5.147  69.057  1.00  0.00    -0.056 C  
HETATM   22  C   UNL     1      -6.572   5.738  67.709  1.00  0.00    -0.053 C  
HETATM   23  C   UNL     1     -10.370   6.139  74.133  1.00  0.00    -0.308 A  
HETATM   24  C   UNL     1      -9.656   7.321  73.951  1.00  0.00    -0.322 A  
HETATM   25  C   UNL     1      -7.282   7.050  67.401  1.00  0.00    -0.090 C  
HETATM   26  C   UNL     1      -7.185   8.044  68.555  1.00  0.00    -0.085 C  
HETATM   27  C   UNL     1      -9.263   7.710  72.667  1.00  0.00    -0.217 A  
ENDBRANCH  10  11
ENDBRANCH   9  10
ENDBRANCH   8   9
ENDBRANCH   6   7
ENDBRANCH   3   6
ENDBRANCH   2   3
TORSDOF 7
ENDMDL
MODEL      126
REMARK 921   NORMALIZED FREE ENERGY PREDICTED BY IDOCK:   -4.03 KCAL/MOL
REMARK 922        TOTAL FREE ENERGY PREDICTED BY IDOCK:   -6.92 KCAL/MOL
REMARK 923 INTER-LIGAND FREE ENERGY PREDICTED BY IDOCK:   -6.25 KCAL/MOL
REMARK 924 INTRA-LIGAND FREE ENERGY PREDICTED BY IDOCK:   -0.67 KCAL/MOL
REMARK 927      BINDING AFFINITY PREDICTED BY RF-SCORE:    0.00 PKD
ROOT
HETATM    1  C   UNL     1     -11.177   4.742  73.471  1.00  0.00    -0.392 C  
HETATM    2  C   UNL     1     -10.169   5.812  73.057  1.00  0.00    -0.187 C  
ENDROOT
BRANCH   2   3
HETATM    3  N   UNL     1     -10.625   7.197  73.269  1.00  0.00    -0.330 NA 
BRANCH   3   4
HETATM    4  C   UNL     1      -9.538   8.190  73.271  1.00  0.00    -0.191 C  
HETATM    5  C   UNL     1      -8.409   7.964  74.271  1.00  0.00    -0.297 C  
ENDBRANCH   3   4
BRANCH   3   6
HETATM    6  C   UNL     1     -11.712   7.500  72.322  1.00  0.00    -0.304 C  
BRANCH   6   7
HETATM    7  C   UNL     1     -11.190   7.842  70.936  1.00  0.00    -0.284 C  
HETATM    8  C   UNL     1     -10.743   8.137  69.747  1.00  0.00    -0.229 C  
BRANCH   8   9
HETATM    9  C   UNL     1     -10.268   8.468  68.402  1.00  0.00    -0.203 C  
BRANCH   9  10
HETATM   10  O   UNL     1      -9.231   9.458  68.461  1.00  0.00    -0.131 OA 
BRANCH  10  11
HETATM   11  C   UNL     1      -9.003  10.121  67.285  1.00  0.00    -0.135 C  
HETATM   12  O   UNL     1      -8.708   9.576  66.227  1.00  0.00    -0.137 OA 
HETATM   13  C   UNL     1      -9.127  11.672  67.508  1.00  0.00    -0.172 C  
HETATM   14  C   UNL     1     -10.248  12.210  66.593  1.00  0.00    -0.223 A  
HETATM   15  C   UNL     1      -7.737  12.340  67.207  1.00  0.00    -0.161 C  
HETATM   16  O   UNL     1      -9.496  11.948  68.868  1.00  0.00    -0.400 OA 
HETATM   17  H   UNL     1      -9.571  12.885  69.003  1.00  0.00     0.000 HD 
HETATM   18  C   UNL     1     -11.366  12.887  67.117  1.00  0.00    -0.352 A  
HETATM   19  C   UNL     1      -7.719  13.880  67.347  1.00  0.00    -0.165 C  
HETATM   20  C   UNL     1     -12.395  13.341  66.288  1.00  0.00    -0.382 A  
HETATM   21  C   UNL     1      -7.669  14.386  68.788  1.00  0.00    -0.139 C  
HETATM   22  C   UNL     1      -6.531  13.759  69.586  1.00  0.00    -0.094 C  
HETATM   23  C   UNL     1     -12.332  13.128  64.914  1.00  0.00    -0.494 A  
HETATM   24  C   UNL     1     -11.232  12.471  64.368  1.00  0.00    -0.388 A  
HETATM   25  C   UNL     1      -6.493  12.241  69.477  1.00  0.00    -0.094 C  
HETATM   26  C   UNL     1      -6.559  11.763  68.028  1.00  0.00    -0.060 C  
HETATM   27  C   UNL     1     -10.199  12.025  65.198  1.00  0.00    -0.308 A  
ENDBRANCH  10  11
ENDBRANCH   9  10
ENDBRANCH   8   9
ENDBRANCH   6   7
ENDBRANCH   3   6
ENDBRANCH   2   3
TORSDOF 7
ENDMDL
MODEL      127
REMARK 921   NORMALIZED FREE ENERGY PREDICTED BY IDOCK:   -4.03 KCAL/MOL
REMARK 922        TOTAL FREE ENERGY PREDICTED BY IDOCK:   -6.92 KCAL/MOL
REMARK 923 INTER-LIGAND FREE ENERGY PREDICTED BY IDOCK:   -5.73 KCAL/MOL
REMARK 924 INTRA-LIGAND FREE ENERGY PREDICTED BY IDOCK:   -1.19 KCAL/MOL
REMARK 927      BINDING AFFINITY PREDICTED BY RF-SCORE:    0.00 PKD
ROOT
HETATM    1  C   UNL     1     -10.376  14.006  68.285  1.00  0.00    -0.247 C  
HETATM    2  C   UNL     1     -11.800  13.824  67.766  1.00  0.00    -0.369 C  
ENDROOT
BRANCH   2   3
HETATM    3  N   UNL     1     -12.094  14.547  66.517  1.00  0.00    -0.365 NA 
BRANCH   3   4
HETATM    4  C   UNL     1     -10.962  15.338  66.004  1.00  0.00    -0.317 C  
HETATM    5  C   UNL     1     -11.270  16.328  64.887  1.00  0.00    -0.243 C  
ENDBRANCH   3   4
BRANCH   3   6
HETATM    6  C   UNL     1     -12.663  13.608  65.535  1.00  0.00    -0.466 C  
BRANCH   6   7
HETATM    7  C   UNL     1     -11.635  12.608  65.032  1.00  0.00    -0.384 C  
HETATM    8  C   UNL     1     -10.753  11.750  64.600  1.00  0.00    -0.363 C  
BRANCH   8   9
HETATM    9  C   UNL     1      -9.755  10.805  64.093  1.00  0.00    -0.309 C  
BRANCH   9  10
HETATM   10  O   UNL     1      -9.836   9.558  64.798  1.00  0.00    -0.092 OA 
BRANCH  10  11
HETATM   11  C   UNL     1      -8.666   9.151  65.381  1.00  0.00    -0.186 C  
HETATM   12  O   UNL     1      -7.643   8.877  64.764  1.00  0.00    -0.100 OA 
HETATM   13  C   UNL     1      -8.849   9.044  66.938  1.00  0.00    -0.116 C  
HETATM   14  C   UNL     1      -7.847  10.002  67.617  1.00  0.00    -0.095 A  
HETATM   15  C   UNL     1      -8.632   7.549  67.372  1.00  0.00    -0.118 C  
HETATM   16  O   UNL     1     -10.174   9.454  67.310  1.00  0.00    -0.212 OA 
HETATM   17  H   UNL     1     -10.284   9.389  68.251  1.00  0.00     0.000 HD 
HETATM   18  C   UNL     1      -8.277  11.032  68.475  1.00  0.00    -0.146 A  
HETATM   19  C   UNL     1      -8.742   7.298  68.894  1.00  0.00    -0.128 C  
HETATM   20  C   UNL     1      -7.369  11.920  69.058  1.00  0.00    -0.038 A  
HETATM   21  C   UNL     1     -10.172   7.263  69.431  1.00  0.00    -0.193 C  
HETATM   22  C   UNL     1     -11.060   6.294  68.659  1.00  0.00    -0.409 C  
HETATM   23  C   UNL     1      -6.008  11.800  68.796  1.00  0.00    -0.048 A  
HETATM   24  C   UNL     1      -5.554  10.785  67.959  1.00  0.00    -0.039 A  
HETATM   25  C   UNL     1     -10.985   6.488  67.150  1.00  0.00    -0.480 C  
HETATM   26  C   UNL     1      -9.545   6.533  66.644  1.00  0.00    -0.201 C  
HETATM   27  C   UNL     1      -6.463   9.892  67.383  1.00  0.00    -0.068 A  
ENDBRANCH  10  11
ENDBRANCH   9  10
ENDBRANCH   8   9
ENDBRANCH   6   7
ENDBRANCH   3   6
ENDBRANCH   2   3
TORSDOF 7
ENDMDL
MODEL      128
REMARK 921   NORMALIZED FREE ENERGY PREDICTED BY IDOCK:   -4.02 KCAL/MOL
REMARK 922        TOTAL FREE ENERGY PREDICTED BY IDOCK:   -6.90 KCAL/MOL
REMARK 923 INTER-LIGAND FREE ENERGY PREDICTED BY IDOCK:   -5.46 KCAL/MOL
REMARK 924 INTRA-LIGAND FREE ENERGY PREDICTED BY IDOCK:   -1.45 KCAL/MOL
REMARK 927      BINDING AFFINITY PREDICTED BY RF-SCORE:    0.00 PKD
ROOT
HETATM    1  C   UNL     1      -8.171  11.904  66.977  1.00  0.00    -0.170 C  
HETATM    2  C   UNL     1      -9.369  11.895  66.029  1.00  0.00    -0.206 C  
ENDROOT
BRANCH   2   3
HETATM    3  N   UNL     1     -10.637  11.476  66.649  1.00  0.00    -0.242 NA 
BRANCH   3   4
HETATM    4  C   UNL     1     -10.499  10.352  67.591  1.00  0.00    -0.233 C  
HETATM    5  C   UNL     1     -10.491   8.952  66.988  1.00  0.00    -0.326 C  
ENDBRANCH   3   4
BRANCH   3   6
HETATM    6  C   UNL     1     -11.313  12.656  67.218  1.00  0.00    -0.318 C  
BRANCH   6   7
HETATM    7  C   UNL     1     -11.268  13.852  66.281  1.00  0.00    -0.310 C  
HETATM    8  C   UNL     1     -11.229  14.878  65.478  1.00  0.00    -0.348 C  
BRANCH   8   9
HETATM    9  C   UNL     1     -11.173  16.047  64.598  1.00  0.00    -0.330 C  
BRANCH   9  10
HETATM   10  O   UNL     1     -10.114  16.930  64.995  1.00  0.00    -0.314 OA 
BRANCH  10  11
HETATM   11  C   UNL     1     -10.305  17.549  66.201  1.00  0.00    -0.329 C  
HETATM   12  O   UNL     1     -11.264  18.264  66.470  1.00  0.00     0.305 OA 
HETATM   13  C   UNL     1      -9.097  17.246  67.160  1.00  0.00    -0.227 C  
HETATM   14  C   UNL     1      -9.636  16.531  68.417  1.00  0.00    -0.233 A  
HETATM   15  C   UNL     1      -8.373  18.597  67.505  1.00  0.00    -0.279 C  
HETATM   16  O   UNL     1      -8.164  16.364  66.516  1.00  0.00    -0.246 OA 
HETATM   17  H   UNL     1      -7.434  16.181  67.095  1.00  0.00     0.000 HD 
HETATM   18  C   UNL     1      -9.175  15.256  68.795  1.00  0.00    -0.203 A  
HETATM   19  C   UNL     1      -7.180  18.458  68.479  1.00  0.00    -0.298 C  
HETATM   20  C   UNL     1      -9.693  14.598  69.914  1.00  0.00     0.416 A  
HETATM   21  C   UNL     1      -5.901  17.916  67.843  1.00  0.00    -0.156 C  
HETATM   22  C   UNL     1      -5.492  18.697  66.600  1.00  0.00    -0.161 C  
HETATM   23  C   UNL     1     -10.684  15.199  70.682  1.00  0.00    -0.160 A  
HETATM   24  C   UNL     1     -11.151  16.465  70.338  1.00  0.00    -0.246 A  
HETATM   25  C   UNL     1      -6.633  18.875  65.606  1.00  0.00    -0.303 C  
HETATM   26  C   UNL     1      -7.902  19.404  66.271  1.00  0.00    -0.320 C  
HETATM   27  C   UNL     1     -10.627  17.125  69.223  1.00  0.00    -0.220 A  
ENDBRANCH  10  11
ENDBRANCH   9  10
ENDBRANCH   8   9
ENDBRANCH   6   7
ENDBRANCH   3   6
ENDBRANCH   2   3
TORSDOF 7
ENDMDL
MODEL      129
REMARK 921   NORMALIZED FREE ENERGY PREDICTED BY IDOCK:   -4.01 KCAL/MOL
REMARK 922        TOTAL FREE ENERGY PREDICTED BY IDOCK:   -6.89 KCAL/MOL
REMARK 923 INTER-LIGAND FREE ENERGY PREDICTED BY IDOCK:   -6.24 KCAL/MOL
REMARK 924 INTRA-LIGAND FREE ENERGY PREDICTED BY IDOCK:   -0.65 KCAL/MOL
REMARK 927      BINDING AFFINITY PREDICTED BY RF-SCORE:    0.00 PKD
ROOT
HETATM    1  C   UNL     1      -9.461   2.693  64.447  1.00  0.00    -0.145 C  
HETATM    2  C   UNL     1      -8.444   3.467  65.283  1.00  0.00    -0.106 C  
ENDROOT
BRANCH   2   3
HETATM    3  N   UNL     1      -8.606   3.315  66.739  1.00  0.00    -0.110 NA 
BRANCH   3   4
HETATM    4  C   UNL     1      -7.338   3.341  67.487  1.00  0.00    -0.058 C  
HETATM    5  C   UNL     1      -6.061   3.165  66.674  1.00  0.00    -0.024 C  
ENDBRANCH   3   4
BRANCH   3   6
HETATM    6  C   UNL     1      -9.607   4.283  67.220  1.00  0.00    -0.189 C  
BRANCH   6   7
HETATM    7  C   UNL     1      -9.344   5.688  66.703  1.00  0.00    -0.151 C  
HETATM    8  C   UNL     1      -9.118   6.892  66.258  1.00  0.00    -0.170 C  
BRANCH   8   9
HETATM    9  C   UNL     1      -8.835   8.240  65.759  1.00  0.00    -0.155 C  
BRANCH   9  10
HETATM   10  O   UNL     1      -9.880   9.148  66.134  1.00  0.00    -0.269 OA 
BRANCH  10  11
HETATM   11  C   UNL     1      -9.458  10.413  66.446  1.00  0.00    -0.169 C  
HETATM   12  O   UNL     1      -8.342  10.854  66.191  1.00  0.00    -0.162 OA 
HETATM   13  C   UNL     1     -10.591  11.186  67.213  1.00  0.00    -0.239 C  
HETATM   14  C   UNL     1     -10.965  12.443  66.399  1.00  0.00    -0.315 A  
HETATM   15  C   UNL     1     -10.076  11.539  68.655  1.00  0.00    -0.214 C  
HETATM   16  O   UNL     1     -11.763  10.364  67.321  1.00  0.00    -0.326 OA 
HETATM   17  H   UNL     1     -12.448  10.831  67.785  1.00  0.00     0.000 HD 
HETATM   18  C   UNL     1     -12.278  12.661  65.941  1.00  0.00    -0.375 A  
HETATM   19  C   UNL     1     -11.077  12.342  69.518  1.00  0.00    -0.101 C  
HETATM   20  C   UNL     1     -12.603  13.782  65.174  1.00  0.00    -0.471 A  
HETATM   21  C   UNL     1     -12.214  11.510  70.110  1.00  0.00    -0.387 C  
HETATM   22  C   UNL     1     -11.708  10.289  70.868  1.00  0.00    -0.472 C  
HETATM   23  C   UNL     1     -11.623  14.713  64.845  1.00  0.00    -0.405 A  
HETATM   24  C   UNL     1     -10.318  14.528  65.293  1.00  0.00    -0.435 A  
HETATM   25  C   UNL     1     -10.708   9.463  70.069  1.00  0.00    -0.270 C  
HETATM   26  C   UNL     1      -9.591  10.321  69.478  1.00  0.00    -0.225 C  
HETATM   27  C   UNL     1      -9.996  13.409  66.068  1.00  0.00    -0.300 A  
ENDBRANCH  10  11
ENDBRANCH   9  10
ENDBRANCH   8   9
ENDBRANCH   6   7
ENDBRANCH   3   6
ENDBRANCH   2   3
TORSDOF 7
ENDMDL
MODEL      130
REMARK 921   NORMALIZED FREE ENERGY PREDICTED BY IDOCK:   -4.01 KCAL/MOL
REMARK 922        TOTAL FREE ENERGY PREDICTED BY IDOCK:   -6.89 KCAL/MOL
REMARK 923 INTER-LIGAND FREE ENERGY PREDICTED BY IDOCK:   -5.90 KCAL/MOL
REMARK 924 INTRA-LIGAND FREE ENERGY PREDICTED BY IDOCK:   -0.99 KCAL/MOL
REMARK 927      BINDING AFFINITY PREDICTED BY RF-SCORE:    0.00 PKD
ROOT
HETATM    1  C   UNL     1     -11.370   9.771  67.932  1.00  0.00     0.150 C  
HETATM    2  C   UNL     1      -9.925  10.254  67.820  1.00  0.00    -0.173 C  
ENDROOT
BRANCH   2   3
HETATM    3  N   UNL     1      -9.609  10.952  66.562  1.00  0.00    -0.190 NA 
BRANCH   3   4
HETATM    4  C   UNL     1      -8.583  10.280  65.748  1.00  0.00    -0.154 C  
HETATM    5  C   UNL     1      -8.829   8.814  65.411  1.00  0.00    -0.221 C  
ENDBRANCH   3   4
BRANCH   3   6
HETATM    6  C   UNL     1     -10.860  11.236  65.837  1.00  0.00    -0.202 C  
BRANCH   6   7
HETATM    7  C   UNL     1     -10.946  12.683  65.381  1.00  0.00    -0.320 C  
HETATM    8  C   UNL     1     -11.020  13.924  64.991  1.00  0.00    -0.371 C  
BRANCH   8   9
HETATM    9  C   UNL     1     -11.125  15.324  64.572  1.00  0.00    -0.245 C  
BRANCH   9  10
HETATM   10  O   UNL     1     -10.056  16.101  65.130  1.00  0.00    -0.503 OA 
BRANCH  10  11
HETATM   11  C   UNL     1     -10.298  16.594  66.384  1.00  0.00    -0.306 C  
HETATM   12  O   UNL     1     -11.030  17.549  66.624  1.00  0.00    -0.040 OA 
HETATM   13  C   UNL     1      -9.469  15.790  67.449  1.00  0.00    -0.212 C  
HETATM   14  C   UNL     1     -10.450  15.146  68.451  1.00  0.00    -0.233 A  
HETATM   15  C   UNL     1      -8.458  16.770  68.148  1.00  0.00    -0.213 C  
HETATM   16  O   UNL     1      -8.734  14.735  66.809  1.00  0.00    -0.250 OA 
HETATM   17  H   UNL     1      -8.232  14.250  67.453  1.00  0.00     0.000 HD 
HETATM   18  C   UNL     1     -10.488  13.754  68.655  1.00  0.00    -0.245 A  
HETATM   19  C   UNL     1      -7.595  16.122  69.256  1.00  0.00    -0.218 C  
HETATM   20  C   UNL     1     -11.402  13.172  69.537  1.00  0.00    -0.227 A  
HETATM   21  C   UNL     1      -6.437  15.269  68.742  1.00  0.00    -0.097 C  
HETATM   22  C   UNL     1      -5.560  16.017  67.744  1.00  0.00    -0.159 C  
HETATM   23  C   UNL     1     -12.303  13.969  70.236  1.00  0.00    -0.425 A  
HETATM   24  C   UNL     1     -12.281  15.351  70.062  1.00  0.00    -0.392 A  
HETATM   25  C   UNL     1      -6.359  16.686  66.633  1.00  0.00    -0.071 C  
HETATM   26  C   UNL     1      -7.517  17.520  67.175  1.00  0.00    -0.218 C  
HETATM   27  C   UNL     1     -11.359  15.931  69.185  1.00  0.00    -0.366 A  
ENDBRANCH  10  11
ENDBRANCH   9  10
ENDBRANCH   8   9
ENDBRANCH   6   7
ENDBRANCH   3   6
ENDBRANCH   2   3
TORSDOF 7
ENDMDL
MODEL      131
REMARK 921   NORMALIZED FREE ENERGY PREDICTED BY IDOCK:   -4.00 KCAL/MOL
REMARK 922        TOTAL FREE ENERGY PREDICTED BY IDOCK:   -6.88 KCAL/MOL
REMARK 923 INTER-LIGAND FREE ENERGY PREDICTED BY IDOCK:   -6.63 KCAL/MOL
REMARK 924 INTRA-LIGAND FREE ENERGY PREDICTED BY IDOCK:   -0.24 KCAL/MOL
REMARK 927      BINDING AFFINITY PREDICTED BY RF-SCORE:    0.00 PKD
ROOT
HETATM    1  C   UNL     1     -10.686   5.804  70.210  1.00  0.00    -0.380 C  
HETATM    2  C   UNL     1      -9.965   7.145  70.092  1.00  0.00    -0.186 C  
ENDROOT
BRANCH   2   3
HETATM    3  N   UNL     1      -8.515   7.041  69.853  1.00  0.00    -0.139 NA 
BRANCH   3   4
HETATM    4  C   UNL     1      -8.148   6.971  68.429  1.00  0.00    -0.124 C  
HETATM    5  C   UNL     1      -6.668   6.787  68.112  1.00  0.00    -0.068 C  
ENDBRANCH   3   4
BRANCH   3   6
HETATM    6  C   UNL     1      -7.822   8.106  70.599  1.00  0.00    -0.091 C  
BRANCH   6   7
HETATM    7  C   UNL     1      -7.832   9.431  69.855  1.00  0.00    -0.126 C  
HETATM    8  C   UNL     1      -7.842  10.567  69.216  1.00  0.00    -0.144 C  
BRANCH   8   9
HETATM    9  C   UNL     1      -7.858  11.829  68.473  1.00  0.00    -0.144 C  
BRANCH   9  10
HETATM   10  O   UNL     1      -8.889  11.816  67.475  1.00  0.00    -0.153 OA 
BRANCH  10  11
HETATM   11  C   UNL     1     -10.161  11.955  67.962  1.00  0.00    -0.195 C  
HETATM   12  O   UNL     1     -10.694  11.173  68.743  1.00  0.00    -0.178 OA 
HETATM   13  C   UNL     1     -10.841  13.226  67.338  1.00  0.00    -0.267 C  
HETATM   14  C   UNL     1     -11.224  14.189  68.481  1.00  0.00    -0.285 A  
HETATM   15  C   UNL     1     -12.089  12.771  66.497  1.00  0.00    -0.338 C  
HETATM   16  O   UNL     1      -9.918  13.908  66.475  1.00  0.00    -0.269 OA 
HETATM   17  H   UNL     1     -10.329  14.676  66.098  1.00  0.00     0.000 HD 
HETATM   18  C   UNL     1     -10.729  15.506  68.532  1.00  0.00    -0.259 A  
HETATM   19  C   UNL     1     -12.887  13.927  65.851  1.00  0.00    -0.387 C  
HETATM   20  C   UNL     1     -11.050  16.363  69.589  1.00  0.00    -0.306 A  
HETATM   21  C   UNL     1     -12.242  14.524  64.601  1.00  0.00    -0.474 C  
HETATM   22  C   UNL     1     -11.895  13.463  63.563  1.00  0.00    -0.399 C  
HETATM   23  C   UNL     1     -11.873  15.923  70.621  1.00  0.00    -0.398 A  
HETATM   24  C   UNL     1     -12.385  14.629  70.590  1.00  0.00    -0.398 A  
HETATM   25  C   UNL     1     -11.115  12.291  64.146  1.00  0.00    -0.423 C  
HETATM   26  C   UNL     1     -11.775  11.724  65.401  1.00  0.00    -0.117 C  
HETATM   27  C   UNL     1     -12.070  13.776  69.528  1.00  0.00    -0.386 A  
ENDBRANCH  10  11
ENDBRANCH   9  10
ENDBRANCH   8   9
ENDBRANCH   6   7
ENDBRANCH   3   6
ENDBRANCH   2   3
TORSDOF 7
ENDMDL
MODEL      132
REMARK 921   NORMALIZED FREE ENERGY PREDICTED BY IDOCK:   -4.00 KCAL/MOL
REMARK 922        TOTAL FREE ENERGY PREDICTED BY IDOCK:   -6.87 KCAL/MOL
REMARK 923 INTER-LIGAND FREE ENERGY PREDICTED BY IDOCK:   -5.58 KCAL/MOL
REMARK 924 INTRA-LIGAND FREE ENERGY PREDICTED BY IDOCK:   -1.30 KCAL/MOL
REMARK 927      BINDING AFFINITY PREDICTED BY RF-SCORE:    0.00 PKD
ROOT
HETATM    1  C   UNL     1     -12.202  13.023  63.462  1.00  0.00    -0.580 C  
HETATM    2  C   UNL     1     -12.412  12.608  64.916  1.00  0.00    -0.494 C  
ENDROOT
BRANCH   2   3
HETATM    3  N   UNL     1     -11.490  13.246  65.873  1.00  0.00    -0.322 NA 
BRANCH   3   4
HETATM    4  C   UNL     1     -11.811  12.973  67.284  1.00  0.00    -0.363 C  
HETATM    5  C   UNL     1     -11.663  14.137  68.256  1.00  0.00    -0.383 C  
ENDBRANCH   3   4
BRANCH   3   6
HETATM    6  C   UNL     1     -10.102  12.920  65.500  1.00  0.00    -0.257 C  
BRANCH   6   7
HETATM    7  C   UNL     1      -9.862  11.422  65.424  1.00  0.00    -0.277 C  
HETATM    8  C   UNL     1      -9.655  10.136  65.359  1.00  0.00    -0.325 C  
BRANCH   8   9
HETATM    9  C   UNL     1      -9.397   8.697  65.273  1.00  0.00     0.143 C  
BRANCH   9  10
HETATM   10  O   UNL     1      -9.670   8.059  66.529  1.00  0.00    -0.221 OA 
BRANCH  10  11
HETATM   11  C   UNL     1      -8.637   8.093  67.427  1.00  0.00    -0.125 C  
HETATM   12  O   UNL     1      -7.566   7.514  67.275  1.00  0.00    -0.103 OA 
HETATM   13  C   UNL     1      -9.046   8.936  68.688  1.00  0.00    -0.137 C  
HETATM   14  C   UNL     1      -8.065  10.120  68.826  1.00  0.00    -0.111 A  
HETATM   15  C   UNL     1      -9.033   7.999  69.950  1.00  0.00    -0.145 C  
HETATM   16  O   UNL     1     -10.366   9.474  68.516  1.00  0.00    -0.193 OA 
HETATM   17  H   UNL     1     -10.614   9.983  69.278  1.00  0.00     0.000 HD 
HETATM   18  C   UNL     1      -8.515  11.454  68.823  1.00  0.00    -0.089 A  
HETATM   19  C   UNL     1      -9.379   8.707  71.281  1.00  0.00    -0.288 C  
HETATM   20  C   UNL     1      -7.619  12.523  68.912  1.00  0.00     0.047 A  
HETATM   21  C   UNL     1     -10.868   8.986  71.483  1.00  0.00    -0.416 C  
HETATM   22  C   UNL     1     -11.724   7.738  71.297  1.00  0.00    -0.311 C  
HETATM   23  C   UNL     1      -6.252  12.284  69.005  1.00  0.00    -0.082 A  
HETATM   24  C   UNL     1      -5.780  10.974  69.021  1.00  0.00    -0.040 A  
HETATM   25  C   UNL     1     -11.419   6.993  70.004  1.00  0.00    -0.262 C  
HETATM   26  C   UNL     1      -9.924   6.740  69.822  1.00  0.00    -0.189 C  
HETATM   27  C   UNL     1      -6.678   9.906  68.941  1.00  0.00    -0.053 A  
ENDBRANCH  10  11
ENDBRANCH   9  10
ENDBRANCH   8   9
ENDBRANCH   6   7
ENDBRANCH   3   6
ENDBRANCH   2   3
TORSDOF 7
ENDMDL
MODEL      133
REMARK 921   NORMALIZED FREE ENERGY PREDICTED BY IDOCK:   -3.99 KCAL/MOL
REMARK 922        TOTAL FREE ENERGY PREDICTED BY IDOCK:   -6.87 KCAL/MOL
REMARK 923 INTER-LIGAND FREE ENERGY PREDICTED BY IDOCK:   -5.71 KCAL/MOL
REMARK 924 INTRA-LIGAND FREE ENERGY PREDICTED BY IDOCK:   -1.17 KCAL/MOL
REMARK 927      BINDING AFFINITY PREDICTED BY RF-SCORE:    0.00 PKD
ROOT
HETATM    1  C   UNL     1     -10.664  19.416  67.201  1.00  0.00    -0.593 C  
HETATM    2  C   UNL     1      -9.916  18.166  67.659  1.00  0.00    -0.337 C  
ENDROOT
BRANCH   2   3
HETATM    3  N   UNL     1      -9.695  17.163  66.602  1.00  0.00    -0.264 NA 
BRANCH   3   4
HETATM    4  C   UNL     1     -10.638  17.265  65.476  1.00  0.00    -0.127 C  
HETATM    5  C   UNL     1     -10.997  15.966  64.765  1.00  0.00    -0.392 C  
ENDBRANCH   3   4
BRANCH   3   6
HETATM    6  C   UNL     1      -8.277  17.184  66.202  1.00  0.00    -0.234 C  
BRANCH   6   7
HETATM    7  C   UNL     1      -7.452  16.152  66.951  1.00  0.00    -0.266 C  
HETATM    8  C   UNL     1      -6.744  15.266  67.595  1.00  0.00    -0.198 C  
BRANCH   8   9
HETATM    9  C   UNL     1      -5.943  14.291  68.339  1.00  0.00    -0.103 C  
BRANCH   9  10
HETATM   10  O   UNL     1      -6.734  13.146  68.686  1.00  0.00    -0.083 OA 
BRANCH  10  11
HETATM   11  C   UNL     1      -6.900  12.235  67.677  1.00  0.00    -0.124 C  
HETATM   12  O   UNL     1      -6.158  12.133  66.706  1.00  0.00    -0.204 OA 
HETATM   13  C   UNL     1      -8.197  11.384  67.927  1.00  0.00    -0.132 C  
HETATM   14  C   UNL     1      -7.795   9.898  68.035  1.00  0.00    -0.086 A  
HETATM   15  C   UNL     1      -9.208  11.645  66.752  1.00  0.00    -0.190 C  
HETATM   16  O   UNL     1      -8.809  11.768  69.167  1.00  0.00    -0.360 OA 
HETATM   17  H   UNL     1      -9.593  11.254  69.318  1.00  0.00     0.000 HD 
HETATM   18  C   UNL     1      -8.081   9.138  69.186  1.00  0.00    -0.105 A  
HETATM   19  C   UNL     1     -10.523  10.838  66.843  1.00  0.00    -0.304 C  
HETATM   20  C   UNL     1      -7.683   7.803  69.293  1.00  0.00    -0.100 A  
HETATM   21  C   UNL     1     -11.533  11.380  67.854  1.00  0.00    -0.361 C  
HETATM   22  C   UNL     1     -11.823  12.862  67.649  1.00  0.00    -0.400 C  
HETATM   23  C   UNL     1      -6.988   7.195  68.254  1.00  0.00    -0.076 A  
HETATM   24  C   UNL     1      -6.700   7.919  67.100  1.00  0.00    -0.068 A  
HETATM   25  C   UNL     1     -10.561  13.708  67.541  1.00  0.00    -0.243 C  
HETATM   26  C   UNL     1      -9.565  13.135  66.535  1.00  0.00    -0.268 C  
HETATM   27  C   UNL     1      -7.107   9.252  66.990  1.00  0.00    -0.086 A  
ENDBRANCH  10  11
ENDBRANCH   9  10
ENDBRANCH   8   9
ENDBRANCH   6   7
ENDBRANCH   3   6
ENDBRANCH   2   3
TORSDOF 7
ENDMDL
MODEL      134
REMARK 921   NORMALIZED FREE ENERGY PREDICTED BY IDOCK:   -3.98 KCAL/MOL
REMARK 922        TOTAL FREE ENERGY PREDICTED BY IDOCK:   -6.86 KCAL/MOL
REMARK 923 INTER-LIGAND FREE ENERGY PREDICTED BY IDOCK:   -5.40 KCAL/MOL
REMARK 924 INTRA-LIGAND FREE ENERGY PREDICTED BY IDOCK:   -1.46 KCAL/MOL
REMARK 927      BINDING AFFINITY PREDICTED BY RF-SCORE:    0.00 PKD
ROOT
HETATM    1  C   UNL     1     -10.476  14.633  67.606  1.00  0.00    -0.243 C  
HETATM    2  C   UNL     1     -11.614  13.716  67.164  1.00  0.00    -0.361 C  
ENDROOT
BRANCH   2   3
HETATM    3  N   UNL     1     -12.061  13.921  65.776  1.00  0.00    -0.400 NA 
BRANCH   3   4
HETATM    4  C   UNL     1     -11.129  14.717  64.960  1.00  0.00    -0.394 C  
HETATM    5  C   UNL     1     -11.678  16.005  64.356  1.00  0.00    -0.134 C  
ENDBRANCH   3   4
BRANCH   3   6
HETATM    6  C   UNL     1     -12.418  12.620  65.184  1.00  0.00    -0.463 C  
BRANCH   6   7
HETATM    7  C   UNL     1     -11.281  12.029  64.366  1.00  0.00    -0.406 C  
HETATM    8  C   UNL     1     -10.307  11.523  63.664  1.00  0.00    -0.467 C  
BRANCH   8   9
HETATM    9  C   UNL     1      -9.227  10.957  62.850  1.00  0.00    -0.332 C  
BRANCH   9  10
HETATM   10  O   UNL     1      -8.802   9.694  63.382  1.00  0.00    -0.217 OA 
BRANCH  10  11
HETATM   11  C   UNL     1      -7.995   9.778  64.485  1.00  0.00    -0.144 C  
HETATM   12  O   UNL     1      -6.972  10.452  64.547  1.00  0.00    -0.104 OA 
HETATM   13  C   UNL     1      -8.548   8.853  65.629  1.00  0.00    -0.166 C  
HETATM   14  C   UNL     1      -8.863   9.729  66.859  1.00  0.00    -0.150 A  
HETATM   15  C   UNL     1      -7.480   7.743  65.943  1.00  0.00    -0.081 C  
HETATM   16  O   UNL     1      -9.769   8.224  65.209  1.00  0.00    -0.079 OA 
HETATM   17  H   UNL     1     -10.103   7.665  65.900  1.00  0.00     0.000 HD 
HETATM   18  C   UNL     1     -10.155   9.780  67.417  1.00  0.00    -0.259 A  
HETATM   19  C   UNL     1      -7.873   6.776  67.084  1.00  0.00    -0.112 C  
HETATM   20  C   UNL     1     -10.444  10.602  68.509  1.00  0.00    -0.212 A  
HETATM   21  C   UNL     1      -8.892   5.708  66.688  1.00  0.00    -0.119 C  
HETATM   22  C   UNL     1      -8.468   4.932  65.446  1.00  0.00    -0.133 C  
HETATM   23  C   UNL     1      -9.448  11.395  69.070  1.00  0.00     0.020 A  
HETATM   24  C   UNL     1      -8.159  11.357  68.545  1.00  0.00    -0.149 A  
HETATM   25  C   UNL     1      -8.060   5.835  64.290  1.00  0.00    -0.127 C  
HETATM   26  C   UNL     1      -7.053   6.901  64.716  1.00  0.00    -0.060 C  
HETATM   27  C   UNL     1      -7.870  10.527  67.458  1.00  0.00    -0.106 A  
ENDBRANCH  10  11
ENDBRANCH   9  10
ENDBRANCH   8   9
ENDBRANCH   6   7
ENDBRANCH   3   6
ENDBRANCH   2   3
TORSDOF 7
ENDMDL
MODEL      135
REMARK 921   NORMALIZED FREE ENERGY PREDICTED BY IDOCK:   -3.98 KCAL/MOL
REMARK 922        TOTAL FREE ENERGY PREDICTED BY IDOCK:   -6.86 KCAL/MOL
REMARK 923 INTER-LIGAND FREE ENERGY PREDICTED BY IDOCK:   -5.17 KCAL/MOL
REMARK 924 INTRA-LIGAND FREE ENERGY PREDICTED BY IDOCK:   -1.69 KCAL/MOL
REMARK 927      BINDING AFFINITY PREDICTED BY RF-SCORE:    0.00 PKD
ROOT
HETATM    1  C   UNL     1      -6.419   7.757  66.942  1.00  0.00    -0.055 C  
HETATM    2  C   UNL     1      -6.719   7.684  68.438  1.00  0.00    -0.061 C  
ENDROOT
BRANCH   2   3
HETATM    3  N   UNL     1      -8.145   7.823  68.784  1.00  0.00    -0.125 NA 
BRANCH   3   4
HETATM    4  C   UNL     1      -8.868   6.543  68.859  1.00  0.00    -0.126 C  
HETATM    5  C   UNL     1      -9.835   6.371  70.025  1.00  0.00    -0.193 C  
ENDBRANCH   3   4
BRANCH   3   6
HETATM    6  C   UNL     1      -8.271   8.655  69.993  1.00  0.00    -0.122 C  
BRANCH   6   7
HETATM    7  C   UNL     1      -7.466   9.940  69.895  1.00  0.00    -0.156 C  
HETATM    8  C   UNL     1      -6.775  11.042  69.812  1.00  0.00    -0.136 C  
BRANCH   8   9
HETATM    9  C   UNL     1      -6.021  12.296  69.729  1.00  0.00    -0.137 C  
BRANCH   9  10
HETATM   10  O   UNL     1      -6.800  13.312  69.082  1.00  0.00    -0.105 OA 
BRANCH  10  11
HETATM   11  C   UNL     1      -7.240  12.986  67.827  1.00  0.00    -0.139 C  
HETATM   12  O   UNL     1      -6.514  12.612  66.913  1.00  0.00    -0.131 OA 
HETATM   13  C   UNL     1      -8.792  13.209  67.726  1.00  0.00    -0.191 C  
HETATM   14  C   UNL     1      -9.459  11.863  67.371  1.00  0.00    -0.175 A  
HETATM   15  C   UNL     1      -9.075  14.318  66.648  1.00  0.00    -0.249 C  
HETATM   16  O   UNL     1      -9.314  13.641  68.992  1.00  0.00    -0.396 OA 
HETATM   17  H   UNL     1     -10.252  13.775  68.931  1.00  0.00     0.000 HD 
HETATM   18  C   UNL     1     -10.437  11.283  68.201  1.00  0.00    -0.215 A  
HETATM   19  C   UNL     1     -10.574  14.617  66.410  1.00  0.00    -0.301 C  
HETATM   20  C   UNL     1     -11.012  10.047  67.894  1.00  0.00    -0.311 A  
HETATM   21  C   UNL     1     -11.230  15.476  67.490  1.00  0.00    -0.272 C  
HETATM   22  C   UNL     1     -10.459  16.764  67.757  1.00  0.00    -0.335 C  
HETATM   23  C   UNL     1     -10.621   9.359  66.750  1.00  0.00    -0.210 A  
HETATM   24  C   UNL     1      -9.663   9.914  65.905  1.00  0.00    -0.326 A  
HETATM   25  C   UNL     1      -8.972  16.531  67.990  1.00  0.00    -0.204 C  
HETATM   26  C   UNL     1      -8.346  15.659  66.904  1.00  0.00    -0.287 C  
HETATM   27  C   UNL     1      -9.095  11.155  66.209  1.00  0.00    -0.207 A  
ENDBRANCH  10  11
ENDBRANCH   9  10
ENDBRANCH   8   9
ENDBRANCH   6   7
ENDBRANCH   3   6
ENDBRANCH   2   3
TORSDOF 7
ENDMDL
MODEL      136
REMARK 921   NORMALIZED FREE ENERGY PREDICTED BY IDOCK:   -3.98 KCAL/MOL
REMARK 922        TOTAL FREE ENERGY PREDICTED BY IDOCK:   -6.85 KCAL/MOL
REMARK 923 INTER-LIGAND FREE ENERGY PREDICTED BY IDOCK:   -6.30 KCAL/MOL
REMARK 924 INTRA-LIGAND FREE ENERGY PREDICTED BY IDOCK:   -0.56 KCAL/MOL
REMARK 927      BINDING AFFINITY PREDICTED BY RF-SCORE:    0.00 PKD
ROOT
HETATM    1  C   UNL     1      -7.623  19.974  65.821  1.00  0.00    -0.284 C  
HETATM    2  C   UNL     1      -8.037  19.855  67.287  1.00  0.00    -0.306 C  
ENDROOT
BRANCH   2   3
HETATM    3  N   UNL     1      -8.398  18.491  67.712  1.00  0.00    -0.256 NA 
BRANCH   3   4
HETATM    4  C   UNL     1      -9.835  18.192  67.602  1.00  0.00    -0.312 C  
HETATM    5  C   UNL     1     -10.785  19.384  67.612  1.00  0.00    -0.536 C  
ENDBRANCH   3   4
BRANCH   3   6
HETATM    6  C   UNL     1      -7.528  17.522  67.022  1.00  0.00    -0.200 C  
BRANCH   6   7
HETATM    7  C   UNL     1      -8.228  16.197  66.771  1.00  0.00    -0.304 C  
HETATM    8  C   UNL     1      -8.830  15.060  66.556  1.00  0.00    -0.286 C  
BRANCH   8   9
HETATM    9  C   UNL     1      -9.505  13.778  66.343  1.00  0.00    -0.243 C  
BRANCH   9  10
HETATM   10  O   UNL     1      -8.662  12.689  66.747  1.00  0.00    -0.199 OA 
BRANCH  10  11
HETATM   11  C   UNL     1      -9.153  11.445  66.456  1.00  0.00    -0.186 C  
HETATM   12  O   UNL     1      -9.477  11.072  65.333  1.00  0.00    -0.205 OA 
HETATM   13  C   UNL     1      -9.282  10.595  67.771  1.00  0.00    -0.146 C  
HETATM   14  C   UNL     1      -8.402   9.335  67.630  1.00  0.00    -0.116 A  
HETATM   15  C   UNL     1     -10.796  10.243  68.001  1.00  0.00    -0.325 C  
HETATM   16  O   UNL     1      -8.799  11.348  68.895  1.00  0.00    -0.329 OA 
HETATM   17  H   UNL     1      -8.877  10.834  69.690  1.00  0.00     0.000 HD 
HETATM   18  C   UNL     1      -7.367   9.053  68.540  1.00  0.00    -0.077 A  
HETATM   19  C   UNL     1     -11.073   9.370  69.246  1.00  0.00    -0.068 C  
HETATM   20  C   UNL     1      -6.550   7.929  68.387  1.00  0.00    -0.062 A  
HETATM   21  C   UNL     1     -11.030  10.125  70.574  1.00  0.00    -0.380 C  
HETATM   22  C   UNL     1     -11.926  11.358  70.572  1.00  0.00    -0.451 C  
HETATM   23  C   UNL     1      -6.747   7.062  67.318  1.00  0.00    -0.067 A  
HETATM   24  C   UNL     1      -7.771   7.311  66.408  1.00  0.00    -0.093 A  
HETATM   25  C   UNL     1     -11.704  12.253  69.359  1.00  0.00    -0.392 C  
HETATM   26  C   UNL     1     -11.738  11.471  68.049  1.00  0.00    -0.343 C  
HETATM   27  C   UNL     1      -8.593   8.430  66.568  1.00  0.00    -0.128 A  
ENDBRANCH  10  11
ENDBRANCH   9  10
ENDBRANCH   8   9
ENDBRANCH   6   7
ENDBRANCH   3   6
ENDBRANCH   2   3
TORSDOF 7
ENDMDL
MODEL      137
REMARK 921   NORMALIZED FREE ENERGY PREDICTED BY IDOCK:   -3.98 KCAL/MOL
REMARK 922        TOTAL FREE ENERGY PREDICTED BY IDOCK:   -6.85 KCAL/MOL
REMARK 923 INTER-LIGAND FREE ENERGY PREDICTED BY IDOCK:   -6.34 KCAL/MOL
REMARK 924 INTRA-LIGAND FREE ENERGY PREDICTED BY IDOCK:   -0.50 KCAL/MOL
REMARK 927      BINDING AFFINITY PREDICTED BY RF-SCORE:    0.00 PKD
ROOT
HETATM    1  C   UNL     1      -5.128   4.999  69.190  1.00  0.00     0.000 C  
HETATM    2  C   UNL     1      -5.996   6.201  68.822  1.00  0.00    -0.024 C  
ENDROOT
BRANCH   2   3
HETATM    3  N   UNL     1      -7.430   6.033  69.117  1.00  0.00    -0.084 NA 
BRANCH   3   4
HETATM    4  C   UNL     1      -7.825   4.641  69.384  1.00  0.00    -0.062 C  
HETATM    5  C   UNL     1      -9.274   4.410  69.800  1.00  0.00    -0.199 C  
ENDBRANCH   3   4
BRANCH   3   6
HETATM    6  C   UNL     1      -7.822   6.983  70.174  1.00  0.00    -0.109 C  
BRANCH   6   7
HETATM    7  C   UNL     1      -8.887   7.960  69.704  1.00  0.00    -0.138 C  
HETATM    8  C   UNL     1      -9.800   8.798  69.300  1.00  0.00    -0.180 C  
BRANCH   8   9
HETATM    9  C   UNL     1     -10.807   9.763  68.851  1.00  0.00    -0.192 C  
BRANCH   9  10
HETATM   10  O   UNL     1     -10.785  10.937  69.675  1.00  0.00    -0.238 OA 
BRANCH  10  11
HETATM   11  C   UNL     1     -11.913  11.710  69.604  1.00  0.00    -0.324 C  
HETATM   12  O   UNL     1     -13.056  11.280  69.720  1.00  0.00     0.168 OA 
HETATM   13  C   UNL     1     -11.526  13.203  69.307  1.00  0.00    -0.291 C  
HETATM   14  C   UNL     1     -12.040  14.083  70.466  1.00  0.00    -0.424 A  
HETATM   15  C   UNL     1     -12.141  13.620  67.923  1.00  0.00    -0.318 C  
HETATM   16  O   UNL     1     -10.098  13.341  69.247  1.00  0.00    -0.399 OA 
HETATM   17  H   UNL     1      -9.864  14.244  69.068  1.00  0.00     0.000 HD 
HETATM   18  C   UNL     1     -11.167  14.882  71.229  1.00  0.00    -0.183 A  
HETATM   19  C   UNL     1     -11.874  15.088  67.515  1.00  0.00    -0.185 C  
HETATM   20  C   UNL     1     -11.633  15.649  72.300  1.00  0.00    -0.534 A  
HETATM   21  C   UNL     1     -10.465  15.354  66.987  1.00  0.00    -0.295 C  
HETATM   22  C   UNL     1     -10.076  14.403  65.861  1.00  0.00    -0.344 C  
HETATM   23  C   UNL     1     -12.983  15.635  72.636  1.00  0.00    -0.554 A  
HETATM   24  C   UNL     1     -13.870  14.862  71.893  1.00  0.00    -0.557 A  
HETATM   25  C   UNL     1     -10.327  12.940  66.204  1.00  0.00    -0.286 C  
HETATM   26  C   UNL     1     -11.737  12.705  66.741  1.00  0.00    -0.460 C  
HETATM   27  C   UNL     1     -13.404  14.102  70.816  1.00  0.00    -0.130 A  
ENDBRANCH  10  11
ENDBRANCH   9  10
ENDBRANCH   8   9
ENDBRANCH   6   7
ENDBRANCH   3   6
ENDBRANCH   2   3
TORSDOF 7
ENDMDL
MODEL      138
REMARK 921   NORMALIZED FREE ENERGY PREDICTED BY IDOCK:   -3.96 KCAL/MOL
REMARK 922        TOTAL FREE ENERGY PREDICTED BY IDOCK:   -6.82 KCAL/MOL
REMARK 923 INTER-LIGAND FREE ENERGY PREDICTED BY IDOCK:   -5.86 KCAL/MOL
REMARK 924 INTRA-LIGAND FREE ENERGY PREDICTED BY IDOCK:   -0.95 KCAL/MOL
REMARK 927      BINDING AFFINITY PREDICTED BY RF-SCORE:    0.00 PKD
ROOT
HETATM    1  C   UNL     1      -6.703   6.359  68.709  1.00  0.00    -0.061 C  
HETATM    2  C   UNL     1      -7.562   6.984  67.611  1.00  0.00    -0.110 C  
ENDROOT
BRANCH   2   3
HETATM    3  N   UNL     1      -8.935   7.320  68.025  1.00  0.00    -0.132 NA 
BRANCH   3   4
HETATM    4  C   UNL     1      -9.662   6.201  68.647  1.00  0.00    -0.128 C  
HETATM    5  C   UNL     1     -11.160   6.392  68.859  1.00  0.00    -0.420 C  
ENDBRANCH   3   4
BRANCH   3   6
HETATM    6  C   UNL     1      -8.910   8.547  68.841  1.00  0.00    -0.139 C  
BRANCH   6   7
HETATM    7  C   UNL     1      -9.716   9.672  68.214  1.00  0.00    -0.162 C  
HETATM    8  C   UNL     1     -10.409  10.637  67.677  1.00  0.00    -0.246 C  
BRANCH   8   9
HETATM    9  C   UNL     1     -11.204  11.702  67.061  1.00  0.00    -0.314 C  
BRANCH   9  10
HETATM   10  O   UNL     1     -10.939  12.962  67.693  1.00  0.00    -0.236 OA 
BRANCH  10  11
HETATM   11  C   UNL     1     -10.241  13.855  66.925  1.00  0.00    -0.257 C  
HETATM   12  O   UNL     1     -10.333  13.940  65.704  1.00  0.00    -0.302 OA 
HETATM   13  C   UNL     1      -9.280  14.709  67.828  1.00  0.00    -0.196 C  
HETATM   14  C   UNL     1      -9.660  16.197  67.679  1.00  0.00    -0.222 A  
HETATM   15  C   UNL     1      -7.795  14.425  67.398  1.00  0.00    -0.211 C  
HETATM   16  O   UNL     1      -9.447  14.346  69.207  1.00  0.00    -0.401 OA 
HETATM   17  H   UNL     1      -8.866  14.862  69.753  1.00  0.00     0.000 HD 
HETATM   18  C   UNL     1     -10.039  16.976  68.789  1.00  0.00    -0.307 A  
HETATM   19  C   UNL     1      -6.733  15.233  68.179  1.00  0.00    -0.137 C  
HETATM   20  C   UNL     1     -10.417  18.313  68.643  1.00  0.00    -0.185 A  
HETATM   21  C   UNL     1      -6.443  14.707  69.585  1.00  0.00    -0.149 C  
HETATM   22  C   UNL     1      -6.103  13.221  69.592  1.00  0.00    -0.118 C  
HETATM   23  C   UNL     1     -10.427  18.904  67.384  1.00  0.00    -0.520 A  
HETATM   24  C   UNL     1     -10.047  18.160  66.270  1.00  0.00    -0.373 A  
HETATM   25  C   UNL     1      -7.112  12.375  68.826  1.00  0.00    -0.098 C  
HETATM   26  C   UNL     1      -7.393  12.931  67.432  1.00  0.00    -0.132 C  
HETATM   27  C   UNL     1      -9.661  16.824  66.418  1.00  0.00    -0.309 A  
ENDBRANCH  10  11
ENDBRANCH   9  10
ENDBRANCH   8   9
ENDBRANCH   6   7
ENDBRANCH   3   6
ENDBRANCH   2   3
TORSDOF 7
ENDMDL
MODEL      139
REMARK 921   NORMALIZED FREE ENERGY PREDICTED BY IDOCK:   -3.93 KCAL/MOL
REMARK 922        TOTAL FREE ENERGY PREDICTED BY IDOCK:   -6.79 KCAL/MOL
REMARK 923 INTER-LIGAND FREE ENERGY PREDICTED BY IDOCK:   -6.27 KCAL/MOL
REMARK 924 INTRA-LIGAND FREE ENERGY PREDICTED BY IDOCK:   -0.51 KCAL/MOL
REMARK 927      BINDING AFFINITY PREDICTED BY RF-SCORE:    0.00 PKD
ROOT
HETATM    1  C   UNL     1      -9.545  17.933  66.638  1.00  0.00    -0.311 C  
HETATM    2  C   UNL     1     -10.503  17.774  67.816  1.00  0.00    -0.397 C  
ENDROOT
BRANCH   2   3
HETATM    3  N   UNL     1     -10.496  16.436  68.434  1.00  0.00    -0.281 NA 
BRANCH   3   4
HETATM    4  C   UNL     1     -11.635  16.189  69.334  1.00  0.00    -0.261 C  
HETATM    5  C   UNL     1     -11.318  16.079  70.822  1.00  0.00    -0.427 C  
ENDBRANCH   3   4
BRANCH   3   6
HETATM    6  C   UNL     1     -10.330  15.417  67.382  1.00  0.00    -0.262 C  
BRANCH   6   7
HETATM    7  C   UNL     1     -10.658  14.019  67.879  1.00  0.00    -0.246 C  
HETATM    8  C   UNL     1     -10.941  12.819  68.304  1.00  0.00    -0.278 C  
BRANCH   8   9
HETATM    9  C   UNL     1     -11.273  11.483  68.805  1.00  0.00    -0.249 C  
BRANCH   9  10
HETATM   10  O   UNL     1     -10.413  10.496  68.219  1.00  0.00    -0.164 OA 
BRANCH  10  11
HETATM   11  C   UNL     1      -9.637   9.807  69.112  1.00  0.00    -0.188 C  
HETATM   12  O   UNL     1      -8.762  10.315  69.807  1.00  0.00    -0.157 OA 
HETATM   13  C   UNL     1      -9.999   8.279  69.076  1.00  0.00    -0.189 C  
HETATM   14  C   UNL     1     -10.476   7.854  70.481  1.00  0.00    -0.214 A  
HETATM   15  C   UNL     1      -8.738   7.470  68.603  1.00  0.00    -0.128 C  
HETATM   16  O   UNL     1     -11.077   8.048  68.155  1.00  0.00    -0.438 OA 
HETATM   17  H   UNL     1     -11.296   7.125  68.133  1.00  0.00     0.000 HD 
HETATM   18  C   UNL     1     -11.753   7.299  70.690  1.00  0.00    -0.310 A  
HETATM   19  C   UNL     1      -8.936   5.937  68.558  1.00  0.00    -0.113 C  
HETATM   20  C   UNL     1     -12.193   6.950  71.970  1.00  0.00    -0.318 A  
HETATM   21  C   UNL     1      -9.729   5.434  67.353  1.00  0.00    -0.153 C  
HETATM   22  C   UNL     1      -9.166   5.944  66.031  1.00  0.00    -0.143 C  
HETATM   23  C   UNL     1     -11.368   7.149  73.072  1.00  0.00    -0.208 A  
HETATM   24  C   UNL     1     -10.096   7.686  72.893  1.00  0.00    -0.343 A  
HETATM   25  C   UNL     1      -8.940   7.450  66.021  1.00  0.00    -0.156 C  
HETATM   26  C   UNL     1      -8.157   7.926  67.243  1.00  0.00    -0.118 C  
HETATM   27  C   UNL     1      -9.654   8.027  71.611  1.00  0.00    -0.218 A  
ENDBRANCH  10  11
ENDBRANCH   9  10
ENDBRANCH   8   9
ENDBRANCH   6   7
ENDBRANCH   3   6
ENDBRANCH   2   3
TORSDOF 7
ENDMDL
MODEL      140
REMARK 921   NORMALIZED FREE ENERGY PREDICTED BY IDOCK:   -3.92 KCAL/MOL
REMARK 922        TOTAL FREE ENERGY PREDICTED BY IDOCK:   -6.77 KCAL/MOL
REMARK 923 INTER-LIGAND FREE ENERGY PREDICTED BY IDOCK:   -5.74 KCAL/MOL
REMARK 924 INTRA-LIGAND FREE ENERGY PREDICTED BY IDOCK:   -1.02 KCAL/MOL
REMARK 927      BINDING AFFINITY PREDICTED BY RF-SCORE:    0.00 PKD
ROOT
HETATM    1  C   UNL     1     -12.901  14.501  72.672  1.00  0.00    -0.498 C  
HETATM    2  C   UNL     1     -13.389  14.017  71.308  1.00  0.00    -0.272 C  
ENDROOT
BRANCH   2   3
HETATM    3  N   UNL     1     -12.381  14.091  70.236  1.00  0.00    -0.348 NA 
BRANCH   3   4
HETATM    4  C   UNL     1     -11.207  14.913  70.576  1.00  0.00    -0.202 C  
HETATM    5  C   UNL     1     -11.030  16.208  69.792  1.00  0.00    -0.349 C  
ENDBRANCH   3   4
BRANCH   3   6
HETATM    6  C   UNL     1     -12.049  12.727  69.787  1.00  0.00    -0.237 C  
BRANCH   6   7
HETATM    7  C   UNL     1     -11.432  12.712  68.399  1.00  0.00    -0.350 C  
HETATM    8  C   UNL     1     -10.904  12.699  67.207  1.00  0.00    -0.277 C  
BRANCH   8   9
HETATM    9  C   UNL     1     -10.335  12.672  65.857  1.00  0.00    -0.276 C  
BRANCH   9  10
HETATM   10  O   UNL     1      -9.705  11.408  65.600  1.00  0.00    -0.216 OA 
BRANCH  10  11
HETATM   11  C   UNL     1      -8.806  11.011  66.552  1.00  0.00    -0.169 C  
HETATM   12  O   UNL     1      -7.973  11.747  67.070  1.00  0.00    -0.155 OA 
HETATM   13  C   UNL     1      -8.970   9.475  66.841  1.00  0.00    -0.131 C  
HETATM   14  C   UNL     1      -9.322   9.291  68.333  1.00  0.00    -0.142 A  
HETATM   15  C   UNL     1      -7.638   8.740  66.447  1.00  0.00    -0.091 C  
HETATM   16  O   UNL     1     -10.051   8.938  66.063  1.00  0.00    -0.421 OA 
HETATM   17  H   UNL     1     -10.150   8.010  66.237  1.00  0.00     0.000 HD 
HETATM   18  C   UNL     1     -10.505   8.644  68.737  1.00  0.00    -0.209 A  
HETATM   19  C   UNL     1      -7.639   7.217  66.715  1.00  0.00    -0.100 C  
HETATM   20  C   UNL     1     -10.836   8.512  70.088  1.00  0.00    -0.238 A  
HETATM   21  C   UNL     1      -8.417   6.392  65.692  1.00  0.00    -0.147 C  
HETATM   22  C   UNL     1      -7.986   6.686  64.259  1.00  0.00    -0.092 C  
HETATM   23  C   UNL     1      -9.993   9.025  71.068  1.00  0.00    -0.349 A  
HETATM   24  C   UNL     1      -8.811   9.661  70.697  1.00  0.00    -0.084 A  
HETATM   25  C   UNL     1      -7.957   8.175  63.939  1.00  0.00    -0.138 C  
HETATM   26  C   UNL     1      -7.186   8.976  64.985  1.00  0.00    -0.092 C  
HETATM   27  C   UNL     1      -8.477   9.785  69.345  1.00  0.00    -0.161 A  
ENDBRANCH  10  11
ENDBRANCH   9  10
ENDBRANCH   8   9
ENDBRANCH   6   7
ENDBRANCH   3   6
ENDBRANCH   2   3
TORSDOF 7
ENDMDL
MODEL      141
REMARK 921   NORMALIZED FREE ENERGY PREDICTED BY IDOCK:   -3.92 KCAL/MOL
REMARK 922        TOTAL FREE ENERGY PREDICTED BY IDOCK:   -6.77 KCAL/MOL
REMARK 923 INTER-LIGAND FREE ENERGY PREDICTED BY IDOCK:   -6.29 KCAL/MOL
REMARK 924 INTRA-LIGAND FREE ENERGY PREDICTED BY IDOCK:   -0.47 KCAL/MOL
REMARK 927      BINDING AFFINITY PREDICTED BY RF-SCORE:    0.00 PKD
ROOT
HETATM    1  C   UNL     1      -9.884  16.365  68.819  1.00  0.00    -0.250 C  
HETATM    2  C   UNL     1     -10.655  16.139  67.520  1.00  0.00    -0.314 C  
ENDROOT
BRANCH   2   3
HETATM    3  N   UNL     1      -9.953  16.591  66.305  1.00  0.00    -0.310 NA 
BRANCH   3   4
HETATM    4  C   UNL     1      -8.538  16.189  66.249  1.00  0.00    -0.338 C  
HETATM    5  C   UNL     1      -7.505  17.305  66.361  1.00  0.00    -0.336 C  
ENDBRANCH   3   4
BRANCH   3   6
HETATM    6  C   UNL     1     -10.736  16.202  65.119  1.00  0.00    -0.371 C  
BRANCH   6   7
HETATM    7  C   UNL     1     -10.672  14.707  64.853  1.00  0.00    -0.447 C  
HETATM    8  C   UNL     1     -10.617  13.425  64.623  1.00  0.00    -0.431 C  
BRANCH   8   9
HETATM    9  C   UNL     1     -10.548  11.990  64.338  1.00  0.00    -0.318 C  
BRANCH   9  10
HETATM   10  O   UNL     1     -10.888  11.225  65.504  1.00  0.00    -0.253 OA 
BRANCH  10  11
HETATM   11  C   UNL     1      -9.891  11.128  66.437  1.00  0.00    -0.211 C  
HETATM   12  O   UNL     1      -9.413  12.082  67.044  1.00  0.00    -0.189 OA 
HETATM   13  C   UNL     1      -9.425   9.634  66.576  1.00  0.00    -0.181 C  
HETATM   14  C   UNL     1      -9.653   9.182  68.033  1.00  0.00    -0.165 A  
HETATM   15  C   UNL     1      -7.916   9.532  66.148  1.00  0.00    -0.107 C  
HETATM   16  O   UNL     1     -10.213   8.790  65.722  1.00  0.00    -0.331 OA 
HETATM   17  H   UNL     1      -9.931   7.887  65.805  1.00  0.00     0.000 HD 
HETATM   18  C   UNL     1     -10.475   8.081  68.344  1.00  0.00    -0.205 A  
HETATM   19  C   UNL     1      -7.306   8.117  66.272  1.00  0.00    -0.078 C  
HETATM   20  C   UNL     1     -10.707   7.698  69.668  1.00  0.00    -0.230 A  
HETATM   21  C   UNL     1      -7.704   7.153  65.155  1.00  0.00    -0.116 C  
HETATM   22  C   UNL     1      -7.447   7.732  63.768  1.00  0.00    -0.108 C  
HETATM   23  C   UNL     1     -10.125   8.407  70.713  1.00  0.00    -0.226 A  
HETATM   24  C   UNL     1      -9.299   9.493  70.435  1.00  0.00    -0.311 A  
HETATM   25  C   UNL     1      -8.018   9.133  63.591  1.00  0.00    -0.146 C  
HETATM   26  C   UNL     1      -7.616  10.069  64.728  1.00  0.00    -0.143 C  
HETATM   27  C   UNL     1      -9.061   9.870  69.110  1.00  0.00    -0.175 A  
ENDBRANCH  10  11
ENDBRANCH   9  10
ENDBRANCH   8   9
ENDBRANCH   6   7
ENDBRANCH   3   6
ENDBRANCH   2   3
TORSDOF 7
ENDMDL
MODEL      142
REMARK 921   NORMALIZED FREE ENERGY PREDICTED BY IDOCK:   -3.90 KCAL/MOL
REMARK 922        TOTAL FREE ENERGY PREDICTED BY IDOCK:   -6.74 KCAL/MOL
REMARK 923 INTER-LIGAND FREE ENERGY PREDICTED BY IDOCK:   -5.45 KCAL/MOL
REMARK 924 INTRA-LIGAND FREE ENERGY PREDICTED BY IDOCK:   -1.29 KCAL/MOL
REMARK 927      BINDING AFFINITY PREDICTED BY RF-SCORE:    0.00 PKD
ROOT
HETATM    1  C   UNL     1     -10.668   7.262  73.205  1.00  0.00    -0.411 C  
HETATM    2  C   UNL     1      -9.162   7.493  73.304  1.00  0.00    -0.205 C  
ENDROOT
BRANCH   2   3
HETATM    3  N   UNL     1      -8.416   7.208  72.066  1.00  0.00    -0.108 NA 
BRANCH   3   4
HETATM    4  C   UNL     1      -8.190   5.774  71.822  1.00  0.00    -0.119 C  
HETATM    5  C   UNL     1      -8.735   5.210  70.514  1.00  0.00    -0.134 C  
ENDBRANCH   3   4
BRANCH   3   6
HETATM    6  C   UNL     1      -9.053   7.916  70.942  1.00  0.00    -0.151 C  
BRANCH   6   7
HETATM    7  C   UNL     1      -8.242   9.116  70.483  1.00  0.00    -0.203 C  
HETATM    8  C   UNL     1      -7.545  10.145  70.088  1.00  0.00    -0.119 C  
BRANCH   8   9
HETATM    9  C   UNL     1      -6.738  11.286  69.651  1.00  0.00    -0.122 C  
BRANCH   9  10
HETATM   10  O   UNL     1      -7.501  12.146  68.792  1.00  0.00    -0.114 OA 
BRANCH  10  11
HETATM   11  C   UNL     1      -7.724  11.651  67.536  1.00  0.00    -0.136 C  
HETATM   12  O   UNL     1      -6.843  11.418  66.715  1.00  0.00    -0.132 OA 
HETATM   13  C   UNL     1      -9.267  11.475  67.292  1.00  0.00    -0.167 C  
HETATM   14  C   UNL     1      -9.549   9.988  66.991  1.00  0.00    -0.212 A  
HETATM   15  C   UNL     1      -9.704  12.416  66.111  1.00  0.00    -0.254 C  
HETATM   16  O   UNL     1      -9.998  11.834  68.474  1.00  0.00    -0.205 OA 
HETATM   17  H   UNL     1     -10.930  11.728  68.327  1.00  0.00     0.000 HD 
HETATM   18  C   UNL     1     -10.434   9.231  67.782  1.00  0.00    -0.313 A  
HETATM   19  C   UNL     1     -11.199  12.319  65.731  1.00  0.00    -0.378 C  
HETATM   20  C   UNL     1     -10.659   7.875  67.528  1.00  0.00    -0.312 A  
HETATM   21  C   UNL     1     -12.146  13.048  66.683  1.00  0.00    -0.386 C  
HETATM   22  C   UNL     1     -11.740  14.500  66.910  1.00  0.00    -0.399 C  
HETATM   23  C   UNL     1     -10.003   7.243  66.476  1.00  0.00    -0.182 A  
HETATM   24  C   UNL     1      -9.131   7.970  65.671  1.00  0.00    -0.049 A  
HETATM   25  C   UNL     1     -10.271  14.657  67.279  1.00  0.00    -0.241 C  
HETATM   26  C   UNL     1      -9.350  13.909  66.319  1.00  0.00    -0.180 C  
HETATM   27  C   UNL     1      -8.913   9.328  65.922  1.00  0.00    -0.225 A  
ENDBRANCH  10  11
ENDBRANCH   9  10
ENDBRANCH   8   9
ENDBRANCH   6   7
ENDBRANCH   3   6
ENDBRANCH   2   3
TORSDOF 7
ENDMDL
MODEL      143
REMARK 921   NORMALIZED FREE ENERGY PREDICTED BY IDOCK:   -3.90 KCAL/MOL
REMARK 922        TOTAL FREE ENERGY PREDICTED BY IDOCK:   -6.74 KCAL/MOL
REMARK 923 INTER-LIGAND FREE ENERGY PREDICTED BY IDOCK:   -5.64 KCAL/MOL
REMARK 924 INTRA-LIGAND FREE ENERGY PREDICTED BY IDOCK:   -1.09 KCAL/MOL
REMARK 927      BINDING AFFINITY PREDICTED BY RF-SCORE:    0.00 PKD
ROOT
HETATM    1  C   UNL     1     -10.315  18.483  67.479  1.00  0.00    -0.440 C  
HETATM    2  C   UNL     1     -10.138  17.256  68.370  1.00  0.00    -0.333 C  
ENDROOT
BRANCH   2   3
HETATM    3  N   UNL     1      -9.815  16.015  67.644  1.00  0.00    -0.233 NA 
BRANCH   3   4
HETATM    4  C   UNL     1     -10.859  15.587  66.698  1.00  0.00    -0.285 C  
HETATM    5  C   UNL     1     -10.437  15.425  65.242  1.00  0.00    -0.440 C  
ENDBRANCH   3   4
BRANCH   3   6
HETATM    6  C   UNL     1      -8.475  16.139  67.044  1.00  0.00    -0.208 C  
BRANCH   6   7
HETATM    7  C   UNL     1      -7.600  14.930  67.332  1.00  0.00    -0.232 C  
HETATM    8  C   UNL     1      -6.850  13.893  67.580  1.00  0.00    -0.148 C  
BRANCH   8   9
HETATM    9  C   UNL     1      -5.993  12.743  67.878  1.00  0.00    -0.118 C  
BRANCH   9  10
HETATM   10  O   UNL     1      -6.555  11.954  68.937  1.00  0.00    -0.073 OA 
BRANCH  10  11
HETATM   11  C   UNL     1      -6.795  10.646  68.613  1.00  0.00    -0.059 C  
HETATM   12  O   UNL     1      -5.943   9.868  68.196  1.00  0.00    -0.043 OA 
HETATM   13  C   UNL     1      -8.317  10.312  68.808  1.00  0.00    -0.125 C  
HETATM   14  C   UNL     1      -8.441   9.177  69.847  1.00  0.00    -0.151 A  
HETATM   15  C   UNL     1      -8.932   9.916  67.417  1.00  0.00    -0.144 C  
HETATM   16  O   UNL     1      -9.013  11.458  69.320  1.00  0.00    -0.382 OA 
HETATM   17  H   UNL     1      -9.934  11.256  69.438  1.00  0.00     0.000 HD 
HETATM   18  C   UNL     1      -9.182   9.341  71.033  1.00  0.00    -0.273 A  
HETATM   19  C   UNL     1     -10.426   9.521  67.461  1.00  0.00    -0.336 C  
HETATM   20  C   UNL     1      -9.261   8.324  71.988  1.00  0.00    -0.270 A  
HETATM   21  C   UNL     1     -11.392  10.699  67.572  1.00  0.00    -0.241 C  
HETATM   22  C   UNL     1     -11.147  11.755  66.501  1.00  0.00    -0.364 C  
HETATM   23  C   UNL     1      -8.601   7.117  71.780  1.00  0.00    -0.119 A  
HETATM   24  C   UNL     1      -7.869   6.924  70.611  1.00  0.00    -0.101 A  
HETATM   25  C   UNL     1      -9.687  12.178  66.404  1.00  0.00    -0.243 C  
HETATM   26  C   UNL     1      -8.743  10.981  66.309  1.00  0.00    -0.178 C  
HETATM   27  C   UNL     1      -7.798   7.940  69.653  1.00  0.00    -0.105 A  
ENDBRANCH  10  11
ENDBRANCH   9  10
ENDBRANCH   8   9
ENDBRANCH   6   7
ENDBRANCH   3   6
ENDBRANCH   2   3
TORSDOF 7
ENDMDL
MODEL      144
REMARK 921   NORMALIZED FREE ENERGY PREDICTED BY IDOCK:   -3.89 KCAL/MOL
REMARK 922        TOTAL FREE ENERGY PREDICTED BY IDOCK:   -6.72 KCAL/MOL
REMARK 923 INTER-LIGAND FREE ENERGY PREDICTED BY IDOCK:   -5.37 KCAL/MOL
REMARK 924 INTRA-LIGAND FREE ENERGY PREDICTED BY IDOCK:   -1.35 KCAL/MOL
REMARK 927      BINDING AFFINITY PREDICTED BY RF-SCORE:    0.00 PKD
ROOT
HETATM    1  C   UNL     1      -8.651  10.365  62.865  1.00  0.00    -0.197 C  
HETATM    2  C   UNL     1      -9.759  10.200  63.903  1.00  0.00    -0.169 C  
ENDROOT
BRANCH   2   3
HETATM    3  N   UNL     1      -9.847  11.294  64.885  1.00  0.00    -0.250 NA 
BRANCH   3   4
HETATM    4  C   UNL     1     -11.150  11.978  64.902  1.00  0.00    -0.316 C  
HETATM    5  C   UNL     1     -11.476  12.797  66.146  1.00  0.00    -0.399 C  
ENDBRANCH   3   4
BRANCH   3   6
HETATM    6  C   UNL     1      -9.411  10.800  66.203  1.00  0.00    -0.187 C  
BRANCH   6   7
HETATM    7  C   UNL     1      -9.917   9.395  66.487  1.00  0.00    -0.339 C  
HETATM    8  C   UNL     1     -10.350   8.190  66.729  1.00  0.00    -0.361 C  
BRANCH   8   9
HETATM    9  C   UNL     1     -10.861   6.841  66.985  1.00  0.00    -0.383 C  
BRANCH   9  10
HETATM   10  O   UNL     1     -10.663   6.477  68.358  1.00  0.00    -0.225 OA 
BRANCH  10  11
HETATM   11  C   UNL     1      -9.353   6.412  68.752  1.00  0.00    -0.125 C  
HETATM   12  O   UNL     1      -8.503   5.706  68.219  1.00  0.00    -0.105 OA 
HETATM   13  C   UNL     1      -9.120   7.331  70.005  1.00  0.00    -0.148 C  
HETATM   14  C   UNL     1      -8.060   8.393  69.644  1.00  0.00    -0.115 A  
HETATM   15  C   UNL     1      -8.677   6.433  71.216  1.00  0.00    -0.135 C  
HETATM   16  O   UNL     1     -10.334   8.017  70.347  1.00  0.00    -0.200 OA 
HETATM   17  H   UNL     1     -10.193   8.572  71.105  1.00  0.00     0.000 HD 
HETATM   18  C   UNL     1      -8.338   9.771  69.726  1.00  0.00    -0.189 A  
HETATM   19  C   UNL     1      -8.372   7.212  72.517  1.00  0.00    -0.120 C  
HETATM   20  C   UNL     1      -7.387  10.728  69.364  1.00  0.00    -0.128 A  
HETATM   21  C   UNL     1      -9.609   7.671  73.288  1.00  0.00    -0.326 C  
HETATM   22  C   UNL     1     -10.582   6.530  73.559  1.00  0.00    -0.312 C  
HETATM   23  C   UNL     1      -6.134  10.331  68.908  1.00  0.00    -0.040 A  
HETATM   24  C   UNL     1      -5.828   8.975  68.827  1.00  0.00    -0.041 A  
HETATM   25  C   UNL     1     -10.913   5.719  72.312  1.00  0.00    -0.314 C  
HETATM   26  C   UNL     1      -9.660   5.286  71.555  1.00  0.00    -0.201 C  
HETATM   27  C   UNL     1      -6.778   8.019  69.198  1.00  0.00    -0.048 A  
ENDBRANCH  10  11
ENDBRANCH   9  10
ENDBRANCH   8   9
ENDBRANCH   6   7
ENDBRANCH   3   6
ENDBRANCH   2   3
TORSDOF 7
ENDMDL
MODEL      145
REMARK 921   NORMALIZED FREE ENERGY PREDICTED BY IDOCK:   -3.88 KCAL/MOL
REMARK 922        TOTAL FREE ENERGY PREDICTED BY IDOCK:   -6.71 KCAL/MOL
REMARK 923 INTER-LIGAND FREE ENERGY PREDICTED BY IDOCK:   -6.23 KCAL/MOL
REMARK 924 INTRA-LIGAND FREE ENERGY PREDICTED BY IDOCK:   -0.48 KCAL/MOL
REMARK 927      BINDING AFFINITY PREDICTED BY RF-SCORE:    0.00 PKD
ROOT
HETATM    1  C   UNL     1     -13.335  15.939  73.181  1.00  0.00    -0.681 C  
HETATM    2  C   UNL     1     -13.840  15.541  71.796  1.00  0.00    -0.474 C  
ENDROOT
BRANCH   2   3
HETATM    3  N   UNL     1     -12.783  15.137  70.852  1.00  0.00    -0.369 NA 
BRANCH   3   4
HETATM    4  C   UNL     1     -11.527  15.892  71.003  1.00  0.00    -0.418 C  
HETATM    5  C   UNL     1     -10.939  16.499  69.735  1.00  0.00    -0.292 C  
ENDBRANCH   3   4
BRANCH   3   6
HETATM    6  C   UNL     1     -12.615  13.675  70.910  1.00  0.00    -0.346 C  
BRANCH   6   7
HETATM    7  C   UNL     1     -11.894  13.129  69.688  1.00  0.00    -0.390 C  
HETATM    8  C   UNL     1     -11.276  12.662  68.639  1.00  0.00    -0.323 C  
BRANCH   8   9
HETATM    9  C   UNL     1     -10.608  12.125  67.452  1.00  0.00    -0.226 C  
BRANCH   9  10
HETATM   10  O   UNL     1     -10.464  10.701  67.552  1.00  0.00    -0.201 OA 
BRANCH  10  11
HETATM   11  C   UNL     1     -10.100  10.077  66.389  1.00  0.00    -0.241 C  
HETATM   12  O   UNL     1     -10.627  10.278  65.300  1.00  0.00    -0.147 OA 
HETATM   13  C   UNL     1      -8.952   9.042  66.669  1.00  0.00    -0.135 C  
HETATM   14  C   UNL     1      -7.719   9.438  65.830  1.00  0.00    -0.099 A  
HETATM   15  C   UNL     1      -9.473   7.600  66.321  1.00  0.00    -0.176 C  
HETATM   16  O   UNL     1      -8.576   9.083  68.054  1.00  0.00    -0.128 OA 
HETATM   17  H   UNL     1      -7.882   8.457  68.224  1.00  0.00     0.000 HD 
HETATM   18  C   UNL     1      -6.477   9.718  66.431  1.00  0.00    -0.071 A  
HETATM   19  C   UNL     1      -8.430   6.475  66.511  1.00  0.00    -0.120 C  
HETATM   20  C   UNL     1      -5.373  10.112  65.670  1.00  0.00    -0.063 A  
HETATM   21  C   UNL     1      -8.201   6.059  67.963  1.00  0.00    -0.113 C  
HETATM   22  C   UNL     1      -9.501   5.716  68.682  1.00  0.00    -0.152 C  
HETATM   23  C   UNL     1      -5.484  10.236  64.289  1.00  0.00    -0.131 A  
HETATM   24  C   UNL     1      -6.698   9.955  63.667  1.00  0.00    -0.125 A  
HETATM   25  C   UNL     1     -10.572   6.787  68.520  1.00  0.00    -0.265 C  
HETATM   26  C   UNL     1     -10.769   7.193  67.062  1.00  0.00    -0.420 C  
HETATM   27  C   UNL     1      -7.799   9.554  64.429  1.00  0.00    -0.128 A  
ENDBRANCH  10  11
ENDBRANCH   9  10
ENDBRANCH   8   9
ENDBRANCH   6   7
ENDBRANCH   3   6
ENDBRANCH   2   3
TORSDOF 7
ENDMDL
MODEL      146
REMARK 921   NORMALIZED FREE ENERGY PREDICTED BY IDOCK:   -3.87 KCAL/MOL
REMARK 922        TOTAL FREE ENERGY PREDICTED BY IDOCK:   -6.69 KCAL/MOL
REMARK 923 INTER-LIGAND FREE ENERGY PREDICTED BY IDOCK:   -6.10 KCAL/MOL
REMARK 924 INTRA-LIGAND FREE ENERGY PREDICTED BY IDOCK:   -0.59 KCAL/MOL
REMARK 927      BINDING AFFINITY PREDICTED BY RF-SCORE:    0.00 PKD
ROOT
HETATM    1  C   UNL     1     -10.483  16.117  66.381  1.00  0.00    -0.304 C  
HETATM    2  C   UNL     1     -10.479  14.693  66.934  1.00  0.00    -0.270 C  
ENDROOT
BRANCH   2   3
HETATM    3  N   UNL     1     -10.576  14.607  68.402  1.00  0.00    -0.236 NA 
BRANCH   3   4
HETATM    4  C   UNL     1     -10.197  15.847  69.099  1.00  0.00    -0.234 C  
HETATM    5  C   UNL     1     -11.127  16.318  70.212  1.00  0.00    -0.340 C  
ENDBRANCH   3   4
BRANCH   3   6
HETATM    6  C   UNL     1     -11.906  14.094  68.771  1.00  0.00    -0.349 C  
BRANCH   6   7
HETATM    7  C   UNL     1     -11.834  12.727  69.431  1.00  0.00    -0.359 C  
HETATM    8  C   UNL     1     -11.770  11.554  69.997  1.00  0.00    -0.414 C  
BRANCH   8   9
HETATM    9  C   UNL     1     -11.683  10.227  70.610  1.00  0.00    -0.348 C  
BRANCH   9  10
HETATM   10  O   UNL     1     -10.345   9.717  70.525  1.00  0.00    -0.263 OA 
BRANCH  10  11
HETATM   11  C   UNL     1     -10.162   8.738  69.585  1.00  0.00    -0.210 C  
HETATM   12  O   UNL     1     -10.532   8.820  68.418  1.00  0.00    -0.207 OA 
HETATM   13  C   UNL     1      -9.460   7.491  70.234  1.00  0.00    -0.165 C  
HETATM   14  C   UNL     1      -8.126   7.242  69.499  1.00  0.00    -0.129 A  
HETATM   15  C   UNL     1     -10.431   6.259  70.143  1.00  0.00    -0.278 C  
HETATM   16  O   UNL     1      -9.163   7.754  71.614  1.00  0.00    -0.132 OA 
HETATM   17  H   UNL     1      -8.739   7.001  72.006  1.00  0.00     0.000 HD 
HETATM   18  C   UNL     1      -6.896   7.245  70.184  1.00  0.00    -0.059 A  
HETATM   19  C   UNL     1      -9.854   4.941  70.711  1.00  0.00    -0.285 C  
HETATM   20  C   UNL     1      -5.687   7.055  69.508  1.00  0.00    -0.015 A  
HETATM   21  C   UNL     1      -9.857   4.852  72.236  1.00  0.00    -0.219 C  
HETATM   22  C   UNL     1     -11.229   5.140  72.833  1.00  0.00    -0.362 C  
HETATM   23  C   UNL     1      -5.679   6.859  68.131  1.00  0.00    -0.020 A  
HETATM   24  C   UNL     1      -6.882   6.841  67.430  1.00  0.00    -0.073 A  
HETATM   25  C   UNL     1     -11.853   6.424  72.302  1.00  0.00    -0.315 C  
HETATM   26  C   UNL     1     -11.824   6.493  70.777  1.00  0.00    -0.394 C  
HETATM   27  C   UNL     1      -8.091   7.022  68.109  1.00  0.00    -0.119 A  
ENDBRANCH  10  11
ENDBRANCH   9  10
ENDBRANCH   8   9
ENDBRANCH   6   7
ENDBRANCH   3   6
ENDBRANCH   2   3
TORSDOF 7
ENDMDL
MODEL      147
REMARK 921   NORMALIZED FREE ENERGY PREDICTED BY IDOCK:   -3.87 KCAL/MOL
REMARK 922        TOTAL FREE ENERGY PREDICTED BY IDOCK:   -6.69 KCAL/MOL
REMARK 923 INTER-LIGAND FREE ENERGY PREDICTED BY IDOCK:   -4.98 KCAL/MOL
REMARK 924 INTRA-LIGAND FREE ENERGY PREDICTED BY IDOCK:   -1.71 KCAL/MOL
REMARK 927      BINDING AFFINITY PREDICTED BY RF-SCORE:    0.00 PKD
ROOT
HETATM    1  C   UNL     1      -7.931   6.684  65.418  1.00  0.00    -0.121 C  
HETATM    2  C   UNL     1      -6.659   6.354  66.195  1.00  0.00    -0.048 C  
ENDROOT
BRANCH   2   3
HETATM    3  N   UNL     1      -6.804   6.412  67.660  1.00  0.00    -0.073 NA 
BRANCH   3   4
HETATM    4  C   UNL     1      -6.514   5.138  68.340  1.00  0.00    -0.040 C  
HETATM    5  C   UNL     1      -7.415   3.958  67.995  1.00  0.00    -0.066 C  
ENDBRANCH   3   4
BRANCH   3   6
HETATM    6  C   UNL     1      -6.037   7.558  68.180  1.00  0.00    -0.036 C  
BRANCH   6   7
HETATM    7  C   UNL     1      -6.448   8.868  67.529  1.00  0.00    -0.061 C  
HETATM    8  C   UNL     1      -6.799   9.993  66.971  1.00  0.00    -0.087 C  
BRANCH   8   9
HETATM    9  C   UNL     1      -7.185  11.271  66.368  1.00  0.00    -0.052 C  
BRANCH   9  10
HETATM   10  O   UNL     1      -8.409  11.752  66.943  1.00  0.00    -0.163 OA 
BRANCH  10  11
HETATM   11  C   UNL     1      -9.490  10.931  66.763  1.00  0.00    -0.177 C  
HETATM   12  O   UNL     1      -9.874  10.520  65.673  1.00  0.00    -0.221 OA 
HETATM   13  C   UNL     1     -10.182  10.640  68.143  1.00  0.00    -0.168 C  
HETATM   14  C   UNL     1     -10.157   9.117  68.392  1.00  0.00    -0.220 A  
HETATM   15  C   UNL     1     -11.644  11.215  68.108  1.00  0.00    -0.350 C  
HETATM   16  O   UNL     1      -9.453  11.274  69.205  1.00  0.00    -0.394 OA 
HETATM   17  H   UNL     1      -9.871  11.098  70.039  1.00  0.00     0.000 HD 
HETATM   18  C   UNL     1      -9.539   8.567  69.531  1.00  0.00    -0.170 A  
HETATM   19  C   UNL     1     -12.465  10.965  69.394  1.00  0.00    -0.037 C  
HETATM   20  C   UNL     1      -9.487   7.185  69.735  1.00  0.00    -0.149 A  
HETATM   21  C   UNL     1     -12.114  11.886  70.561  1.00  0.00    -0.422 C  
HETATM   22  C   UNL     1     -12.155  13.360  70.173  1.00  0.00    -0.415 C  
HETATM   23  C   UNL     1     -10.051   6.320  68.803  1.00  0.00    -0.191 A  
HETATM   24  C   UNL     1     -10.678   6.837  67.672  1.00  0.00    -0.357 A  
HETATM   25  C   UNL     1     -11.370  13.664  68.905  1.00  0.00    -0.332 C  
HETATM   26  C   UNL     1     -11.731  12.721  67.760  1.00  0.00    -0.412 C  
HETATM   27  C   UNL     1     -10.736   8.220  67.475  1.00  0.00    -0.217 A  
ENDBRANCH  10  11
ENDBRANCH   9  10
ENDBRANCH   8   9
ENDBRANCH   6   7
ENDBRANCH   3   6
ENDBRANCH   2   3
TORSDOF 7
ENDMDL
MODEL      148
REMARK 921   NORMALIZED FREE ENERGY PREDICTED BY IDOCK:   -3.86 KCAL/MOL
REMARK 922        TOTAL FREE ENERGY PREDICTED BY IDOCK:   -6.69 KCAL/MOL
REMARK 923 INTER-LIGAND FREE ENERGY PREDICTED BY IDOCK:   -5.71 KCAL/MOL
REMARK 924 INTRA-LIGAND FREE ENERGY PREDICTED BY IDOCK:   -0.98 KCAL/MOL
REMARK 927      BINDING AFFINITY PREDICTED BY RF-SCORE:    0.00 PKD
ROOT
HETATM    1  C   UNL     1     -11.837  14.884  71.785  1.00  0.00    -0.424 C  
HETATM    2  C   UNL     1     -12.321  14.141  70.541  1.00  0.00    -0.364 C  
ENDROOT
BRANCH   2   3
HETATM    3  N   UNL     1     -11.365  14.136  69.421  1.00  0.00    -0.264 NA 
BRANCH   3   4
HETATM    4  C   UNL     1     -10.090  14.809  69.721  1.00  0.00     0.082 C  
HETATM    5  C   UNL     1      -9.593  15.820  68.694  1.00  0.00    -0.207 C  
ENDBRANCH   3   4
BRANCH   3   6
HETATM    6  C   UNL     1     -11.212  12.759  68.919  1.00  0.00    -0.283 C  
BRANCH   6   7
HETATM    7  C   UNL     1     -11.827  11.733  69.857  1.00  0.00    -0.423 C  
HETATM    8  C   UNL     1     -12.356  10.853  70.661  1.00  0.00    -0.470 C  
BRANCH   8   9
HETATM    9  C   UNL     1     -12.973   9.881  71.565  1.00  0.00    -0.422 C  
BRANCH   9  10
HETATM   10  O   UNL     1     -11.985   8.989  72.100  1.00  0.00    -0.357 OA 
BRANCH  10  11
HETATM   11  C   UNL     1     -11.426   8.136  71.186  1.00  0.00    -0.276 C  
HETATM   12  O   UNL     1     -12.064   7.478  70.371  1.00  0.00    -0.071 OA 
HETATM   13  C   UNL     1      -9.866   8.094  71.371  1.00  0.00    -0.174 C  
HETATM   14  C   UNL     1      -9.204   8.556  70.056  1.00  0.00    -0.155 A  
HETATM   15  C   UNL     1      -9.443   6.634  71.772  1.00  0.00    -0.151 C  
HETATM   16  O   UNL     1      -9.468   9.000  72.410  1.00  0.00    -0.270 OA 
HETATM   17  H   UNL     1      -8.525   8.975  72.522  1.00  0.00     0.000 HD 
HETATM   18  C   UNL     1      -8.333   9.662  70.019  1.00  0.00    -0.197 A  
HETATM   19  C   UNL     1      -7.921   6.431  71.950  1.00  0.00    -0.104 C  
HETATM   20  C   UNL     1      -7.764  10.099  68.820  1.00  0.00    -0.088 A  
HETATM   21  C   UNL     1      -7.357   6.973  73.263  1.00  0.00    -0.075 C  
HETATM   22  C   UNL     1      -8.115   6.455  74.479  1.00  0.00    -0.122 C  
HETATM   23  C   UNL     1      -8.053   9.442  67.628  1.00  0.00    -0.106 A  
HETATM   24  C   UNL     1      -8.903   8.339  67.637  1.00  0.00    -0.137 A  
HETATM   25  C   UNL     1      -9.624   6.620  74.355  1.00  0.00    -0.304 C  
HETATM   26  C   UNL     1     -10.158   6.083  73.029  1.00  0.00    -0.195 C  
HETATM   27  C   UNL     1      -9.464   7.898  68.839  1.00  0.00    -0.150 A  
ENDBRANCH  10  11
ENDBRANCH   9  10
ENDBRANCH   8   9
ENDBRANCH   6   7
ENDBRANCH   3   6
ENDBRANCH   2   3
TORSDOF 7
ENDMDL
MODEL      149
REMARK 921   NORMALIZED FREE ENERGY PREDICTED BY IDOCK:   -3.85 KCAL/MOL
REMARK 922        TOTAL FREE ENERGY PREDICTED BY IDOCK:   -6.67 KCAL/MOL
REMARK 923 INTER-LIGAND FREE ENERGY PREDICTED BY IDOCK:   -5.95 KCAL/MOL
REMARK 924 INTRA-LIGAND FREE ENERGY PREDICTED BY IDOCK:   -0.72 KCAL/MOL
REMARK 927      BINDING AFFINITY PREDICTED BY RF-SCORE:    0.00 PKD
ROOT
HETATM    1  C   UNL     1      -5.126  20.710  67.914  1.00  0.00    -0.236 C  
HETATM    2  C   UNL     1      -6.292  20.162  67.094  1.00  0.00    -0.198 C  
ENDROOT
BRANCH   2   3
HETATM    3  N   UNL     1      -6.402  20.723  65.736  1.00  0.00    -0.237 NA 
BRANCH   3   4
HETATM    4  C   UNL     1      -5.200  20.524  64.909  1.00  0.00    -0.168 C  
HETATM    5  C   UNL     1      -5.327  20.859  63.427  1.00  0.00    -0.258 C  
ENDBRANCH   3   4
BRANCH   3   6
HETATM    6  C   UNL     1      -7.646  20.242  65.111  1.00  0.00     0.299 C  
BRANCH   6   7
HETATM    7  C   UNL     1      -8.609  19.649  66.127  1.00  0.00    -0.357 C  
HETATM    8  C   UNL     1      -9.434  19.139  66.998  1.00  0.00    -0.367 C  
BRANCH   8   9
HETATM    9  C   UNL     1     -10.383  18.565  67.956  1.00  0.00    -0.383 C  
BRANCH   9  10
HETATM   10  O   UNL     1     -10.818  17.269  67.521  1.00  0.00    -0.314 OA 
BRANCH  10  11
HETATM   11  C   UNL     1     -10.702  16.280  68.461  1.00  0.00    -0.307 C  
HETATM   12  O   UNL     1     -11.302  16.266  69.531  1.00  0.00    -0.320 OA 
HETATM   13  C   UNL     1      -9.660  15.204  67.986  1.00  0.00    -0.204 C  
HETATM   14  C   UNL     1     -10.374  13.839  67.890  1.00  0.00    -0.244 A  
HETATM   15  C   UNL     1      -8.459  15.180  68.999  1.00  0.00    -0.214 C  
HETATM   16  O   UNL     1      -9.166  15.538  66.680  1.00  0.00    -0.229 OA 
HETATM   17  H   UNL     1      -8.536  14.888  66.392  1.00  0.00     0.000 HD 
HETATM   18  C   UNL     1     -10.420  13.114  66.684  1.00  0.00    -0.280 A  
HETATM   19  C   UNL     1      -7.367  14.133  68.679  1.00  0.00    -0.126 C  
HETATM   20  C   UNL     1     -11.098  11.896  66.593  1.00  0.00    -0.360 A  
HETATM   21  C   UNL     1      -6.423  14.527  67.544  1.00  0.00    -0.070 C  
HETATM   22  C   UNL     1      -5.804  15.904  67.753  1.00  0.00    -0.166 C  
HETATM   23  C   UNL     1     -11.748  11.373  67.706  1.00  0.00    -0.279 A  
HETATM   24  C   UNL     1     -11.710  12.063  68.915  1.00  0.00    -0.383 A  
HETATM   25  C   UNL     1      -6.834  16.977  68.082  1.00  0.00    -0.161 C  
HETATM   26  C   UNL     1      -7.772  16.551  69.209  1.00  0.00    -0.140 C  
HETATM   27  C   UNL     1     -11.024  13.278  69.006  1.00  0.00    -0.249 A  
ENDBRANCH  10  11
ENDBRANCH   9  10
ENDBRANCH   8   9
ENDBRANCH   6   7
ENDBRANCH   3   6
ENDBRANCH   2   3
TORSDOF 7
ENDMDL
MODEL      150
REMARK 921   NORMALIZED FREE ENERGY PREDICTED BY IDOCK:   -3.83 KCAL/MOL
REMARK 922        TOTAL FREE ENERGY PREDICTED BY IDOCK:   -6.63 KCAL/MOL
REMARK 923 INTER-LIGAND FREE ENERGY PREDICTED BY IDOCK:   -5.78 KCAL/MOL
REMARK 924 INTRA-LIGAND FREE ENERGY PREDICTED BY IDOCK:   -0.85 KCAL/MOL
REMARK 927      BINDING AFFINITY PREDICTED BY RF-SCORE:    0.00 PKD
ROOT
HETATM    1  C   UNL     1     -11.076  15.767  64.843  1.00  0.00    -0.411 C  
HETATM    2  C   UNL     1     -10.345  14.492  65.260  1.00  0.00    -0.410 C  
ENDROOT
BRANCH   2   3
HETATM    3  N   UNL     1     -11.184  13.281  65.272  1.00  0.00    -0.292 NA 
BRANCH   3   4
HETATM    4  C   UNL     1     -11.174  12.536  64.003  1.00  0.00    -0.403 C  
HETATM    5  C   UNL     1     -12.525  12.065  63.475  1.00  0.00    -0.654 C  
ENDBRANCH   3   4
BRANCH   3   6
HETATM    6  C   UNL     1     -10.842  12.465  66.450  1.00  0.00    -0.258 C  
BRANCH   6   7
HETATM    7  C   UNL     1      -9.536  11.711  66.269  1.00  0.00    -0.233 C  
HETATM    8  C   UNL     1      -8.415  11.063  66.112  1.00  0.00    -0.168 C  
BRANCH   8   9
HETATM    9  C   UNL     1      -7.172  10.311  65.929  1.00  0.00    -0.131 C  
BRANCH   9  10
HETATM   10  O   UNL     1      -7.288   8.996  66.492  1.00  0.00    -0.084 OA 
BRANCH  10  11
HETATM   11  C   UNL     1      -8.097   8.142  65.793  1.00  0.00    -0.115 C  
HETATM   12  O   UNL     1      -8.445   8.312  64.629  1.00  0.00    -0.143 OA 
HETATM   13  C   UNL     1      -8.546   6.950  66.714  1.00  0.00    -0.120 C  
HETATM   14  C   UNL     1      -8.059   5.630  66.079  1.00  0.00    -0.109 A  
HETATM   15  C   UNL     1     -10.109   6.994  66.874  1.00  0.00    -0.296 C  
HETATM   16  O   UNL     1      -7.937   7.069  68.009  1.00  0.00    -0.112 OA 
HETATM   17  H   UNL     1      -8.208   6.349  68.565  1.00  0.00     0.000 HD 
HETATM   18  C   UNL     1      -7.207   4.749  66.772  1.00  0.00    -0.080 A  
HETATM   19  C   UNL     1     -10.701   5.850  67.729  1.00  0.00    -0.346 C  
HETATM   20  C   UNL     1      -6.739   3.573  66.180  1.00  0.00    -0.045 A  
HETATM   21  C   UNL     1     -10.525   6.025  69.236  1.00  0.00    -0.328 C  
HETATM   22  C   UNL     1     -11.026   7.378  69.727  1.00  0.00    -0.215 C  
HETATM   23  C   UNL     1      -7.112   3.249  64.879  1.00  0.00    -0.061 A  
HETATM   24  C   UNL     1      -7.963   4.096  64.175  1.00  0.00    -0.089 A  
HETATM   25  C   UNL     1     -10.482   8.546  68.915  1.00  0.00    -0.207 C  
HETATM   26  C   UNL     1     -10.659   8.338  67.413  1.00  0.00    -0.324 C  
HETATM   27  C   UNL     1      -8.436   5.269  64.772  1.00  0.00    -0.149 A  
ENDBRANCH  10  11
ENDBRANCH   9  10
ENDBRANCH   8   9
ENDBRANCH   6   7
ENDBRANCH   3   6
ENDBRANCH   2   3
TORSDOF 7
ENDMDL
MODEL      151
REMARK 921   NORMALIZED FREE ENERGY PREDICTED BY IDOCK:   -3.82 KCAL/MOL
REMARK 922        TOTAL FREE ENERGY PREDICTED BY IDOCK:   -6.63 KCAL/MOL
REMARK 923 INTER-LIGAND FREE ENERGY PREDICTED BY IDOCK:   -5.94 KCAL/MOL
REMARK 924 INTRA-LIGAND FREE ENERGY PREDICTED BY IDOCK:   -0.69 KCAL/MOL
REMARK 927      BINDING AFFINITY PREDICTED BY RF-SCORE:    0.00 PKD
ROOT
HETATM    1  C   UNL     1      -9.677  11.490  63.138  1.00  0.00    -0.412 C  
HETATM    2  C   UNL     1     -10.846  12.239  63.773  1.00  0.00    -0.442 C  
ENDROOT
BRANCH   2   3
HETATM    3  N   UNL     1     -10.821  12.277  65.246  1.00  0.00    -0.284 NA 
BRANCH   3   4
HETATM    4  C   UNL     1     -11.942  13.022  65.843  1.00  0.00    -0.435 C  
HETATM    5  C   UNL     1     -12.600  14.083  64.969  1.00  0.00    -0.416 C  
ENDBRANCH   3   4
BRANCH   3   6
HETATM    6  C   UNL     1     -10.668  10.906  65.764  1.00  0.00    -0.109 C  
BRANCH   6   7
HETATM    7  C   UNL     1     -10.866  10.834  67.269  1.00  0.00    -0.344 C  
HETATM    8  C   UNL     1     -11.035  10.771  68.560  1.00  0.00    -0.291 C  
BRANCH   8   9
HETATM    9  C   UNL     1     -11.239  10.675  70.008  1.00  0.00    -0.309 C  
BRANCH   9  10
HETATM   10  O   UNL     1     -10.324   9.733  70.586  1.00  0.00    -0.289 OA 
BRANCH  10  11
HETATM   11  C   UNL     1     -10.721   8.425  70.507  1.00  0.00    -0.227 C  
HETATM   12  O   UNL     1     -11.889   8.058  70.434  1.00  0.00    -0.100 OA 
HETATM   13  C   UNL     1      -9.470   7.476  70.573  1.00  0.00    -0.164 C  
HETATM   14  C   UNL     1      -9.421   6.639  69.278  1.00  0.00    -0.141 A  
HETATM   15  C   UNL     1      -9.581   6.581  71.860  1.00  0.00    -0.156 C  
HETATM   16  O   UNL     1      -8.265   8.253  70.644  1.00  0.00    -0.103 OA 
HETATM   17  H   UNL     1      -7.509   7.680  70.684  1.00  0.00     0.000 HD 
HETATM   18  C   UNL     1      -8.306   6.674  68.419  1.00  0.00    -0.122 A  
HETATM   19  C   UNL     1      -8.431   5.563  72.037  1.00  0.00    -0.127 C  
HETATM   20  C   UNL     1      -8.281   5.941  67.230  1.00  0.00    -0.105 A  
HETATM   21  C   UNL     1      -7.123   6.164  72.548  1.00  0.00    -0.084 C  
HETATM   22  C   UNL     1      -7.317   6.984  73.819  1.00  0.00    -0.093 C  
HETATM   23  C   UNL     1      -9.371   5.156  66.869  1.00  0.00    -0.129 A  
HETATM   24  C   UNL     1     -10.483   5.095  67.704  1.00  0.00    -0.130 A  
HETATM   25  C   UNL     1      -8.447   7.999  73.707  1.00  0.00    -0.317 C  
HETATM   26  C   UNL     1      -9.736   7.374  73.180  1.00  0.00    -0.281 C  
HETATM   27  C   UNL     1     -10.503   5.821  68.898  1.00  0.00    -0.326 A  
ENDBRANCH  10  11
ENDBRANCH   9  10
ENDBRANCH   8   9
ENDBRANCH   6   7
ENDBRANCH   3   6
ENDBRANCH   2   3
TORSDOF 7
ENDMDL
MODEL      152
REMARK 921   NORMALIZED FREE ENERGY PREDICTED BY IDOCK:   -3.82 KCAL/MOL
REMARK 922        TOTAL FREE ENERGY PREDICTED BY IDOCK:   -6.63 KCAL/MOL
REMARK 923 INTER-LIGAND FREE ENERGY PREDICTED BY IDOCK:   -6.06 KCAL/MOL
REMARK 924 INTRA-LIGAND FREE ENERGY PREDICTED BY IDOCK:   -0.57 KCAL/MOL
REMARK 927      BINDING AFFINITY PREDICTED BY RF-SCORE:    0.00 PKD
ROOT
HETATM    1  C   UNL     1     -12.245  12.399  65.290  1.00  0.00    -0.418 C  
HETATM    2  C   UNL     1     -11.212  11.351  64.879  1.00  0.00    -0.110 C  
ENDROOT
BRANCH   2   3
HETATM    3  N   UNL     1     -10.127  11.145  65.855  1.00  0.00    -0.238 NA 
BRANCH   3   4
HETATM    4  C   UNL     1     -10.264  11.951  67.079  1.00  0.00    -0.210 C  
HETATM    5  C   UNL     1      -9.233  13.054  67.290  1.00  0.00    -0.213 C  
ENDBRANCH   3   4
BRANCH   3   6
HETATM    6  C   UNL     1      -9.965   9.702  66.102  1.00  0.00    -0.276 C  
BRANCH   6   7
HETATM    7  C   UNL     1      -9.069   9.419  67.296  1.00  0.00    -0.150 C  
HETATM    8  C   UNL     1      -8.300   9.177  68.321  1.00  0.00    -0.120 C  
BRANCH   8   9
HETATM    9  C   UNL     1      -7.441   8.932  69.482  1.00  0.00    -0.075 C  
BRANCH   9  10
HETATM   10  O   UNL     1      -8.231   8.648  70.645  1.00  0.00    -0.111 OA 
BRANCH  10  11
HETATM   11  C   UNL     1      -9.171   7.668  70.476  1.00  0.00    -0.159 C  
HETATM   12  O   UNL     1      -9.131   6.813  69.597  1.00  0.00    -0.143 OA 
HETATM   13  C   UNL     1     -10.319   7.832  71.536  1.00  0.00    -0.193 C  
HETATM   14  C   UNL     1     -10.386   6.549  72.389  1.00  0.00    -0.210 A  
HETATM   15  C   UNL     1     -11.668   8.119  70.781  1.00  0.00    -0.211 C  
HETATM   16  O   UNL     1     -10.028   8.932  72.412  1.00  0.00    -0.251 OA 
HETATM   17  H   UNL     1     -10.722   9.031  73.053  1.00  0.00     0.000 HD 
HETATM   18  C   UNL     1     -10.227   6.584  73.788  1.00  0.00    -0.326 A  
HETATM   19  C   UNL     1     -12.902   8.266  71.701  1.00  0.00    -0.350 C  
HETATM   20  C   UNL     1     -10.253   5.414  74.552  1.00  0.00    -0.293 A  
HETATM   21  C   UNL     1     -13.001   9.609  72.423  1.00  0.00    -0.358 C  
HETATM   22  C   UNL     1     -12.898  10.792  71.467  1.00  0.00    -0.567 C  
HETATM   23  C   UNL     1     -10.437   4.180  73.937  1.00  0.00    -0.274 A  
HETATM   24  C   UNL     1     -10.608   4.117  72.556  1.00  0.00    -0.162 A  
HETATM   25  C   UNL     1     -11.703  10.697  70.527  1.00  0.00    -0.451 C  
HETATM   26  C   UNL     1     -11.622   9.340  69.831  1.00  0.00     0.076 C  
HETATM   27  C   UNL     1     -10.591   5.289  71.794  1.00  0.00    -0.268 A  
ENDBRANCH  10  11
ENDBRANCH   9  10
ENDBRANCH   8   9
ENDBRANCH   6   7
ENDBRANCH   3   6
ENDBRANCH   2   3
TORSDOF 7
ENDMDL
MODEL      153
REMARK 921   NORMALIZED FREE ENERGY PREDICTED BY IDOCK:   -3.81 KCAL/MOL
REMARK 922        TOTAL FREE ENERGY PREDICTED BY IDOCK:   -6.61 KCAL/MOL
REMARK 923 INTER-LIGAND FREE ENERGY PREDICTED BY IDOCK:   -5.87 KCAL/MOL
REMARK 924 INTRA-LIGAND FREE ENERGY PREDICTED BY IDOCK:   -0.74 KCAL/MOL
REMARK 927      BINDING AFFINITY PREDICTED BY RF-SCORE:    0.00 PKD
ROOT
HETATM    1  C   UNL     1     -10.122   7.557  73.453  1.00  0.00    -0.393 C  
HETATM    2  C   UNL     1      -9.780   7.172  72.016  1.00  0.00    -0.157 C  
ENDROOT
BRANCH   2   3
HETATM    3  N   UNL     1      -9.664   5.722  71.781  1.00  0.00    -0.156 NA 
BRANCH   3   4
HETATM    4  C   UNL     1      -9.873   4.904  72.987  1.00  0.00    -0.148 C  
HETATM    5  C   UNL     1     -10.437   3.504  72.774  1.00  0.00    -0.216 C  
ENDBRANCH   3   4
BRANCH   3   6
HETATM    6  C   UNL     1     -10.522   5.345  70.644  1.00  0.00    -0.259 C  
BRANCH   6   7
HETATM    7  C   UNL     1     -10.114   6.044  69.358  1.00  0.00    -0.243 C  
HETATM    8  C   UNL     1      -9.764   6.644  68.255  1.00  0.00    -0.132 C  
BRANCH   8   9
HETATM    9  C   UNL     1      -9.398   7.330  67.013  1.00  0.00    -0.148 C  
BRANCH   9  10
HETATM   10  O   UNL     1     -10.253   8.460  66.789  1.00  0.00    -0.280 OA 
BRANCH  10  11
HETATM   11  C   UNL     1      -9.800   9.344  65.847  1.00  0.00    -0.291 C  
HETATM   12  O   UNL     1      -9.463   9.033  64.709  1.00  0.00     0.037 OA 
HETATM   13  C   UNL     1      -9.734  10.792  66.453  1.00  0.00    -0.199 C  
HETATM   14  C   UNL     1     -10.655  11.713  65.626  1.00  0.00    -0.324 A  
HETATM   15  C   UNL     1      -8.239  11.277  66.444  1.00  0.00    -0.150 C  
HETATM   16  O   UNL     1     -10.217  10.783  67.806  1.00  0.00    -0.172 OA 
HETATM   17  H   UNL     1     -10.176  11.658  68.173  1.00  0.00     0.000 HD 
HETATM   18  C   UNL     1     -11.722  12.415  66.219  1.00  0.00    -0.457 A  
HETATM   19  C   UNL     1      -8.025  12.711  66.980  1.00  0.00    -0.063 C  
HETATM   20  C   UNL     1     -12.575  13.219  65.459  1.00  0.00    -0.505 A  
HETATM   21  C   UNL     1      -8.072  12.835  68.502  1.00  0.00    -0.080 C  
HETATM   22  C   UNL     1      -7.132  11.855  69.195  1.00  0.00    -0.053 C  
HETATM   23  C   UNL     1     -12.383  13.341  64.087  1.00  0.00    -0.408 A  
HETATM   24  C   UNL     1     -11.329  12.667  63.476  1.00  0.00    -0.527 A  
HETATM   25  C   UNL     1      -7.293  10.424  68.699  1.00  0.00    -0.085 C  
HETATM   26  C   UNL     1      -7.255  10.332  67.175  1.00  0.00    -0.090 C  
HETATM   27  C   UNL     1     -10.472  11.869  64.239  1.00  0.00    -0.370 A  
ENDBRANCH  10  11
ENDBRANCH   9  10
ENDBRANCH   8   9
ENDBRANCH   6   7
ENDBRANCH   3   6
ENDBRANCH   2   3
TORSDOF 7
ENDMDL
MODEL      154
REMARK 921   NORMALIZED FREE ENERGY PREDICTED BY IDOCK:   -3.80 KCAL/MOL
REMARK 922        TOTAL FREE ENERGY PREDICTED BY IDOCK:   -6.59 KCAL/MOL
REMARK 923 INTER-LIGAND FREE ENERGY PREDICTED BY IDOCK:   -6.15 KCAL/MOL
REMARK 924 INTRA-LIGAND FREE ENERGY PREDICTED BY IDOCK:   -0.44 KCAL/MOL
REMARK 927      BINDING AFFINITY PREDICTED BY RF-SCORE:    0.00 PKD
ROOT
HETATM    1  C   UNL     1      -6.093   1.711  64.997  1.00  0.00    -0.018 C  
HETATM    2  C   UNL     1      -7.517   1.591  64.461  1.00  0.00    -0.054 C  
ENDROOT
BRANCH   2   3
HETATM    3  N   UNL     1      -8.348   2.792  64.654  1.00  0.00    -0.086 NA 
BRANCH   3   4
HETATM    4  C   UNL     1      -9.204   3.118  63.502  1.00  0.00    -0.095 C  
HETATM    5  C   UNL     1     -10.543   2.393  63.419  1.00  0.00    -0.200 C  
ENDBRANCH   3   4
BRANCH   3   6
HETATM    6  C   UNL     1      -9.076   2.679  65.930  1.00  0.00    -0.113 C  
BRANCH   6   7
HETATM    7  C   UNL     1      -9.741   3.985  66.332  1.00  0.00    -0.206 C  
HETATM    8  C   UNL     1     -10.311   5.105  66.678  1.00  0.00    -0.325 C  
BRANCH   8   9
HETATM    9  C   UNL     1     -10.955   6.353  67.094  1.00  0.00    -0.399 C  
BRANCH   9  10
HETATM   10  O   UNL     1     -10.907   6.496  68.520  1.00  0.00    -0.247 OA 
BRANCH  10  11
HETATM   11  C   UNL     1     -10.505   7.729  68.960  1.00  0.00    -0.205 C  
HETATM   12  O   UNL     1     -10.164   8.650  68.226  1.00  0.00    -0.187 OA 
HETATM   13  C   UNL     1     -10.500   7.766  70.531  1.00  0.00    -0.217 C  
HETATM   14  C   UNL     1     -11.470   8.871  70.999  1.00  0.00    -0.351 A  
HETATM   15  C   UNL     1      -9.029   8.013  71.027  1.00  0.00    -0.160 C  
HETATM   16  O   UNL     1     -10.969   6.514  71.056  1.00  0.00    -0.241 OA 
HETATM   17  H   UNL     1     -10.966   6.536  72.006  1.00  0.00     0.000 HD 
HETATM   18  C   UNL     1     -12.562   8.586  71.840  1.00  0.00    -0.400 A  
HETATM   19  C   UNL     1      -8.876   8.113  72.563  1.00  0.00    -0.272 C  
HETATM   20  C   UNL     1     -13.459   9.584  72.231  1.00  0.00    -0.521 A  
HETATM   21  C   UNL     1      -8.915   6.772  73.294  1.00  0.00    -0.142 C  
HETATM   22  C   UNL     1      -7.925   5.766  72.719  1.00  0.00    -0.101 C  
HETATM   23  C   UNL     1     -13.285  10.892  71.791  1.00  0.00    -0.513 A  
HETATM   24  C   UNL     1     -12.207  11.204  70.967  1.00  0.00    -0.438 A  
HETATM   25  C   UNL     1      -8.023   5.632  71.205  1.00  0.00    -0.112 C  
HETATM   26  C   UNL     1      -7.996   6.987  70.501  1.00  0.00    -0.113 C  
HETATM   27  C   UNL     1     -11.307  10.206  70.583  1.00  0.00    -0.433 A  
ENDBRANCH  10  11
ENDBRANCH   9  10
ENDBRANCH   8   9
ENDBRANCH   6   7
ENDBRANCH   3   6
ENDBRANCH   2   3
TORSDOF 7
ENDMDL
MODEL      155
REMARK 921   NORMALIZED FREE ENERGY PREDICTED BY IDOCK:   -3.77 KCAL/MOL
REMARK 922        TOTAL FREE ENERGY PREDICTED BY IDOCK:   -6.56 KCAL/MOL
REMARK 923 INTER-LIGAND FREE ENERGY PREDICTED BY IDOCK:   -6.05 KCAL/MOL
REMARK 924 INTRA-LIGAND FREE ENERGY PREDICTED BY IDOCK:   -0.51 KCAL/MOL
REMARK 927      BINDING AFFINITY PREDICTED BY RF-SCORE:    0.00 PKD
ROOT
HETATM    1  C   UNL     1      -6.991  16.720  69.251  1.00  0.00    -0.216 C  
HETATM    2  C   UNL     1      -7.628  17.231  67.961  1.00  0.00    -0.197 C  
ENDROOT
BRANCH   2   3
HETATM    3  N   UNL     1      -9.016  16.787  67.746  1.00  0.00    -0.214 NA 
BRANCH   3   4
HETATM    4  C   UNL     1      -9.129  15.513  67.016  1.00  0.00    -0.230 C  
HETATM    5  C   UNL     1      -7.887  14.629  66.987  1.00  0.00    -0.056 C  
ENDBRANCH   3   4
BRANCH   3   6
HETATM    6  C   UNL     1      -9.737  16.809  69.031  1.00  0.00    -0.244 C  
BRANCH   6   7
HETATM    7  C   UNL     1     -10.543  15.541  69.260  1.00  0.00    -0.236 C  
HETATM    8  C   UNL     1     -11.236  14.454  69.457  1.00  0.00    -0.294 C  
BRANCH   8   9
HETATM    9  C   UNL     1     -12.027  13.246  69.702  1.00  0.00    -0.314 C  
BRANCH   9  10
HETATM   10  O   UNL     1     -11.171  12.103  69.850  1.00  0.00    -0.095 OA 
BRANCH  10  11
HETATM   11  C   UNL     1     -11.351  11.126  68.908  1.00  0.00    -0.278 C  
HETATM   12  O   UNL     1     -12.355  11.008  68.214  1.00  0.00    -0.479 OA 
HETATM   13  C   UNL     1     -10.109  10.163  68.888  1.00  0.00    -0.200 C  
HETATM   14  C   UNL     1      -9.482  10.201  67.479  1.00  0.00    -0.172 A  
HETATM   15  C   UNL     1     -10.582   8.719  69.292  1.00  0.00    -0.210 C  
HETATM   16  O   UNL     1      -9.119  10.612  69.825  1.00  0.00    -0.395 OA 
HETATM   17  H   UNL     1      -8.369  10.030  69.813  1.00  0.00     0.000 HD 
HETATM   18  C   UNL     1      -8.140  10.579  67.279  1.00  0.00    -0.115 A  
HETATM   19  C   UNL     1      -9.466   7.649  69.277  1.00  0.00    -0.158 C  
HETATM   20  C   UNL     1      -7.587  10.647  65.997  1.00  0.00    -0.142 A  
HETATM   21  C   UNL     1      -8.524   7.695  70.479  1.00  0.00    -0.128 C  
HETATM   22  C   UNL     1      -9.274   7.673  71.806  1.00  0.00    -0.167 C  
HETATM   23  C   UNL     1      -8.362  10.340  64.884  1.00  0.00    -0.173 A  
HETATM   24  C   UNL     1      -9.689   9.953  65.053  1.00  0.00    -0.359 A  
HETATM   25  C   UNL     1     -10.394   8.702  71.875  1.00  0.00    -0.405 C  
HETATM   26  C   UNL     1     -11.311   8.643  70.656  1.00  0.00    -0.277 C  
HETATM   27  C   UNL     1     -10.238   9.877  66.336  1.00  0.00    -0.292 A  
ENDBRANCH  10  11
ENDBRANCH   9  10
ENDBRANCH   8   9
ENDBRANCH   6   7
ENDBRANCH   3   6
ENDBRANCH   2   3
TORSDOF 7
ENDMDL
MODEL      156
REMARK 921   NORMALIZED FREE ENERGY PREDICTED BY IDOCK:   -3.74 KCAL/MOL
REMARK 922        TOTAL FREE ENERGY PREDICTED BY IDOCK:   -6.51 KCAL/MOL
REMARK 923 INTER-LIGAND FREE ENERGY PREDICTED BY IDOCK:   -5.54 KCAL/MOL
REMARK 924 INTRA-LIGAND FREE ENERGY PREDICTED BY IDOCK:   -0.97 KCAL/MOL
REMARK 927      BINDING AFFINITY PREDICTED BY RF-SCORE:    0.00 PKD
ROOT
HETATM    1  C   UNL     1      -9.380  14.766  68.250  1.00  0.00    -0.199 C  
HETATM    2  C   UNL     1     -10.448  14.663  67.163  1.00  0.00    -0.268 C  
ENDROOT
BRANCH   2   3
HETATM    3  N   UNL     1     -11.709  14.040  67.601  1.00  0.00    -0.356 NA 
BRANCH   3   4
HETATM    4  C   UNL     1     -11.896  12.663  67.113  1.00  0.00    -0.330 C  
HETATM    5  C   UNL     1     -11.204  12.302  65.804  1.00  0.00    -0.378 C  
ENDBRANCH   3   4
BRANCH   3   6
HETATM    6  C   UNL     1     -11.839  14.182  69.062  1.00  0.00    -0.348 C  
BRANCH   6   7
HETATM    7  C   UNL     1     -11.907  12.838  69.767  1.00  0.00    -0.380 C  
HETATM    8  C   UNL     1     -11.967  11.685  70.373  1.00  0.00    -0.448 C  
BRANCH   8   9
HETATM    9  C   UNL     1     -12.043  10.404  71.078  1.00  0.00    -0.385 C  
BRANCH   9  10
HETATM   10  O   UNL     1     -10.757   9.769  71.113  1.00  0.00    -0.324 OA 
BRANCH  10  11
HETATM   11  C   UNL     1     -10.240   9.450  69.886  1.00  0.00    -0.222 C  
HETATM   12  O   UNL     1     -10.910   9.295  68.870  1.00  0.00    -0.194 OA 
HETATM   13  C   UNL     1      -8.682   9.270  69.987  1.00  0.00    -0.195 C  
HETATM   14  C   UNL     1      -8.008  10.291  69.046  1.00  0.00    -0.125 A  
HETATM   15  C   UNL     1      -8.319   7.786  69.616  1.00  0.00    -0.129 C  
HETATM   16  O   UNL     1      -8.239   9.542  71.325  1.00  0.00    -0.279 OA 
HETATM   17  H   UNL     1      -7.298   9.433  71.386  1.00  0.00     0.000 HD 
HETATM   18  C   UNL     1      -7.092  11.245  69.528  1.00  0.00    -0.058 A  
HETATM   19  C   UNL     1      -6.806   7.470  69.633  1.00  0.00    -0.044 C  
HETATM   20  C   UNL     1      -6.512  12.190  68.679  1.00  0.00    -0.072 A  
HETATM   21  C   UNL     1      -6.211   7.285  71.029  1.00  0.00    -0.036 C  
HETATM   22  C   UNL     1      -6.984   6.266  71.859  1.00  0.00    -0.077 C  
HETATM   23  C   UNL     1      -6.835  12.207  67.326  1.00  0.00    -0.149 A  
HETATM   24  C   UNL     1      -7.731  11.269  66.820  1.00  0.00    -0.155 A  
HETATM   25  C   UNL     1      -8.486   6.522  71.870  1.00  0.00    -0.119 C  
HETATM   26  C   UNL     1      -9.049   6.718  70.465  1.00  0.00    -0.156 C  
HETATM   27  C   UNL     1      -8.304  10.318  67.669  1.00  0.00    -0.114 A  
ENDBRANCH  10  11
ENDBRANCH   9  10
ENDBRANCH   8   9
ENDBRANCH   6   7
ENDBRANCH   3   6
ENDBRANCH   2   3
TORSDOF 7
ENDMDL
MODEL      157
REMARK 921   NORMALIZED FREE ENERGY PREDICTED BY IDOCK:   -3.73 KCAL/MOL
REMARK 922        TOTAL FREE ENERGY PREDICTED BY IDOCK:   -6.51 KCAL/MOL
REMARK 923 INTER-LIGAND FREE ENERGY PREDICTED BY IDOCK:   -5.31 KCAL/MOL
REMARK 924 INTRA-LIGAND FREE ENERGY PREDICTED BY IDOCK:   -1.19 KCAL/MOL
REMARK 927      BINDING AFFINITY PREDICTED BY RF-SCORE:    0.00 PKD
ROOT
HETATM    1  C   UNL     1     -11.656   6.053  71.947  1.00  0.00    -0.312 C  
HETATM    2  C   UNL     1     -11.605   7.328  71.107  1.00  0.00    -0.293 C  
ENDROOT
BRANCH   2   3
HETATM    3  N   UNL     1     -11.286   8.549  71.867  1.00  0.00    -0.305 NA 
BRANCH   3   4
HETATM    4  C   UNL     1      -9.883   8.979  71.745  1.00  0.00    -0.260 C  
HETATM    5  C   UNL     1      -8.883   8.324  72.691  1.00  0.00    -0.304 C  
ENDBRANCH   3   4
BRANCH   3   6
HETATM    6  C   UNL     1     -12.266   9.598  71.534  1.00  0.00    -0.399 C  
BRANCH   6   7
HETATM    7  C   UNL     1     -11.906  10.338  70.256  1.00  0.00    -0.372 C  
HETATM    8  C   UNL     1     -11.597  10.971  69.160  1.00  0.00    -0.389 C  
BRANCH   8   9
HETATM    9  C   UNL     1     -11.221  11.678  67.933  1.00  0.00    -0.269 C  
BRANCH   9  10
HETATM   10  O   UNL     1     -10.599  10.779  67.003  1.00  0.00    -0.235 OA 
BRANCH  10  11
HETATM   11  C   UNL     1      -9.328  10.397  67.337  1.00  0.00    -0.145 C  
HETATM   12  O   UNL     1      -8.566  11.057  68.036  1.00  0.00    -0.126 OA 
HETATM   13  C   UNL     1      -8.981   9.023  66.657  1.00  0.00    -0.135 C  
HETATM   14  C   UNL     1      -8.655   7.997  67.763  1.00  0.00    -0.128 A  
HETATM   15  C   UNL     1      -7.780   9.237  65.667  1.00  0.00    -0.095 C  
HETATM   16  O   UNL     1     -10.115   8.536  65.922  1.00  0.00    -0.445 OA 
HETATM   17  H   UNL     1      -9.906   7.706  65.511  1.00  0.00     0.000 HD 
HETATM   18  C   UNL     1      -9.382   6.799  67.894  1.00  0.00    -0.113 A  
HETATM   19  C   UNL     1      -7.300   7.953  64.950  1.00  0.00    -0.073 C  
HETATM   20  C   UNL     1      -9.106   5.890  68.919  1.00  0.00    -0.120 A  
HETATM   21  C   UNL     1      -8.192   7.499  63.795  1.00  0.00     0.057 C  
HETATM   22  C   UNL     1      -8.453   8.614  62.788  1.00  0.00    -0.143 C  
HETATM   23  C   UNL     1      -8.097   6.157  69.839  1.00  0.00    -0.119 A  
HETATM   24  C   UNL     1      -7.355   7.330  69.726  1.00  0.00    -0.084 A  
HETATM   25  C   UNL     1      -8.919   9.909  63.440  1.00  0.00    -0.278 C  
HETATM   26  C   UNL     1      -8.018  10.331  64.598  1.00  0.00    -0.131 C  
HETATM   27  C   UNL     1      -7.627   8.234  68.695  1.00  0.00    -0.099 A  
ENDBRANCH  10  11
ENDBRANCH   9  10
ENDBRANCH   8   9
ENDBRANCH   6   7
ENDBRANCH   3   6
ENDBRANCH   2   3
TORSDOF 7
ENDMDL
MODEL      158
REMARK 921   NORMALIZED FREE ENERGY PREDICTED BY IDOCK:   -3.73 KCAL/MOL
REMARK 922        TOTAL FREE ENERGY PREDICTED BY IDOCK:   -6.50 KCAL/MOL
REMARK 923 INTER-LIGAND FREE ENERGY PREDICTED BY IDOCK:   -5.67 KCAL/MOL
REMARK 924 INTRA-LIGAND FREE ENERGY PREDICTED BY IDOCK:   -0.83 KCAL/MOL
REMARK 927      BINDING AFFINITY PREDICTED BY RF-SCORE:    0.00 PKD
ROOT
HETATM    1  C   UNL     1     -10.265  16.176  65.813  1.00  0.00    -0.397 C  
HETATM    2  C   UNL     1     -11.252  15.110  66.285  1.00  0.00    -0.273 C  
ENDROOT
BRANCH   2   3
HETATM    3  N   UNL     1     -10.645  14.013  67.058  1.00  0.00    -0.278 NA 
BRANCH   3   4
HETATM    4  C   UNL     1      -9.938  14.457  68.271  1.00  0.00    -0.232 C  
HETATM    5  C   UNL     1      -8.472  14.059  68.391  1.00  0.00    -0.166 C  
ENDBRANCH   3   4
BRANCH   3   6
HETATM    6  C   UNL     1     -11.659  12.972  67.301  1.00  0.00    -0.356 C  
BRANCH   6   7
HETATM    7  C   UNL     1     -11.130  11.575  67.017  1.00  0.00    -0.365 C  
HETATM    8  C   UNL     1     -10.677  10.378  66.773  1.00  0.00    -0.235 C  
BRANCH   8   9
HETATM    9  C   UNL     1     -10.176   9.035  66.470  1.00  0.00    -0.248 C  
BRANCH   9  10
HETATM   10  O   UNL     1     -10.553   8.111  67.501  1.00  0.00    -0.253 OA 
BRANCH  10  11
HETATM   11  C   UNL     1      -9.509   7.438  68.079  1.00  0.00    -0.141 C  
HETATM   12  O   UNL     1      -8.882   6.534  67.536  1.00  0.00    -0.114 OA 
HETATM   13  C   UNL     1      -9.273   7.962  69.541  1.00  0.00    -0.152 C  
HETATM   14  C   UNL     1      -7.837   8.520  69.636  1.00  0.00    -0.095 A  
HETATM   15  C   UNL     1      -9.523   6.781  70.548  1.00  0.00    -0.171 C  
HETATM   16  O   UNL     1     -10.184   9.032  69.836  1.00  0.00    -0.188 OA 
HETATM   17  H   UNL     1     -10.041   9.348  70.720  1.00  0.00     0.000 HD 
HETATM   18  C   UNL     1      -7.588   9.854  70.010  1.00  0.00    -0.179 A  
HETATM   19  C   UNL     1      -9.287   7.141  72.033  1.00  0.00    -0.151 C  
HETATM   20  C   UNL     1      -6.288  10.364  70.060  1.00  0.00    -0.111 A  
HETATM   21  C   UNL     1     -10.412   7.951  72.677  1.00  0.00    -0.384 C  
HETATM   22  C   UNL     1     -11.778   7.300  72.491  1.00  0.00    -0.244 C  
HETATM   23  C   UNL     1      -5.205   9.553  69.736  1.00  0.00    -0.033 A  
HETATM   24  C   UNL     1      -5.422   8.227  69.372  1.00  0.00    -0.030 A  
HETATM   25  C   UNL     1     -12.062   6.913  71.045  1.00  0.00    -0.429 C  
HETATM   26  C   UNL     1     -10.916   6.118  70.424  1.00  0.00    -0.404 C  
HETATM   27  C   UNL     1      -6.722   7.715  69.331  1.00  0.00    -0.040 A  
ENDBRANCH  10  11
ENDBRANCH   9  10
ENDBRANCH   8   9
ENDBRANCH   6   7
ENDBRANCH   3   6
ENDBRANCH   2   3
TORSDOF 7
ENDMDL
MODEL      159
REMARK 921   NORMALIZED FREE ENERGY PREDICTED BY IDOCK:   -3.72 KCAL/MOL
REMARK 922        TOTAL FREE ENERGY PREDICTED BY IDOCK:   -6.49 KCAL/MOL
REMARK 923 INTER-LIGAND FREE ENERGY PREDICTED BY IDOCK:   -6.12 KCAL/MOL
REMARK 924 INTRA-LIGAND FREE ENERGY PREDICTED BY IDOCK:   -0.37 KCAL/MOL
REMARK 927      BINDING AFFINITY PREDICTED BY RF-SCORE:    0.00 PKD
ROOT
HETATM    1  C   UNL     1     -12.230  14.766  64.403  1.00  0.00    -0.447 C  
HETATM    2  C   UNL     1     -10.940  14.146  64.937  1.00  0.00    -0.397 C  
ENDROOT
BRANCH   2   3
HETATM    3  N   UNL     1      -9.933  15.122  65.387  1.00  0.00    -0.345 NA 
BRANCH   3   4
HETATM    4  C   UNL     1     -10.462  16.483  65.575  1.00  0.00    -0.301 C  
HETATM    5  C   UNL     1      -9.923  17.266  66.767  1.00  0.00    -0.301 C  
ENDBRANCH   3   4
BRANCH   3   6
HETATM    6  C   UNL     1      -9.228  14.583  66.564  1.00  0.00    -0.255 C  
BRANCH   6   7
HETATM    7  C   UNL     1     -10.064  13.563  67.319  1.00  0.00    -0.235 C  
HETATM    8  C   UNL     1     -10.781  12.688  67.966  1.00  0.00    -0.243 C  
BRANCH   8   9
HETATM    9  C   UNL     1     -11.612  11.721  68.688  1.00  0.00    -0.309 C  
BRANCH   9  10
HETATM   10  O   UNL     1     -11.655  10.470  67.988  1.00  0.00    -0.442 OA 
BRANCH  10  11
HETATM   11  C   UNL     1     -10.522  10.167  67.282  1.00  0.00    -0.256 C  
HETATM   12  O   UNL     1     -10.326  10.487  66.115  1.00  0.00    -0.241 OA 
HETATM   13  C   UNL     1      -9.545   9.315  68.171  1.00  0.00    -0.143 C  
HETATM   14  C   UNL     1      -8.214  10.083  68.310  1.00  0.00    -0.106 A  
HETATM   15  C   UNL     1      -9.353   7.905  67.504  1.00  0.00    -0.166 C  
HETATM   16  O   UNL     1     -10.096   9.142  69.485  1.00  0.00    -0.184 OA 
HETATM   17  H   UNL     1      -9.505   8.627  70.022  1.00  0.00     0.000 HD 
HETATM   18  C   UNL     1      -7.703  10.451  69.570  1.00  0.00    -0.159 A  
HETATM   19  C   UNL     1      -8.379   6.966  68.252  1.00  0.00    -0.123 C  
HETATM   20  C   UNL     1      -6.515  11.178  69.689  1.00  0.00    -0.128 A  
HETATM   21  C   UNL     1      -8.961   6.313  69.504  1.00  0.00    -0.134 C  
HETATM   22  C   UNL     1     -10.285   5.608  69.232  1.00  0.00    -0.309 C  
HETATM   23  C   UNL     1      -5.810  11.556  68.551  1.00  0.00    -0.045 A  
HETATM   24  C   UNL     1      -6.286  11.197  67.293  1.00  0.00    -0.074 A  
HETATM   25  C   UNL     1     -11.283   6.484  68.486  1.00  0.00    -0.287 C  
HETATM   26  C   UNL     1     -10.671   7.134  67.248  1.00  0.00    -0.399 C  
HETATM   27  C   UNL     1      -7.470  10.463  67.176  1.00  0.00    -0.092 A  
ENDBRANCH  10  11
ENDBRANCH   9  10
ENDBRANCH   8   9
ENDBRANCH   6   7
ENDBRANCH   3   6
ENDBRANCH   2   3
TORSDOF 7
ENDMDL
MODEL      160
REMARK 921   NORMALIZED FREE ENERGY PREDICTED BY IDOCK:   -3.72 KCAL/MOL
REMARK 922        TOTAL FREE ENERGY PREDICTED BY IDOCK:   -6.49 KCAL/MOL
REMARK 923 INTER-LIGAND FREE ENERGY PREDICTED BY IDOCK:   -5.26 KCAL/MOL
REMARK 924 INTRA-LIGAND FREE ENERGY PREDICTED BY IDOCK:   -1.23 KCAL/MOL
REMARK 927      BINDING AFFINITY PREDICTED BY RF-SCORE:    0.00 PKD
ROOT
HETATM    1  C   UNL     1     -10.346   8.751  67.076  1.00  0.00    -0.353 C  
HETATM    2  C   UNL     1     -10.550   9.555  68.358  1.00  0.00    -0.219 C  
ENDROOT
BRANCH   2   3
HETATM    3  N   UNL     1     -10.470  11.016  68.184  1.00  0.00    -0.180 NA 
BRANCH   3   4
HETATM    4  C   UNL     1     -11.291  11.777  69.140  1.00  0.00    -0.279 C  
HETATM    5  C   UNL     1     -11.694  11.056  70.420  1.00  0.00    -0.437 C  
ENDBRANCH   3   4
BRANCH   3   6
HETATM    6  C   UNL     1      -9.054  11.424  68.151  1.00  0.00    -0.174 C  
BRANCH   6   7
HETATM    7  C   UNL     1      -8.210  10.654  69.153  1.00  0.00    -0.142 C  
HETATM    8  C   UNL     1      -7.486   9.993  70.012  1.00  0.00    -0.181 C  
BRANCH   8   9
HETATM    9  C   UNL     1      -6.694   9.232  70.981  1.00  0.00    -0.093 C  
BRANCH   9  10
HETATM   10  O   UNL     1      -7.276   7.940  71.206  1.00  0.00    -0.056 OA 
BRANCH  10  11
HETATM   11  C   UNL     1      -8.209   7.897  72.206  1.00  0.00    -0.129 C  
HETATM   12  O   UNL     1      -8.306   8.730  73.101  1.00  0.00    -0.402 OA 
HETATM   13  C   UNL     1      -9.095   6.607  72.063  1.00  0.00    -0.139 C  
HETATM   14  C   UNL     1     -10.566   7.039  71.887  1.00  0.00    -0.239 A  
HETATM   15  C   UNL     1      -8.886   5.705  73.333  1.00  0.00    -0.123 C  
HETATM   16  O   UNL     1      -8.708   5.869  70.894  1.00  0.00    -0.129 OA 
HETATM   17  H   UNL     1      -9.243   5.089  70.807  1.00  0.00     0.000 HD 
HETATM   18  C   UNL     1     -11.313   6.666  70.753  1.00  0.00    -0.389 A  
HETATM   19  C   UNL     1      -9.731   4.410  73.350  1.00  0.00    -0.150 C  
HETATM   20  C   UNL     1     -12.633   7.091  70.581  1.00  0.00    -0.104 A  
HETATM   21  C   UNL     1      -9.202   3.294  72.450  1.00  0.00    -0.150 C  
HETATM   22  C   UNL     1      -7.733   2.982  72.712  1.00  0.00    -0.051 C  
HETATM   23  C   UNL     1     -13.239   7.899  71.537  1.00  0.00    -0.342 A  
HETATM   24  C   UNL     1     -12.527   8.274  72.674  1.00  0.00    -0.217 A  
HETATM   25  C   UNL     1      -6.851   4.224  72.718  1.00  0.00    -0.052 C  
HETATM   26  C   UNL     1      -7.411   5.327  73.613  1.00  0.00    -0.095 C  
HETATM   27  C   UNL     1     -11.209   7.842  72.849  1.00  0.00    -0.434 A  
ENDBRANCH  10  11
ENDBRANCH   9  10
ENDBRANCH   8   9
ENDBRANCH   6   7
ENDBRANCH   3   6
ENDBRANCH   2   3
TORSDOF 7
ENDMDL
MODEL      161
REMARK 921   NORMALIZED FREE ENERGY PREDICTED BY IDOCK:   -3.70 KCAL/MOL
REMARK 922        TOTAL FREE ENERGY PREDICTED BY IDOCK:   -6.46 KCAL/MOL
REMARK 923 INTER-LIGAND FREE ENERGY PREDICTED BY IDOCK:   -5.94 KCAL/MOL
REMARK 924 INTRA-LIGAND FREE ENERGY PREDICTED BY IDOCK:   -0.52 KCAL/MOL
REMARK 927      BINDING AFFINITY PREDICTED BY RF-SCORE:    0.00 PKD
ROOT
HETATM    1  C   UNL     1      -5.902   8.249  73.472  1.00  0.00    -0.078 C  
HETATM    2  C   UNL     1      -6.484   7.120  72.624  1.00  0.00    -0.052 C  
ENDROOT
BRANCH   2   3
HETATM    3  N   UNL     1      -7.280   7.570  71.469  1.00  0.00    -0.069 NA 
BRANCH   3   4
HETATM    4  C   UNL     1      -8.715   7.260  71.575  1.00  0.00    -0.118 C  
HETATM    5  C   UNL     1      -9.501   8.016  72.640  1.00  0.00    -0.317 C  
ENDBRANCH   3   4
BRANCH   3   6
HETATM    6  C   UNL     1      -6.991   8.991  71.205  1.00  0.00    -0.092 C  
BRANCH   6   7
HETATM    7  C   UNL     1      -7.729   9.511  69.982  1.00  0.00    -0.146 C  
HETATM    8  C   UNL     1      -8.362   9.956  68.933  1.00  0.00    -0.124 C  
BRANCH   8   9
HETATM    9  C   UNL     1      -9.067  10.431  67.740  1.00  0.00    -0.131 C  
BRANCH   9  10
HETATM   10  O   UNL     1      -8.922  11.852  67.599  1.00  0.00    -0.158 OA 
BRANCH  10  11
HETATM   11  C   UNL     1      -9.978  12.586  68.068  1.00  0.00    -0.219 C  
HETATM   12  O   UNL     1     -10.580  12.349  69.110  1.00  0.00    -0.110 OA 
HETATM   13  C   UNL     1     -10.328  13.735  67.054  1.00  0.00    -0.260 C  
HETATM   14  C   UNL     1     -10.180  15.090  67.779  1.00  0.00    -0.236 A  
HETATM   15  C   UNL     1     -11.784  13.505  66.510  1.00  0.00    -0.408 C  
HETATM   16  O   UNL     1      -9.407  13.720  65.953  1.00  0.00    -0.498 OA 
HETATM   17  H   UNL     1      -9.618  14.414  65.340  1.00  0.00     0.000 HD 
HETATM   18  C   UNL     1      -9.297  16.083  67.312  1.00  0.00    -0.218 A  
HETATM   19  C   UNL     1     -12.282  14.589  65.526  1.00  0.00    -0.284 C  
HETATM   20  C   UNL     1      -9.140  17.293  67.992  1.00  0.00    -0.249 A  
HETATM   21  C   UNL     1     -11.717  14.470  64.111  1.00  0.00    -0.222 C  
HETATM   22  C   UNL     1     -11.911  13.077  63.522  1.00  0.00    -0.582 C  
HETATM   23  C   UNL     1      -9.860  17.541  69.156  1.00  0.00    -0.154 A  
HETATM   24  C   UNL     1     -10.748  16.581  69.634  1.00  0.00    -0.323 A  
HETATM   25  C   UNL     1     -11.446  11.966  64.455  1.00  0.00    -0.393 C  
HETATM   26  C   UNL     1     -12.014  12.118  65.864  1.00  0.00    -0.252 C  
HETATM   27  C   UNL     1     -10.911  15.373  68.948  1.00  0.00    -0.251 A  
ENDBRANCH  10  11
ENDBRANCH   9  10
ENDBRANCH   8   9
ENDBRANCH   6   7
ENDBRANCH   3   6
ENDBRANCH   2   3
TORSDOF 7
ENDMDL
MODEL      162
REMARK 921   NORMALIZED FREE ENERGY PREDICTED BY IDOCK:   -3.69 KCAL/MOL
REMARK 922        TOTAL FREE ENERGY PREDICTED BY IDOCK:   -6.44 KCAL/MOL
REMARK 923 INTER-LIGAND FREE ENERGY PREDICTED BY IDOCK:   -4.84 KCAL/MOL
REMARK 924 INTRA-LIGAND FREE ENERGY PREDICTED BY IDOCK:   -1.60 KCAL/MOL
REMARK 927      BINDING AFFINITY PREDICTED BY RF-SCORE:    0.00 PKD
ROOT
HETATM    1  C   UNL     1      -5.997   6.748  72.258  1.00  0.00    -0.038 C  
HETATM    2  C   UNL     1      -5.749   6.111  70.893  1.00  0.00    -0.018 C  
ENDROOT
BRANCH   2   3
HETATM    3  N   UNL     1      -6.144   6.947  69.746  1.00  0.00    -0.029 NA 
BRANCH   3   4
HETATM    4  C   UNL     1      -7.077   6.286  68.819  1.00  0.00    -0.082 C  
HETATM    5  C   UNL     1      -7.978   5.207  69.408  1.00  0.00    -0.084 C  
ENDBRANCH   3   4
BRANCH   3   6
HETATM    6  C   UNL     1      -6.611   8.255  70.238  1.00  0.00    -0.036 C  
BRANCH   6   7
HETATM    7  C   UNL     1      -6.379   9.366  69.228  1.00  0.00    -0.044 C  
HETATM    8  C   UNL     1      -6.178  10.319  68.361  1.00  0.00    -0.047 C  
BRANCH   8   9
HETATM    9  C   UNL     1      -5.925  11.389  67.392  1.00  0.00    -0.073 C  
BRANCH   9  10
HETATM   10  O   UNL     1      -7.126  12.128  67.130  1.00  0.00    -0.146 OA 
BRANCH  10  11
HETATM   11  C   UNL     1      -8.179  11.375  66.685  1.00  0.00    -0.163 C  
HETATM   12  O   UNL     1      -8.140  10.640  65.704  1.00  0.00    -0.160 OA 
HETATM   13  C   UNL     1      -9.442  11.629  67.585  1.00  0.00    -0.177 C  
HETATM   14  C   UNL     1      -9.869  10.290  68.221  1.00  0.00    -0.161 A  
HETATM   15  C   UNL     1     -10.576  12.259  66.698  1.00  0.00    -0.257 C  
HETATM   16  O   UNL     1      -9.116  12.539  68.647  1.00  0.00    -0.368 OA 
HETATM   17  H   UNL     1      -9.880  12.694  69.190  1.00  0.00     0.000 HD 
HETATM   18  C   UNL     1      -9.941  10.126  69.617  1.00  0.00    -0.262 A  
HETATM   19  C   UNL     1     -11.903  12.529  67.446  1.00  0.00    -0.381 C  
HETATM   20  C   UNL     1     -10.293   8.901  70.189  1.00  0.00    -0.228 A  
HETATM   21  C   UNL     1     -11.888  13.770  68.337  1.00  0.00    -0.411 C  
HETATM   22  C   UNL     1     -11.427  15.017  67.591  1.00  0.00    -0.344 C  
HETATM   23  C   UNL     1     -10.582   7.808  69.377  1.00  0.00    -0.211 A  
HETATM   24  C   UNL     1     -10.529   7.944  67.993  1.00  0.00    -0.245 A  
HETATM   25  C   UNL     1     -10.127  14.806  66.826  1.00  0.00    -0.258 C  
HETATM   26  C   UNL     1     -10.164  13.553  65.955  1.00  0.00    -0.306 C  
HETATM   27  C   UNL     1     -10.185   9.173  67.423  1.00  0.00    -0.310 A  
ENDBRANCH  10  11
ENDBRANCH   9  10
ENDBRANCH   8   9
ENDBRANCH   6   7
ENDBRANCH   3   6
ENDBRANCH   2   3
TORSDOF 7
ENDMDL
MODEL      163
REMARK 921   NORMALIZED FREE ENERGY PREDICTED BY IDOCK:   -3.67 KCAL/MOL
REMARK 922        TOTAL FREE ENERGY PREDICTED BY IDOCK:   -6.42 KCAL/MOL
REMARK 923 INTER-LIGAND FREE ENERGY PREDICTED BY IDOCK:   -5.70 KCAL/MOL
REMARK 924 INTRA-LIGAND FREE ENERGY PREDICTED BY IDOCK:   -0.72 KCAL/MOL
REMARK 927      BINDING AFFINITY PREDICTED BY RF-SCORE:    0.00 PKD
ROOT
HETATM    1  C   UNL     1     -11.474  14.327  69.363  1.00  0.00    -0.337 C  
HETATM    2  C   UNL     1     -12.001  13.001  69.906  1.00  0.00    -0.311 C  
ENDROOT
BRANCH   2   3
HETATM    3  N   UNL     1     -12.531  13.069  71.279  1.00  0.00    -0.290 NA 
BRANCH   3   4
HETATM    4  C   UNL     1     -13.185  14.347  71.604  1.00  0.00    -0.350 C  
HETATM    5  C   UNL     1     -13.048  14.839  73.040  1.00  0.00    -0.614 C  
ENDBRANCH   3   4
BRANCH   3   6
HETATM    6  C   UNL     1     -13.368  11.883  71.535  1.00  0.00    -0.033 C  
BRANCH   6   7
HETATM    7  C   UNL     1     -12.545  10.610  71.646  1.00  0.00    -0.482 C  
HETATM    8  C   UNL     1     -11.839   9.519  71.741  1.00  0.00    -0.430 C  
BRANCH   8   9
HETATM    9  C   UNL     1     -11.024   8.305  71.832  1.00  0.00    -0.287 C  
BRANCH   9  10
HETATM   10  O   UNL     1      -9.640   8.607  71.606  1.00  0.00    -0.221 OA 
BRANCH  10  11
HETATM   11  C   UNL     1      -8.933   7.621  70.970  1.00  0.00    -0.146 C  
HETATM   12  O   UNL     1      -8.574   6.574  71.500  1.00  0.00    -0.128 OA 
HETATM   13  C   UNL     1      -8.616   8.051  69.493  1.00  0.00    -0.136 C  
HETATM   14  C   UNL     1      -9.250   7.020  68.535  1.00  0.00    -0.137 A  
HETATM   15  C   UNL     1      -7.058   8.150  69.317  1.00  0.00    -0.060 C  
HETATM   16  O   UNL     1      -9.203   9.332  69.215  1.00  0.00    -0.144 OA 
HETATM   17  H   UNL     1      -9.011   9.592  68.322  1.00  0.00     0.000 HD 
HETATM   18  C   UNL     1     -10.192   7.400  67.561  1.00  0.00    -0.289 A  
HETATM   19  C   UNL     1      -6.593   8.528  67.892  1.00  0.00    -0.061 C  
HETATM   20  C   UNL     1     -10.790   6.458  66.720  1.00  0.00    -0.361 A  
HETATM   21  C   UNL     1      -6.743  10.009  67.547  1.00  0.00    -0.072 C  
HETATM   22  C   UNL     1      -6.092  10.917  68.584  1.00  0.00    -0.043 C  
HETATM   23  C   UNL     1     -10.461   5.111  66.834  1.00  0.00    -0.280 A  
HETATM   24  C   UNL     1      -9.524   4.708  67.782  1.00  0.00    -0.190 A  
HETATM   25  C   UNL     1      -6.506  10.584  70.011  1.00  0.00    -0.135 C  
HETATM   26  C   UNL     1      -6.359   9.096  70.324  1.00  0.00    -0.047 C  
HETATM   27  C   UNL     1      -8.921   5.653  68.616  1.00  0.00    -0.113 A  
ENDBRANCH  10  11
ENDBRANCH   9  10
ENDBRANCH   8   9
ENDBRANCH   6   7
ENDBRANCH   3   6
ENDBRANCH   2   3
TORSDOF 7
ENDMDL
MODEL      164
REMARK 921   NORMALIZED FREE ENERGY PREDICTED BY IDOCK:   -3.65 KCAL/MOL
REMARK 922        TOTAL FREE ENERGY PREDICTED BY IDOCK:   -6.39 KCAL/MOL
REMARK 923 INTER-LIGAND FREE ENERGY PREDICTED BY IDOCK:   -5.82 KCAL/MOL
REMARK 924 INTRA-LIGAND FREE ENERGY PREDICTED BY IDOCK:   -0.57 KCAL/MOL
REMARK 927      BINDING AFFINITY PREDICTED BY RF-SCORE:    0.00 PKD
ROOT
HETATM    1  C   UNL     1     -11.499  14.327  69.342  1.00  0.00    -0.337 C  
HETATM    2  C   UNL     1     -11.888  13.000  69.990  1.00  0.00    -0.285 C  
ENDROOT
BRANCH   2   3
HETATM    3  N   UNL     1     -12.478  13.125  71.334  1.00  0.00    -0.250 NA 
BRANCH   3   4
HETATM    4  C   UNL     1     -13.123  14.424  71.585  1.00  0.00    -0.350 C  
HETATM    5  C   UNL     1     -13.052  14.959  73.010  1.00  0.00    -0.605 C  
ENDBRANCH   3   4
BRANCH   3   6
HETATM    6  C   UNL     1     -13.348  11.964  71.592  1.00  0.00    -0.137 C  
BRANCH   6   7
HETATM    7  C   UNL     1     -12.570  10.660  71.638  1.00  0.00    -0.482 C  
HETATM    8  C   UNL     1     -11.901   9.541  71.678  1.00  0.00    -0.468 C  
BRANCH   8   9
HETATM    9  C   UNL     1     -11.128   8.297  71.706  1.00  0.00    -0.278 C  
BRANCH   9  10
HETATM   10  O   UNL     1     -10.510   8.056  70.434  1.00  0.00    -0.210 OA 
BRANCH  10  11
HETATM   11  C   UNL     1     -10.771   6.826  69.893  1.00  0.00    -0.250 C  
HETATM   12  O   UNL     1     -11.896   6.372  69.712  1.00  0.00    -0.357 OA 
HETATM   13  C   UNL     1      -9.425   6.075  69.587  1.00  0.00    -0.144 C  
HETATM   14  C   UNL     1      -9.366   5.770  68.075  1.00  0.00    -0.112 A  
HETATM   15  C   UNL     1      -9.363   4.771  70.462  1.00  0.00    -0.219 C  
HETATM   16  O   UNL     1      -8.306   6.913  69.914  1.00  0.00    -0.134 OA 
HETATM   17  H   UNL     1      -7.493   6.459  69.730  1.00  0.00     0.000 HD 
HETATM   18  C   UNL     1      -8.314   6.245  67.268  1.00  0.00    -0.109 A  
HETATM   19  C   UNL     1      -8.104   3.903  70.236  1.00  0.00    -0.056 C  
HETATM   20  C   UNL     1      -8.284   5.997  65.893  1.00  0.00    -0.129 A  
HETATM   21  C   UNL     1      -6.838   4.433  70.908  1.00  0.00    -0.036 C  
HETATM   22  C   UNL     1      -7.041   4.712  72.393  1.00  0.00    -0.074 C  
HETATM   23  C   UNL     1      -9.305   5.270  65.291  1.00  0.00    -0.004 A  
HETATM   24  C   UNL     1     -10.352   4.779  66.067  1.00  0.00    -0.328 A  
HETATM   25  C   UNL     1      -8.276   5.557  72.677  1.00  0.00    -0.113 C  
HETATM   26  C   UNL     1      -9.522   5.012  71.983  1.00  0.00    -0.180 C  
HETATM   27  C   UNL     1     -10.376   5.020  67.444  1.00  0.00    -0.174 A  
ENDBRANCH  10  11
ENDBRANCH   9  10
ENDBRANCH   8   9
ENDBRANCH   6   7
ENDBRANCH   3   6
ENDBRANCH   2   3
TORSDOF 7
ENDMDL
MODEL      165
REMARK 921   NORMALIZED FREE ENERGY PREDICTED BY IDOCK:   -3.65 KCAL/MOL
REMARK 922        TOTAL FREE ENERGY PREDICTED BY IDOCK:   -6.39 KCAL/MOL
REMARK 923 INTER-LIGAND FREE ENERGY PREDICTED BY IDOCK:   -5.61 KCAL/MOL
REMARK 924 INTRA-LIGAND FREE ENERGY PREDICTED BY IDOCK:   -0.78 KCAL/MOL
REMARK 927      BINDING AFFINITY PREDICTED BY RF-SCORE:    0.00 PKD
ROOT
HETATM    1  C   UNL     1     -11.212   5.521  72.934  1.00  0.00    -0.358 C  
HETATM    2  C   UNL     1      -9.897   5.120  72.270  1.00  0.00    -0.171 C  
ENDROOT
BRANCH   2   3
HETATM    3  N   UNL     1      -9.747   5.584  70.880  1.00  0.00    -0.170 NA 
BRANCH   3   4
HETATM    4  C   UNL     1      -9.229   4.557  69.961  1.00  0.00    -0.128 C  
HETATM    5  C   UNL     1      -9.282   3.114  70.448  1.00  0.00    -0.215 C  
ENDBRANCH   3   4
BRANCH   3   6
HETATM    6  C   UNL     1     -11.007   6.205  70.437  1.00  0.00    -0.337 C  
BRANCH   6   7
HETATM    7  C   UNL     1     -10.813   7.099  69.223  1.00  0.00    -0.204 C  
HETATM    8  C   UNL     1     -10.647   7.866  68.182  1.00  0.00    -0.179 C  
BRANCH   8   9
HETATM    9  C   UNL     1     -10.484   8.743  67.021  1.00  0.00    -0.268 C  
BRANCH   9  10
HETATM   10  O   UNL     1     -10.817  10.098  67.359  1.00  0.00    -0.278 OA 
BRANCH  10  11
HETATM   11  C   UNL     1     -10.197  11.049  66.594  1.00  0.00    -0.235 C  
HETATM   12  O   UNL     1     -10.312  11.144  65.377  1.00  0.00    -0.255 OA 
HETATM   13  C   UNL     1      -9.289  11.960  67.498  1.00  0.00    -0.177 C  
HETATM   14  C   UNL     1      -9.780  13.418  67.374  1.00  0.00    -0.221 A  
HETATM   15  C   UNL     1      -7.794  11.793  67.044  1.00  0.00    -0.161 C  
HETATM   16  O   UNL     1      -9.410  11.568  68.873  1.00  0.00    -0.367 OA 
HETATM   17  H   UNL     1      -8.861  12.118  69.419  1.00  0.00     0.000 HD 
HETATM   18  C   UNL     1     -10.200  14.152  68.500  1.00  0.00    -0.247 A  
HETATM   19  C   UNL     1      -6.784  12.666  67.824  1.00  0.00    -0.127 C  
HETATM   20  C   UNL     1     -10.678  15.460  68.378  1.00  0.00    -0.256 A  
HETATM   21  C   UNL     1      -6.436  12.145  69.217  1.00  0.00    -0.111 C  
HETATM   22  C   UNL     1      -5.987  10.689  69.199  1.00  0.00    -0.041 C  
HETATM   23  C   UNL     1     -10.749  16.065  67.128  1.00  0.00    -0.283 A  
HETATM   24  C   UNL     1     -10.331  15.365  65.999  1.00  0.00    -0.339 A  
HETATM   25  C   UNL     1      -6.942   9.781  68.434  1.00  0.00    -0.068 C  
HETATM   26  C   UNL     1      -7.282  10.332  67.052  1.00  0.00    -0.091 C  
HETATM   27  C   UNL     1      -9.845  14.060  66.123  1.00  0.00    -0.319 A  
ENDBRANCH  10  11
ENDBRANCH   9  10
ENDBRANCH   8   9
ENDBRANCH   6   7
ENDBRANCH   3   6
ENDBRANCH   2   3
TORSDOF 7
ENDMDL
MODEL      166
REMARK 921   NORMALIZED FREE ENERGY PREDICTED BY IDOCK:   -3.64 KCAL/MOL
REMARK 922        TOTAL FREE ENERGY PREDICTED BY IDOCK:   -6.38 KCAL/MOL
REMARK 923 INTER-LIGAND FREE ENERGY PREDICTED BY IDOCK:   -5.86 KCAL/MOL
REMARK 924 INTRA-LIGAND FREE ENERGY PREDICTED BY IDOCK:   -0.52 KCAL/MOL
REMARK 927      BINDING AFFINITY PREDICTED BY RF-SCORE:    0.00 PKD
ROOT
HETATM    1  C   UNL     1     -12.951  13.121  65.057  1.00  0.00    -0.221 C  
HETATM    2  C   UNL     1     -12.138  12.606  63.871  1.00  0.00    -0.487 C  
ENDROOT
BRANCH   2   3
HETATM    3  N   UNL     1     -10.692  12.872  63.959  1.00  0.00    -0.410 NA 
BRANCH   3   4
HETATM    4  C   UNL     1     -10.287  13.573  65.189  1.00  0.00    -0.353 C  
HETATM    5  C   UNL     1     -10.080  15.079  65.081  1.00  0.00    -0.350 C  
ENDBRANCH   3   4
BRANCH   3   6
HETATM    6  C   UNL     1      -9.953  11.622  63.711  1.00  0.00    -0.349 C  
BRANCH   6   7
HETATM    7  C   UNL     1     -10.051  10.653  64.877  1.00  0.00    -0.402 C  
HETATM    8  C   UNL     1     -10.135   9.821  65.878  1.00  0.00    -0.314 C  
BRANCH   8   9
HETATM    9  C   UNL     1     -10.233   8.864  66.983  1.00  0.00    -0.275 C  
BRANCH   9  10
HETATM   10  O   UNL     1      -9.489   7.673  66.689  1.00  0.00    -0.177 OA 
BRANCH  10  11
HETATM   11  C   UNL     1      -8.639   7.268  67.682  1.00  0.00    -0.126 C  
HETATM   12  O   UNL     1      -7.672   7.913  68.074  1.00  0.00    -0.119 OA 
HETATM   13  C   UNL     1      -9.058   5.845  68.203  1.00  0.00    -0.117 C  
HETATM   14  C   UNL     1      -9.382   5.950  69.708  1.00  0.00    -0.171 A  
HETATM   15  C   UNL     1      -7.889   4.835  67.912  1.00  0.00    -0.082 C  
HETATM   16  O   UNL     1     -10.242   5.400  67.525  1.00  0.00    -0.178 OA 
HETATM   17  H   UNL     1     -10.495   4.541  67.839  1.00  0.00     0.000 HD 
HETATM   18  C   UNL     1     -10.644   5.590  70.217  1.00  0.00    -0.357 A  
HETATM   19  C   UNL     1      -8.145   3.394  68.409  1.00  0.00    -0.077 C  
HETATM   20  C   UNL     1     -10.945   5.721  71.575  1.00  0.00    -0.304 A  
HETATM   21  C   UNL     1      -9.091   2.577  67.530  1.00  0.00    -0.212 C  
HETATM   22  C   UNL     1      -8.668   2.575  66.065  1.00  0.00    -0.128 C  
HETATM   23  C   UNL     1      -9.990   6.215  72.458  1.00  0.00    -0.188 A  
HETATM   24  C   UNL     1      -8.730   6.569  71.984  1.00  0.00    -0.132 A  
HETATM   25  C   UNL     1      -8.392   3.971  65.523  1.00  0.00    -0.109 C  
HETATM   26  C   UNL     1      -7.455   4.768  66.428  1.00  0.00    -0.086 C  
HETATM   27  C   UNL     1      -8.428   6.430  70.626  1.00  0.00    -0.135 A  
ENDBRANCH  10  11
ENDBRANCH   9  10
ENDBRANCH   8   9
ENDBRANCH   6   7
ENDBRANCH   3   6
ENDBRANCH   2   3
TORSDOF 7
ENDMDL
MODEL      167
REMARK 921   NORMALIZED FREE ENERGY PREDICTED BY IDOCK:   -3.60 KCAL/MOL
REMARK 922        TOTAL FREE ENERGY PREDICTED BY IDOCK:   -6.32 KCAL/MOL
REMARK 923 INTER-LIGAND FREE ENERGY PREDICTED BY IDOCK:   -5.44 KCAL/MOL
REMARK 924 INTRA-LIGAND FREE ENERGY PREDICTED BY IDOCK:   -0.88 KCAL/MOL
REMARK 927      BINDING AFFINITY PREDICTED BY RF-SCORE:    0.00 PKD
ROOT
HETATM    1  C   UNL     1     -12.108  12.688  63.854  1.00  0.00    -0.567 C  
HETATM    2  C   UNL     1     -11.420  12.873  65.205  1.00  0.00    -0.313 C  
ENDROOT
BRANCH   2   3
HETATM    3  N   UNL     1     -10.386  11.868  65.508  1.00  0.00    -0.254 NA 
BRANCH   3   4
HETATM    4  C   UNL     1     -10.497  11.284  66.854  1.00  0.00    -0.245 C  
HETATM    5  C   UNL     1     -11.568  11.870  67.767  1.00  0.00    -0.393 C  
ENDBRANCH   3   4
BRANCH   3   6
HETATM    6  C   UNL     1     -10.345  10.872  64.422  1.00  0.00    -0.361 C  
BRANCH   6   7
HETATM    7  C   UNL     1      -9.400   9.723  64.731  1.00  0.00    -0.327 C  
HETATM    8  C   UNL     1      -8.590   8.736  64.997  1.00  0.00    -0.196 C  
BRANCH   8   9
HETATM    9  C   UNL     1      -7.675   7.639  65.322  1.00  0.00    -0.110 C  
BRANCH   9  10
HETATM   10  O   UNL     1      -7.919   7.154  66.651  1.00  0.00    -0.107 OA 
BRANCH  10  11
HETATM   11  C   UNL     1      -8.890   6.193  66.742  1.00  0.00    -0.122 C  
HETATM   12  O   UNL     1      -9.475   5.706  65.781  1.00  0.00    -0.122 OA 
HETATM   13  C   UNL     1      -9.169   5.851  68.249  1.00  0.00    -0.117 C  
HETATM   14  C   UNL     1      -8.877   4.352  68.474  1.00  0.00    -0.133 A  
HETATM   15  C   UNL     1     -10.658   6.226  68.587  1.00  0.00    -0.314 C  
HETATM   16  O   UNL     1      -8.291   6.604  69.099  1.00  0.00    -0.122 OA 
HETATM   17  H   UNL     1      -8.460   6.397  70.010  1.00  0.00     0.000 HD 
HETATM   18  C   UNL     1      -7.926   3.919  69.417  1.00  0.00    -0.058 A  
HETATM   19  C   UNL     1     -11.090   5.905  70.036  1.00  0.00    -0.411 C  
HETATM   20  C   UNL     1      -7.639   2.563  69.591  1.00  0.00    -0.043 A  
HETATM   21  C   UNL     1     -10.586   6.895  71.084  1.00  0.00    -0.246 C  
HETATM   22  C   UNL     1     -10.921   8.339  70.729  1.00  0.00    -0.266 C  
HETATM   23  C   UNL     1      -8.296   1.605  68.825  1.00  0.00    -0.074 A  
HETATM   24  C   UNL     1      -9.249   2.004  67.892  1.00  0.00    -0.228 A  
HETATM   25  C   UNL     1     -10.526   8.711  69.306  1.00  0.00    -0.226 C  
HETATM   26  C   UNL     1     -11.031   7.697  68.282  1.00  0.00     0.082 C  
HETATM   27  C   UNL     1      -9.541   3.361  67.725  1.00  0.00    -0.166 A  
ENDBRANCH  10  11
ENDBRANCH   9  10
ENDBRANCH   8   9
ENDBRANCH   6   7
ENDBRANCH   3   6
ENDBRANCH   2   3
TORSDOF 7
ENDMDL
MODEL      168
REMARK 921   NORMALIZED FREE ENERGY PREDICTED BY IDOCK:   -3.60 KCAL/MOL
REMARK 922        TOTAL FREE ENERGY PREDICTED BY IDOCK:   -6.32 KCAL/MOL
REMARK 923 INTER-LIGAND FREE ENERGY PREDICTED BY IDOCK:   -5.63 KCAL/MOL
REMARK 924 INTRA-LIGAND FREE ENERGY PREDICTED BY IDOCK:   -0.68 KCAL/MOL
REMARK 927      BINDING AFFINITY PREDICTED BY RF-SCORE:    0.00 PKD
ROOT
HETATM    1  C   UNL     1     -10.133   3.772  63.151  1.00  0.00    -0.176 C  
HETATM    2  C   UNL     1      -9.254   4.254  64.303  1.00  0.00    -0.151 C  
ENDROOT
BRANCH   2   3
HETATM    3  N   UNL     1      -8.599   3.177  65.065  1.00  0.00    -0.103 NA 
BRANCH   3   4
HETATM    4  C   UNL     1      -7.134   3.146  64.917  1.00  0.00    -0.058 C  
HETATM    5  C   UNL     1      -6.514   4.219  64.029  1.00  0.00    -0.041 C  
ENDBRANCH   3   4
BRANCH   3   6
HETATM    6  C   UNL     1      -9.060   3.223  66.464  1.00  0.00    -0.162 C  
BRANCH   6   7
HETATM    7  C   UNL     1      -8.657   4.511  67.161  1.00  0.00    -0.104 C  
HETATM    8  C   UNL     1      -8.313   5.618  67.759  1.00  0.00    -0.100 C  
BRANCH   8   9
HETATM    9  C   UNL     1      -7.913   6.870  68.405  1.00  0.00    -0.122 C  
BRANCH   9  10
HETATM   10  O   UNL     1      -8.919   7.304  69.332  1.00  0.00    -0.140 OA 
BRANCH  10  11
HETATM   11  C   UNL     1      -8.847   8.626  69.680  1.00  0.00    -0.137 C  
HETATM   12  O   UNL     1      -7.824   9.191  70.050  1.00  0.00    -0.076 OA 
HETATM   13  C   UNL     1     -10.269   9.288  69.579  1.00  0.00    -0.207 C  
HETATM   14  C   UNL     1     -10.201  10.444  68.558  1.00  0.00    -0.191 A  
HETATM   15  C   UNL     1     -10.701   9.779  71.008  1.00  0.00    -0.342 C  
HETATM   16  O   UNL     1     -11.227   8.332  69.101  1.00  0.00    -0.423 OA 
HETATM   17  H   UNL     1     -12.086   8.732  69.041  1.00  0.00     0.000 HD 
HETATM   18  C   UNL     1     -11.026  10.470  67.418  1.00  0.00    -0.352 A  
HETATM   19  C   UNL     1     -12.072  10.492  71.057  1.00  0.00    -0.492 C  
HETATM   20  C   UNL     1     -10.935  11.500  66.478  1.00  0.00    -0.346 A  
HETATM   21  C   UNL     1     -13.278   9.555  70.996  1.00  0.00    -0.250 C  
HETATM   22  C   UNL     1     -13.209   8.448  72.042  1.00  0.00    -0.372 C  
HETATM   23  C   UNL     1     -10.016  12.529  66.655  1.00  0.00    -0.243 A  
HETATM   24  C   UNL     1      -9.194  12.534  67.779  1.00  0.00    -0.198 A  
HETATM   25  C   UNL     1     -11.873   7.716  72.047  1.00  0.00    -0.342 C  
HETATM   26  C   UNL     1     -10.687   8.676  72.095  1.00  0.00    -0.417 C  
HETATM   27  C   UNL     1      -9.292  11.507  68.722  1.00  0.00    -0.088 A  
ENDBRANCH  10  11
ENDBRANCH   9  10
ENDBRANCH   8   9
ENDBRANCH   6   7
ENDBRANCH   3   6
ENDBRANCH   2   3
TORSDOF 7
ENDMDL
MODEL      169
REMARK 921   NORMALIZED FREE ENERGY PREDICTED BY IDOCK:   -3.59 KCAL/MOL
REMARK 922        TOTAL FREE ENERGY PREDICTED BY IDOCK:   -6.30 KCAL/MOL
REMARK 923 INTER-LIGAND FREE ENERGY PREDICTED BY IDOCK:   -5.74 KCAL/MOL
REMARK 924 INTRA-LIGAND FREE ENERGY PREDICTED BY IDOCK:   -0.56 KCAL/MOL
REMARK 927      BINDING AFFINITY PREDICTED BY RF-SCORE:    0.00 PKD
ROOT
HETATM    1  C   UNL     1      -5.601  20.454  69.242  1.00  0.00    -0.352 C  
HETATM    2  C   UNL     1      -6.197  20.977  67.937  1.00  0.00    -0.352 C  
ENDROOT
BRANCH   2   3
HETATM    3  N   UNL     1      -6.420  19.945  66.910  1.00  0.00    -0.194 NA 
BRANCH   3   4
HETATM    4  C   UNL     1      -6.522  20.478  65.541  1.00  0.00    -0.249 C  
HETATM    5  C   UNL     1      -5.475  20.000  64.541  1.00  0.00    -0.224 C  
ENDBRANCH   3   4
BRANCH   3   6
HETATM    6  C   UNL     1      -5.413  18.880  67.065  1.00  0.00    -0.145 C  
BRANCH   6   7
HETATM    7  C   UNL     1      -6.047  17.510  67.237  1.00  0.00    -0.162 C  
HETATM    8  C   UNL     1      -6.592  16.334  67.385  1.00  0.00    -0.212 C  
BRANCH   8   9
HETATM    9  C   UNL     1      -7.229  15.027  67.557  1.00  0.00    -0.201 C  
BRANCH   9  10
HETATM   10  O   UNL     1      -8.603  15.180  67.939  1.00  0.00    -0.148 OA 
BRANCH  10  11
HETATM   11  C   UNL     1      -9.233  14.019  68.299  1.00  0.00    -0.200 C  
HETATM   12  O   UNL     1      -8.690  13.090  68.888  1.00  0.00     0.101 OA 
HETATM   13  C   UNL     1     -10.724  14.038  67.804  1.00  0.00    -0.243 C  
HETATM   14  C   UNL     1     -11.650  13.905  69.031  1.00  0.00    -0.351 A  
HETATM   15  C   UNL     1     -10.930  12.870  66.772  1.00  0.00    -0.300 C  
HETATM   16  O   UNL     1     -11.016  15.289  67.162  1.00  0.00    -0.324 OA 
HETATM   17  H   UNL     1     -11.917  15.300  66.863  1.00  0.00     0.000 HD 
HETATM   18  C   UNL     1     -12.613  14.885  69.337  1.00  0.00     0.030 A  
HETATM   19  C   UNL     1     -12.371  12.741  66.226  1.00  0.00    -0.120 C  
HETATM   20  C   UNL     1     -13.425  14.779  70.470  1.00  0.00     0.004 A  
HETATM   21  C   UNL     1     -12.741  13.771  65.160  1.00  0.00    -0.439 C  
HETATM   22  C   UNL     1     -11.734  13.813  64.016  1.00  0.00    -0.364 C  
HETATM   23  C   UNL     1     -13.291  13.690  71.326  1.00  0.00    -0.259 A  
HETATM   24  C   UNL     1     -12.353  12.701  71.042  1.00  0.00    -0.307 A  
HETATM   25  C   UNL     1     -10.293  13.931  64.496  1.00  0.00    -0.260 C  
HETATM   26  C   UNL     1      -9.955  12.899  65.570  1.00  0.00    -0.226 C  
HETATM   27  C   UNL     1     -11.548  12.805  69.904  1.00  0.00    -0.243 A  
ENDBRANCH  10  11
ENDBRANCH   9  10
ENDBRANCH   8   9
ENDBRANCH   6   7
ENDBRANCH   3   6
ENDBRANCH   2   3
TORSDOF 7
ENDMDL
MODEL      170
REMARK 921   NORMALIZED FREE ENERGY PREDICTED BY IDOCK:   -3.57 KCAL/MOL
REMARK 922        TOTAL FREE ENERGY PREDICTED BY IDOCK:   -6.28 KCAL/MOL
REMARK 923 INTER-LIGAND FREE ENERGY PREDICTED BY IDOCK:   -5.57 KCAL/MOL
REMARK 924 INTRA-LIGAND FREE ENERGY PREDICTED BY IDOCK:   -0.71 KCAL/MOL
REMARK 927      BINDING AFFINITY PREDICTED BY RF-SCORE:    0.00 PKD
ROOT
HETATM    1  C   UNL     1     -10.268   8.317  68.427  1.00  0.00    -0.242 C  
HETATM    2  C   UNL     1     -10.315   7.937  66.948  1.00  0.00    -0.330 C  
ENDROOT
BRANCH   2   3
HETATM    3  N   UNL     1      -8.997   7.687  66.338  1.00  0.00    -0.160 NA 
BRANCH   3   4
HETATM    4  C   UNL     1      -8.745   6.271  66.022  1.00  0.00    -0.151 C  
HETATM    5  C   UNL     1      -9.804   5.271  66.472  1.00  0.00    -0.204 C  
ENDBRANCH   3   4
BRANCH   3   6
HETATM    6  C   UNL     1      -8.810   8.599  65.196  1.00  0.00    -0.103 C  
BRANCH   6   7
HETATM    7  C   UNL     1      -9.731   9.806  65.266  1.00  0.00    -0.371 C  
HETATM    8  C   UNL     1     -10.520  10.842  65.326  1.00  0.00    -0.299 C  
BRANCH   8   9
HETATM    9  C   UNL     1     -11.393  12.015  65.419  1.00  0.00    -0.321 C  
BRANCH   9  10
HETATM   10  O   UNL     1     -11.918  12.151  66.747  1.00  0.00    -0.606 OA 
BRANCH  10  11
HETATM   11  C   UNL     1     -12.046  13.442  67.184  1.00  0.00    -0.318 C  
HETATM   12  O   UNL     1     -12.777  14.280  66.666  1.00  0.00    -0.197 OA 
HETATM   13  C   UNL     1     -11.090  13.696  68.405  1.00  0.00    -0.264 C  
HETATM   14  C   UNL     1     -11.945  14.112  69.620  1.00  0.00    -0.389 A  
HETATM   15  C   UNL     1     -10.042  14.798  68.006  1.00  0.00    -0.218 C  
HETATM   16  O   UNL     1     -10.393  12.488  68.746  1.00  0.00    -0.338 OA 
HETATM   17  H   UNL     1      -9.815  12.641  69.484  1.00  0.00     0.000 HD 
HETATM   18  C   UNL     1     -11.921  13.381  70.823  1.00  0.00    -0.223 A  
HETATM   19  C   UNL     1      -9.053  15.183  69.131  1.00  0.00    -0.215 C  
HETATM   20  C   UNL     1     -12.725  13.740  71.908  1.00  0.00    -0.347 A  
HETATM   21  C   UNL     1      -7.929  14.174  69.361  1.00  0.00     0.291 C  
HETATM   22  C   UNL     1      -7.180  13.835  68.077  1.00  0.00    -0.137 C  
HETATM   23  C   UNL     1     -13.573  14.839  71.817  1.00  0.00    -0.485 A  
HETATM   24  C   UNL     1     -13.609  15.587  70.643  1.00  0.00    -0.003 A  
HETATM   25  C   UNL     1      -8.106  13.458  66.928  1.00  0.00     0.097 C  
HETATM   26  C   UNL     1      -9.227  14.475  66.731  1.00  0.00    -0.286 C  
HETATM   27  C   UNL     1     -12.798  15.231  69.561  1.00  0.00     0.250 A  
ENDBRANCH  10  11
ENDBRANCH   9  10
ENDBRANCH   8   9
ENDBRANCH   6   7
ENDBRANCH   3   6
ENDBRANCH   2   3
TORSDOF 7
ENDMDL
MODEL      171
REMARK 921   NORMALIZED FREE ENERGY PREDICTED BY IDOCK:   -3.57 KCAL/MOL
REMARK 922        TOTAL FREE ENERGY PREDICTED BY IDOCK:   -6.27 KCAL/MOL
REMARK 923 INTER-LIGAND FREE ENERGY PREDICTED BY IDOCK:   -6.07 KCAL/MOL
REMARK 924 INTRA-LIGAND FREE ENERGY PREDICTED BY IDOCK:   -0.20 KCAL/MOL
REMARK 927      BINDING AFFINITY PREDICTED BY RF-SCORE:    0.00 PKD
ROOT
HETATM    1  C   UNL     1      -8.443   7.162  65.593  1.00  0.00    -0.141 C  
HETATM    2  C   UNL     1      -7.795   8.529  65.796  1.00  0.00    -0.100 C  
ENDROOT
BRANCH   2   3
HETATM    3  N   UNL     1      -7.899   9.435  64.639  1.00  0.00    -0.114 NA 
BRANCH   3   4
HETATM    4  C   UNL     1      -6.856   9.226  63.621  1.00  0.00    -0.092 C  
HETATM    5  C   UNL     1      -5.795  10.314  63.497  1.00  0.00    -0.144 C  
ENDBRANCH   3   4
BRANCH   3   6
HETATM    6  C   UNL     1      -9.273   9.386  64.107  1.00  0.00     0.018 C  
BRANCH   6   7
HETATM    7  C   UNL     1     -10.151  10.486  64.681  1.00  0.00    -0.408 C  
HETATM    8  C   UNL     1     -10.903  11.430  65.173  1.00  0.00    -0.302 C  
BRANCH   8   9
HETATM    9  C   UNL     1     -11.745  12.480  65.753  1.00  0.00    -0.426 C  
BRANCH   9  10
HETATM   10  O   UNL     1     -11.143  13.769  65.570  1.00  0.00    -0.293 OA 
BRANCH  10  11
HETATM   11  C   UNL     1      -9.957  13.948  66.229  1.00  0.00    -0.306 C  
HETATM   12  O   UNL     1      -8.950  13.274  66.040  1.00  0.00     0.114 OA 
HETATM   13  C   UNL     1     -10.096  15.102  67.287  1.00  0.00    -0.235 C  
HETATM   14  C   UNL     1      -9.078  16.209  66.941  1.00  0.00    -0.241 A  
HETATM   15  C   UNL     1      -9.864  14.505  68.722  1.00  0.00    -0.220 C  
HETATM   16  O   UNL     1     -11.411  15.674  67.223  1.00  0.00    -0.255 OA 
HETATM   17  H   UNL     1     -11.495  16.372  67.862  1.00  0.00     0.000 HD 
HETATM   18  C   UNL     1      -9.487  17.531  66.679  1.00  0.00    -0.285 A  
HETATM   19  C   UNL     1      -9.932  15.540  69.869  1.00  0.00    -0.243 C  
HETATM   20  C   UNL     1      -8.565  18.522  66.331  1.00  0.00    -0.272 A  
HETATM   21  C   UNL     1     -11.347  15.966  70.257  1.00  0.00    -0.381 C  
HETATM   22  C   UNL     1     -12.253  14.777  70.551  1.00  0.00    -0.385 C  
HETATM   23  C   UNL     1      -7.211  18.215  66.235  1.00  0.00    -0.301 A  
HETATM   24  C   UNL     1      -6.778  16.919  66.499  1.00  0.00    -0.236 A  
HETATM   25  C   UNL     1     -12.219  13.717  69.457  1.00  0.00    -0.344 C  
HETATM   26  C   UNL     1     -10.794  13.320  69.080  1.00  0.00    -0.212 C  
HETATM   27  C   UNL     1      -7.700  15.930  66.856  1.00  0.00    -0.268 A  
ENDBRANCH  10  11
ENDBRANCH   9  10
ENDBRANCH   8   9
ENDBRANCH   6   7
ENDBRANCH   3   6
ENDBRANCH   2   3
TORSDOF 7
ENDMDL
MODEL      172
REMARK 921   NORMALIZED FREE ENERGY PREDICTED BY IDOCK:   -3.56 KCAL/MOL
REMARK 922        TOTAL FREE ENERGY PREDICTED BY IDOCK:   -6.27 KCAL/MOL
REMARK 923 INTER-LIGAND FREE ENERGY PREDICTED BY IDOCK:   -5.80 KCAL/MOL
REMARK 924 INTRA-LIGAND FREE ENERGY PREDICTED BY IDOCK:   -0.47 KCAL/MOL
REMARK 927      BINDING AFFINITY PREDICTED BY RF-SCORE:    0.00 PKD
ROOT
HETATM    1  C   UNL     1      -9.847   7.468  66.747  1.00  0.00    -0.295 C  
HETATM    2  C   UNL     1     -10.513   7.997  68.015  1.00  0.00    -0.184 C  
ENDROOT
BRANCH   2   3
HETATM    3  N   UNL     1      -9.649   8.850  68.850  1.00  0.00    -0.158 NA 
BRANCH   3   4
HETATM    4  C   UNL     1      -9.321   8.265  70.161  1.00  0.00    -0.159 C  
HETATM    5  C   UNL     1      -8.266   7.165  70.174  1.00  0.00    -0.135 C  
ENDBRANCH   3   4
BRANCH   3   6
HETATM    6  C   UNL     1      -8.473   9.264  68.066  1.00  0.00    -0.120 C  
BRANCH   6   7
HETATM    7  C   UNL     1      -8.126  10.728  68.277  1.00  0.00    -0.121 C  
HETATM    8  C   UNL     1      -7.829  11.984  68.460  1.00  0.00    -0.129 C  
BRANCH   8   9
HETATM    9  C   UNL     1      -7.522  13.400  68.675  1.00  0.00    -0.104 C  
BRANCH   9  10
HETATM   10  O   UNL     1      -7.952  14.187  67.555  1.00  0.00    -0.162 OA 
BRANCH  10  11
HETATM   11  C   UNL     1      -9.304  14.396  67.486  1.00  0.00    -0.198 C  
HETATM   12  O   UNL     1     -10.082  13.695  66.847  1.00  0.00    -0.251 OA 
HETATM   13  C   UNL     1      -9.694  15.681  68.301  1.00  0.00    -0.201 C  
HETATM   14  C   UNL     1     -10.684  15.276  69.412  1.00  0.00    -0.266 A  
HETATM   15  C   UNL     1     -10.304  16.741  67.314  1.00  0.00    -0.304 C  
HETATM   16  O   UNL     1      -8.530  16.241  68.928  1.00  0.00    -0.229 OA 
HETATM   17  H   UNL     1      -8.765  17.018  69.421  1.00  0.00     0.000 HD 
HETATM   18  C   UNL     1     -10.405  15.514  70.772  1.00  0.00     0.209 A  
HETATM   19  C   UNL     1     -10.774  18.052  67.986  1.00  0.00    -0.301 C  
HETATM   20  C   UNL     1     -11.289  15.112  71.777  1.00  0.00    -0.391 A  
HETATM   21  C   UNL     1      -9.647  19.017  68.351  1.00  0.00    -0.429 C  
HETATM   22  C   UNL     1      -8.731  19.316  67.170  1.00  0.00    -0.319 C  
HETATM   23  C   UNL     1     -12.474  14.462  71.447  1.00  0.00    -0.433 A  
HETATM   24  C   UNL     1     -12.780  14.223  70.110  1.00  0.00    -0.246 A  
HETATM   25  C   UNL     1      -8.244  18.059  66.461  1.00  0.00    -0.298 C  
HETATM   26  C   UNL     1      -9.388  17.107  66.121  1.00  0.00    -0.222 C  
HETATM   27  C   UNL     1     -11.899  14.633  69.105  1.00  0.00    -0.347 A  
ENDBRANCH  10  11
ENDBRANCH   9  10
ENDBRANCH   8   9
ENDBRANCH   6   7
ENDBRANCH   3   6
ENDBRANCH   2   3
TORSDOF 7
ENDMDL
MODEL      173
REMARK 921   NORMALIZED FREE ENERGY PREDICTED BY IDOCK:   -3.56 KCAL/MOL
REMARK 922        TOTAL FREE ENERGY PREDICTED BY IDOCK:   -6.26 KCAL/MOL
REMARK 923 INTER-LIGAND FREE ENERGY PREDICTED BY IDOCK:   -5.85 KCAL/MOL
REMARK 924 INTRA-LIGAND FREE ENERGY PREDICTED BY IDOCK:   -0.41 KCAL/MOL
REMARK 927      BINDING AFFINITY PREDICTED BY RF-SCORE:    0.00 PKD
ROOT
HETATM    1  C   UNL     1     -10.273   3.897  72.637  1.00  0.00    -0.235 C  
HETATM    2  C   UNL     1     -10.446   5.389  72.362  1.00  0.00    -0.217 C  
ENDROOT
BRANCH   2   3
HETATM    3  N   UNL     1     -10.275   6.253  73.543  1.00  0.00    -0.217 NA 
BRANCH   3   4
HETATM    4  C   UNL     1      -8.888   6.328  74.033  1.00  0.00    -0.126 C  
HETATM    5  C   UNL     1      -7.801   6.507  72.980  1.00  0.00    -0.104 C  
ENDBRANCH   3   4
BRANCH   3   6
HETATM    6  C   UNL     1     -10.889   7.566  73.277  1.00  0.00    -0.355 C  
BRANCH   6   7
HETATM    7  C   UNL     1     -10.758   7.979  71.820  1.00  0.00    -0.296 C  
HETATM    8  C   UNL     1     -10.644   8.332  70.570  1.00  0.00    -0.233 C  
BRANCH   8   9
HETATM    9  C   UNL     1     -10.489   8.721  69.167  1.00  0.00    -0.217 C  
BRANCH   9  10
HETATM   10  O   UNL     1     -10.564  10.147  69.026  1.00  0.00    -0.199 OA 
BRANCH  10  11
HETATM   11  C   UNL     1      -9.474  10.724  68.432  1.00  0.00    -0.174 C  
HETATM   12  O   UNL     1      -8.374  10.838  68.963  1.00  0.00    -0.148 OA 
HETATM   13  C   UNL     1      -9.855  11.254  67.003  1.00  0.00    -0.191 C  
HETATM   14  C   UNL     1      -8.966  10.542  65.962  1.00  0.00    -0.185 A  
HETATM   15  C   UNL     1      -9.673  12.815  66.976  1.00  0.00    -0.224 C  
HETATM   16  O   UNL     1     -11.224  10.935  66.707  1.00  0.00    -0.244 OA 
HETATM   17  H   UNL     1     -11.454  11.256  65.843  1.00  0.00     0.000 HD 
HETATM   18  C   UNL     1      -9.520   9.781  64.915  1.00  0.00    -0.331 A  
HETATM   19  C   UNL     1      -9.976  13.475  65.611  1.00  0.00    -0.252 C  
HETATM   20  C   UNL     1      -8.710   9.109  63.997  1.00  0.00    -0.165 A  
HETATM   21  C   UNL     1     -11.463  13.627  65.295  1.00  0.00    -0.320 C  
HETATM   22  C   UNL     1     -12.228  14.326  66.413  1.00  0.00    -0.426 C  
HETATM   23  C   UNL     1      -7.324   9.179  64.103  1.00  0.00    -0.104 A  
HETATM   24  C   UNL     1      -6.749   9.933  65.123  1.00  0.00    -0.109 A  
HETATM   25  C   UNL     1     -11.960  13.723  67.786  1.00  0.00    -0.391 C  
HETATM   26  C   UNL     1     -10.467  13.570  68.069  1.00  0.00    -0.245 C  
HETATM   27  C   UNL     1      -7.561  10.612  66.036  1.00  0.00    -0.142 A  
ENDBRANCH  10  11
ENDBRANCH   9  10
ENDBRANCH   8   9
ENDBRANCH   6   7
ENDBRANCH   3   6
ENDBRANCH   2   3
TORSDOF 7
ENDMDL
MODEL      174
REMARK 921   NORMALIZED FREE ENERGY PREDICTED BY IDOCK:   -3.56 KCAL/MOL
REMARK 922        TOTAL FREE ENERGY PREDICTED BY IDOCK:   -6.26 KCAL/MOL
REMARK 923 INTER-LIGAND FREE ENERGY PREDICTED BY IDOCK:   -5.77 KCAL/MOL
REMARK 924 INTRA-LIGAND FREE ENERGY PREDICTED BY IDOCK:   -0.48 KCAL/MOL
REMARK 927      BINDING AFFINITY PREDICTED BY RF-SCORE:    0.00 PKD
ROOT
HETATM    1  C   UNL     1     -13.689  15.694  72.720  1.00  0.00    -0.662 C  
HETATM    2  C   UNL     1     -14.157  14.994  71.447  1.00  0.00    -0.487 C  
ENDROOT
BRANCH   2   3
HETATM    3  N   UNL     1     -13.070  14.502  70.583  1.00  0.00    -0.319 NA 
BRANCH   3   4
HETATM    4  C   UNL     1     -12.063  15.524  70.250  1.00  0.00    -0.386 C  
HETATM    5  C   UNL     1     -11.636  15.612  68.789  1.00  0.00    -0.393 C  
ENDBRANCH   3   4
BRANCH   3   6
HETATM    6  C   UNL     1     -12.506  13.272  71.167  1.00  0.00    -0.308 C  
BRANCH   6   7
HETATM    7  C   UNL     1     -12.064  12.280  70.104  1.00  0.00    -0.364 C  
HETATM    8  C   UNL     1     -11.686  11.429  69.191  1.00  0.00    -0.410 C  
BRANCH   8   9
HETATM    9  C   UNL     1     -11.285  10.458  68.170  1.00  0.00    -0.268 C  
BRANCH   9  10
HETATM   10  O   UNL     1     -10.810   9.250  68.780  1.00  0.00    -0.187 OA 
BRANCH  10  11
HETATM   11  C   UNL     1     -10.305   8.326  67.906  1.00  0.00    -0.219 C  
HETATM   12  O   UNL     1     -10.988   7.604  67.187  1.00  0.00    -0.266 OA 
HETATM   13  C   UNL     1      -8.736   8.298  67.997  1.00  0.00    -0.135 C  
HETATM   14  C   UNL     1      -8.158   8.652  66.611  1.00  0.00    -0.100 A  
HETATM   15  C   UNL     1      -8.282   6.876  68.488  1.00  0.00    -0.121 C  
HETATM   16  O   UNL     1      -8.279   9.286  68.933  1.00  0.00    -0.108 OA 
HETATM   17  H   UNL     1      -7.331   9.269  68.989  1.00  0.00     0.000 HD 
HETATM   18  C   UNL     1      -7.296   9.751  66.431  1.00  0.00    -0.095 A  
HETATM   19  C   UNL     1      -6.751   6.687  68.588  1.00  0.00    -0.064 C  
HETATM   20  C   UNL     1      -6.803  10.089  65.167  1.00  0.00    -0.130 A  
HETATM   21  C   UNL     1      -6.110   7.333  69.816  1.00  0.00    -0.027 C  
HETATM   22  C   UNL     1      -6.790   6.916  71.115  1.00  0.00    -0.058 C  
HETATM   23  C   UNL     1      -7.162   9.338  64.053  1.00  0.00    -0.098 A  
HETATM   24  C   UNL     1      -8.004   8.239  64.204  1.00  0.00    -0.148 A  
HETATM   25  C   UNL     1      -8.305   7.071  71.071  1.00  0.00    -0.125 C  
HETATM   26  C   UNL     1      -8.916   6.429  69.828  1.00  0.00    -0.141 C  
HETATM   27  C   UNL     1      -8.489   7.897  65.470  1.00  0.00    -0.153 A  
ENDBRANCH  10  11
ENDBRANCH   9  10
ENDBRANCH   8   9
ENDBRANCH   6   7
ENDBRANCH   3   6
ENDBRANCH   2   3
TORSDOF 7
ENDMDL
MODEL      175
REMARK 921   NORMALIZED FREE ENERGY PREDICTED BY IDOCK:   -3.54 KCAL/MOL
REMARK 922        TOTAL FREE ENERGY PREDICTED BY IDOCK:   -6.23 KCAL/MOL
REMARK 923 INTER-LIGAND FREE ENERGY PREDICTED BY IDOCK:   -5.45 KCAL/MOL
REMARK 924 INTRA-LIGAND FREE ENERGY PREDICTED BY IDOCK:   -0.78 KCAL/MOL
REMARK 927      BINDING AFFINITY PREDICTED BY RF-SCORE:    0.00 PKD
ROOT
HETATM    1  C   UNL     1      -6.569   8.634  71.992  1.00  0.00    -0.079 C  
HETATM    2  C   UNL     1      -5.516   8.798  70.898  1.00  0.00    -0.029 C  
ENDROOT
BRANCH   2   3
HETATM    3  N   UNL     1      -6.044   9.267  69.605  1.00  0.00    -0.039 NA 
BRANCH   3   4
HETATM    4  C   UNL     1      -6.353   8.183  68.657  1.00  0.00    -0.053 C  
HETATM    5  C   UNL     1      -7.814   7.763  68.552  1.00  0.00    -0.120 C  
ENDBRANCH   3   4
BRANCH   3   6
HETATM    6  C   UNL     1      -7.167  10.191  69.846  1.00  0.00    -0.154 C  
BRANCH   6   7
HETATM    7  C   UNL     1      -6.958  11.539  69.176  1.00  0.00    -0.113 C  
HETATM    8  C   UNL     1      -6.778  12.695  68.601  1.00  0.00    -0.088 C  
BRANCH   8   9
HETATM    9  C   UNL     1      -6.547  13.987  67.952  1.00  0.00    -0.165 C  
BRANCH   9  10
HETATM   10  O   UNL     1      -7.592  14.913  68.283  1.00  0.00    -0.104 OA 
BRANCH  10  11
HETATM   11  C   UNL     1      -8.554  15.062  67.320  1.00  0.00    -0.206 C  
HETATM   12  O   UNL     1      -8.412  15.718  66.294  1.00  0.00    -0.298 OA 
HETATM   13  C   UNL     1      -9.867  14.314  67.750  1.00  0.00    -0.223 C  
HETATM   14  C   UNL     1     -10.192  13.244  66.686  1.00  0.00    -0.265 A  
HETATM   15  C   UNL     1     -11.022  15.368  67.909  1.00  0.00    -0.310 C  
HETATM   16  O   UNL     1      -9.667  13.644  69.004  1.00  0.00    -0.415 OA 
HETATM   17  H   UNL     1     -10.460  13.192  69.263  1.00  0.00     0.000 HD 
HETATM   18  C   UNL     1     -10.300  11.881  67.020  1.00  0.00    -0.239 A  
HETATM   19  C   UNL     1     -12.394  14.768  68.292  1.00  0.00     0.078 C  
HETATM   20  C   UNL     1     -10.559  10.912  66.047  1.00  0.00    -0.254 A  
HETATM   21  C   UNL     1     -12.527  14.375  69.763  1.00  0.00    -0.262 C  
HETATM   22  C   UNL     1     -12.156  15.515  70.705  1.00  0.00    -0.435 C  
HETATM   23  C   UNL     1     -10.715  11.282  64.715  1.00  0.00    -0.352 A  
HETATM   24  C   UNL     1     -10.624  12.625  64.358  1.00  0.00    -0.388 A  
HETATM   25  C   UNL     1     -10.815  16.154  70.368  1.00  0.00    -0.255 C  
HETATM   26  C   UNL     1     -10.704  16.522  68.891  1.00  0.00    -0.337 C  
HETATM   27  C   UNL     1     -10.374  13.594  65.334  1.00  0.00    -0.345 A  
ENDBRANCH  10  11
ENDBRANCH   9  10
ENDBRANCH   8   9
ENDBRANCH   6   7
ENDBRANCH   3   6
ENDBRANCH   2   3
TORSDOF 7
ENDMDL
MODEL      176
REMARK 921   NORMALIZED FREE ENERGY PREDICTED BY IDOCK:   -3.53 KCAL/MOL
REMARK 922        TOTAL FREE ENERGY PREDICTED BY IDOCK:   -6.22 KCAL/MOL
REMARK 923 INTER-LIGAND FREE ENERGY PREDICTED BY IDOCK:   -6.16 KCAL/MOL
REMARK 924 INTRA-LIGAND FREE ENERGY PREDICTED BY IDOCK:   -0.06 KCAL/MOL
REMARK 927      BINDING AFFINITY PREDICTED BY RF-SCORE:    0.00 PKD
ROOT
HETATM    1  C   UNL     1     -11.789   6.541  71.992  1.00  0.00    -0.374 C  
HETATM    2  C   UNL     1     -10.309   6.260  71.746  1.00  0.00    -0.206 C  
ENDROOT
BRANCH   2   3
HETATM    3  N   UNL     1      -9.923   6.214  70.325  1.00  0.00    -0.179 NA 
BRANCH   3   4
HETATM    4  C   UNL     1      -9.968   4.864  69.737  1.00  0.00    -0.244 C  
HETATM    5  C   UNL     1      -8.944   3.860  70.253  1.00  0.00    -0.163 C  
ENDBRANCH   3   4
BRANCH   3   6
HETATM    6  C   UNL     1     -10.699   7.219  69.578  1.00  0.00    -0.232 C  
BRANCH   6   7
HETATM    7  C   UNL     1      -9.828   8.352  69.062  1.00  0.00    -0.184 C  
HETATM    8  C   UNL     1      -9.080   9.323  68.618  1.00  0.00    -0.132 C  
BRANCH   8   9
HETATM    9  C   UNL     1      -8.216  10.397  68.120  1.00  0.00    -0.116 C  
BRANCH   9  10
HETATM   10  O   UNL     1      -8.936  11.245  67.214  1.00  0.00    -0.146 OA 
BRANCH  10  11
HETATM   11  C   UNL     1      -9.880  12.044  67.801  1.00  0.00    -0.190 C  
HETATM   12  O   UNL     1     -10.425  11.800  68.873  1.00  0.00    -0.207 OA 
HETATM   13  C   UNL     1     -10.189  13.280  66.882  1.00  0.00    -0.250 C  
HETATM   14  C   UNL     1      -9.860  14.568  67.664  1.00  0.00    -0.223 A  
HETATM   15  C   UNL     1     -11.696  13.218  66.440  1.00  0.00    -0.418 C  
HETATM   16  O   UNL     1      -9.356  13.247  65.713  1.00  0.00    -0.469 OA 
HETATM   17  H   UNL     1      -9.543  13.994  65.157  1.00  0.00     0.000 HD 
HETATM   18  C   UNL     1      -8.922  15.502  67.185  1.00  0.00    -0.232 A  
HETATM   19  C   UNL     1     -12.158  14.401  65.558  1.00  0.00    -0.358 C  
HETATM   20  C   UNL     1      -8.600  16.650  67.916  1.00  0.00    -0.196 A  
HETATM   21  C   UNL     1     -11.710  14.317  64.099  1.00  0.00    -0.279 C  
HETATM   22  C   UNL     1     -12.079  12.987  63.453  1.00  0.00    -0.591 C  
HETATM   23  C   UNL     1      -9.208  16.891  69.143  1.00  0.00    -0.105 A  
HETATM   24  C   UNL     1     -10.147  15.989  69.636  1.00  0.00    -0.244 A  
HETATM   25  C   UNL     1     -11.656  11.783  64.285  1.00  0.00    -0.361 C  
HETATM   26  C   UNL     1     -12.104  11.899  65.740  1.00  0.00     0.183 C  
HETATM   27  C   UNL     1     -10.474  14.846  68.901  1.00  0.00    -0.242 A  
ENDBRANCH  10  11
ENDBRANCH   9  10
ENDBRANCH   8   9
ENDBRANCH   6   7
ENDBRANCH   3   6
ENDBRANCH   2   3
TORSDOF 7
ENDMDL
MODEL      177
REMARK 921   NORMALIZED FREE ENERGY PREDICTED BY IDOCK:   -3.52 KCAL/MOL
REMARK 922        TOTAL FREE ENERGY PREDICTED BY IDOCK:   -6.21 KCAL/MOL
REMARK 923 INTER-LIGAND FREE ENERGY PREDICTED BY IDOCK:   -5.35 KCAL/MOL
REMARK 924 INTRA-LIGAND FREE ENERGY PREDICTED BY IDOCK:   -0.86 KCAL/MOL
REMARK 927      BINDING AFFINITY PREDICTED BY RF-SCORE:    0.00 PKD
ROOT
HETATM    1  C   UNL     1      -9.450   3.201  68.370  1.00  0.00    -0.211 C  
HETATM    2  C   UNL     1      -9.754   4.150  69.527  1.00  0.00    -0.183 C  
ENDROOT
BRANCH   2   3
HETATM    3  N   UNL     1      -9.548   5.576  69.218  1.00  0.00    -0.128 NA 
BRANCH   3   4
HETATM    4  C   UNL     1      -8.347   5.845  68.410  1.00  0.00    -0.112 C  
HETATM    5  C   UNL     1      -7.201   6.569  69.108  1.00  0.00    -0.091 C  
ENDBRANCH   3   4
BRANCH   3   6
HETATM    6  C   UNL     1     -10.789   6.134  68.653  1.00  0.00    -0.332 C  
BRANCH   6   7
HETATM    7  C   UNL     1     -10.522   7.316  67.735  1.00  0.00    -0.292 C  
HETATM    8  C   UNL     1     -10.293   8.329  66.947  1.00  0.00    -0.391 C  
BRANCH   8   9
HETATM    9  C   UNL     1     -10.029   9.485  66.086  1.00  0.00    -0.272 C  
BRANCH   9  10
HETATM   10  O   UNL     1     -10.357  10.706  66.765  1.00  0.00    -0.227 OA 
BRANCH  10  11
HETATM   11  C   UNL     1      -9.716  11.818  66.287  1.00  0.00    -0.222 C  
HETATM   12  O   UNL     1      -9.709  12.162  65.109  1.00  0.00    -0.216 OA 
HETATM   13  C   UNL     1      -8.961  12.549  67.455  1.00  0.00    -0.188 C  
HETATM   14  C   UNL     1      -9.518  13.983  67.578  1.00  0.00    -0.221 A  
HETATM   15  C   UNL     1      -7.419  12.532  67.149  1.00  0.00    -0.077 C  
HETATM   16  O   UNL     1      -9.201  11.872  68.698  1.00  0.00    -0.328 OA 
HETATM   17  H   UNL     1      -8.744  12.314  69.404  1.00  0.00     0.000 HD 
HETATM   18  C   UNL     1     -10.094  14.449  68.775  1.00  0.00    -0.234 A  
HETATM   19  C   UNL     1      -6.546  13.256  68.201  1.00  0.00    -0.115 C  
HETATM   20  C   UNL     1     -10.630  15.736  68.871  1.00  0.00    -0.233 A  
HETATM   21  C   UNL     1      -6.317  12.466  69.488  1.00  0.00    -0.116 C  
HETATM   22  C   UNL     1      -5.786  11.062  69.223  1.00  0.00    -0.043 C  
HETATM   23  C   UNL     1     -10.605  16.588  67.771  1.00  0.00    -0.332 A  
HETATM   24  C   UNL     1     -10.033  16.156  66.577  1.00  0.00    -0.293 A  
HETATM   25  C   UNL     1      -6.603  10.303  68.185  1.00  0.00    -0.057 C  
HETATM   26  C   UNL     1      -6.828  11.120  66.915  1.00  0.00    -0.127 C  
HETATM   27  C   UNL     1      -9.489  14.871  66.486  1.00  0.00    -0.307 A  
ENDBRANCH  10  11
ENDBRANCH   9  10
ENDBRANCH   8   9
ENDBRANCH   6   7
ENDBRANCH   3   6
ENDBRANCH   2   3
TORSDOF 7
ENDMDL
MODEL      178
REMARK 921   NORMALIZED FREE ENERGY PREDICTED BY IDOCK:   -3.52 KCAL/MOL
REMARK 922        TOTAL FREE ENERGY PREDICTED BY IDOCK:   -6.20 KCAL/MOL
REMARK 923 INTER-LIGAND FREE ENERGY PREDICTED BY IDOCK:   -5.14 KCAL/MOL
REMARK 924 INTRA-LIGAND FREE ENERGY PREDICTED BY IDOCK:   -1.06 KCAL/MOL
REMARK 927      BINDING AFFINITY PREDICTED BY RF-SCORE:    0.00 PKD
ROOT
HETATM    1  C   UNL     1      -8.943   1.817  65.016  1.00  0.00    -0.124 C  
HETATM    2  C   UNL     1      -8.148   2.923  65.707  1.00  0.00    -0.087 C  
ENDROOT
BRANCH   2   3
HETATM    3  N   UNL     1      -8.099   2.816  67.176  1.00  0.00    -0.074 NA 
BRANCH   3   4
HETATM    4  C   UNL     1      -6.734   2.790  67.727  1.00  0.00    -0.040 C  
HETATM    5  C   UNL     1      -5.629   3.357  66.843  1.00  0.00    -0.022 C  
ENDBRANCH   3   4
BRANCH   3   6
HETATM    6  C   UNL     1      -8.965   3.850  67.768  1.00  0.00    -0.129 C  
BRANCH   6   7
HETATM    7  C   UNL     1      -8.867   5.175  67.030  1.00  0.00    -0.109 C  
HETATM    8  C   UNL     1      -8.782   6.311  66.397  1.00  0.00    -0.137 C  
BRANCH   8   9
HETATM    9  C   UNL     1      -8.660   7.580  65.675  1.00  0.00    -0.114 C  
BRANCH   9  10
HETATM   10  O   UNL     1      -9.566   8.556  66.210  1.00  0.00    -0.225 OA 
BRANCH  10  11
HETATM   11  C   UNL     1      -9.000   9.447  67.081  1.00  0.00    -0.130 C  
HETATM   12  O   UNL     1      -7.846   9.855  67.004  1.00  0.00    -0.101 OA 
HETATM   13  C   UNL     1     -10.028   9.826  68.208  1.00  0.00    -0.153 C  
HETATM   14  C   UNL     1     -10.271  11.349  68.158  1.00  0.00    -0.200 A  
HETATM   15  C   UNL     1      -9.454   9.358  69.595  1.00  0.00    -0.200 C  
HETATM   16  O   UNL     1     -11.283   9.170  67.974  1.00  0.00    -0.492 OA 
HETATM   17  H   UNL     1     -11.904   9.398  68.655  1.00  0.00     0.000 HD 
HETATM   18  C   UNL     1     -11.559  11.884  67.963  1.00  0.00    -0.401 A  
HETATM   19  C   UNL     1     -10.346   9.702  70.810  1.00  0.00    -0.356 C  
HETATM   20  C   UNL     1     -11.769  13.263  67.882  1.00  0.00    -0.395 A  
HETATM   21  C   UNL     1     -11.560   8.791  70.986  1.00  0.00    -0.337 C  
HETATM   22  C   UNL     1     -11.182   7.314  70.996  1.00  0.00    -0.291 C  
HETATM   23  C   UNL     1     -10.696  14.142  67.994  1.00  0.00    -0.248 A  
HETATM   24  C   UNL     1      -9.413  13.641  68.199  1.00  0.00    -0.217 A  
HETATM   25  C   UNL     1     -10.292   6.918  69.824  1.00  0.00    -0.224 C  
HETATM   26  C   UNL     1      -9.096   7.854  69.664  1.00  0.00    -0.153 C  
HETATM   27  C   UNL     1      -9.206  12.261  68.287  1.00  0.00    -0.189 A  
ENDBRANCH  10  11
ENDBRANCH   9  10
ENDBRANCH   8   9
ENDBRANCH   6   7
ENDBRANCH   3   6
ENDBRANCH   2   3
TORSDOF 7
ENDMDL
MODEL      179
REMARK 921   NORMALIZED FREE ENERGY PREDICTED BY IDOCK:   -3.52 KCAL/MOL
REMARK 922        TOTAL FREE ENERGY PREDICTED BY IDOCK:   -6.20 KCAL/MOL
REMARK 923 INTER-LIGAND FREE ENERGY PREDICTED BY IDOCK:   -5.68 KCAL/MOL
REMARK 924 INTRA-LIGAND FREE ENERGY PREDICTED BY IDOCK:   -0.52 KCAL/MOL
REMARK 927      BINDING AFFINITY PREDICTED BY RF-SCORE:    0.00 PKD
ROOT
HETATM    1  C   UNL     1      -9.520   2.954  71.337  1.00  0.00    -0.216 C  
HETATM    2  C   UNL     1      -9.907   4.319  71.902  1.00  0.00    -0.179 C  
ENDROOT
BRANCH   2   3
HETATM    3  N   UNL     1      -9.610   5.456  71.013  1.00  0.00    -0.166 NA 
BRANCH   3   4
HETATM    4  C   UNL     1      -8.427   5.254  70.160  1.00  0.00    -0.109 C  
HETATM    5  C   UNL     1      -7.088   5.711  70.729  1.00  0.00    -0.069 C  
ENDBRANCH   3   4
BRANCH   3   6
HETATM    6  C   UNL     1     -10.829   5.822  70.270  1.00  0.00    -0.303 C  
BRANCH   6   7
HETATM    7  C   UNL     1     -10.932   7.320  70.035  1.00  0.00    -0.273 C  
HETATM    8  C   UNL     1     -11.020   8.605  69.834  1.00  0.00    -0.169 C  
BRANCH   8   9
HETATM    9  C   UNL     1     -11.092  10.052  69.620  1.00  0.00    -0.259 C  
BRANCH   9  10
HETATM   10  O   UNL     1      -9.783  10.597  69.400  1.00  0.00    -0.198 OA 
BRANCH  10  11
HETATM   11  C   UNL     1      -9.490  10.877  68.092  1.00  0.00    -0.165 C  
HETATM   12  O   UNL     1      -9.213  10.033  67.247  1.00  0.00    -0.140 OA 
HETATM   13  C   UNL     1      -9.516  12.431  67.855  1.00  0.00    -0.198 C  
HETATM   14  C   UNL     1     -10.581  12.746  66.784  1.00  0.00    -0.266 A  
HETATM   15  C   UNL     1      -8.079  12.901  67.425  1.00  0.00    -0.181 C  
HETATM   16  O   UNL     1      -9.890  13.109  69.064  1.00  0.00    -0.410 OA 
HETATM   17  H   UNL     1      -9.906  14.047  68.921  1.00  0.00     0.000 HD 
HETATM   18  C   UNL     1     -11.662  13.609  67.050  1.00  0.00    -0.419 A  
HETATM   19  C   UNL     1      -7.962  14.412  67.117  1.00  0.00    -0.147 C  
HETATM   20  C   UNL     1     -12.643  13.862  66.088  1.00  0.00    -0.426 A  
HETATM   21  C   UNL     1      -7.904  15.310  68.353  1.00  0.00    -0.122 C  
HETATM   22  C   UNL     1      -6.825  14.875  69.338  1.00  0.00    -0.164 C  
HETATM   23  C   UNL     1     -12.570  13.258  64.837  1.00  0.00    -0.444 A  
HETATM   24  C   UNL     1     -11.506  12.409  64.543  1.00  0.00    -0.394 A  
HETATM   25  C   UNL     1      -6.886  13.390  69.671  1.00  0.00     0.132 C  
HETATM   26  C   UNL     1      -6.957  12.518  68.420  1.00  0.00    -0.096 C  
HETATM   27  C   UNL     1     -10.521  12.163  65.504  1.00  0.00    -0.300 A  
ENDBRANCH  10  11
ENDBRANCH   9  10
ENDBRANCH   8   9
ENDBRANCH   6   7
ENDBRANCH   3   6
ENDBRANCH   2   3
TORSDOF 7
ENDMDL
MODEL      180
REMARK 921   NORMALIZED FREE ENERGY PREDICTED BY IDOCK:   -3.52 KCAL/MOL
REMARK 922        TOTAL FREE ENERGY PREDICTED BY IDOCK:   -6.20 KCAL/MOL
REMARK 923 INTER-LIGAND FREE ENERGY PREDICTED BY IDOCK:   -5.48 KCAL/MOL
REMARK 924 INTRA-LIGAND FREE ENERGY PREDICTED BY IDOCK:   -0.72 KCAL/MOL
REMARK 927      BINDING AFFINITY PREDICTED BY RF-SCORE:    0.00 PKD
ROOT
HETATM    1  C   UNL     1      -9.115  12.365  68.068  1.00  0.00    -0.195 C  
HETATM    2  C   UNL     1      -8.440  11.089  68.567  1.00  0.00    -0.153 C  
ENDROOT
BRANCH   2   3
HETATM    3  N   UNL     1      -7.061  10.898  68.087  1.00  0.00    -0.076 NA 
BRANCH   3   4
HETATM    4  C   UNL     1      -6.740  11.662  66.871  1.00  0.00    -0.124 C  
HETATM    5  C   UNL     1      -5.600  11.131  66.010  1.00  0.00    -0.116 C  
ENDBRANCH   3   4
BRANCH   3   6
HETATM    6  C   UNL     1      -6.124  11.123  69.202  1.00  0.00    -0.047 C  
BRANCH   6   7
HETATM    7  C   UNL     1      -6.290  10.098  70.311  1.00  0.00    -0.117 C  
HETATM    8  C   UNL     1      -6.433   9.218  71.263  1.00  0.00    -0.066 C  
BRANCH   8   9
HETATM    9  C   UNL     1      -6.564   8.225  72.331  1.00  0.00    -0.085 C  
BRANCH   9  10
HETATM   10  O   UNL     1      -7.946   7.925  72.576  1.00  0.00    -0.101 OA 
BRANCH  10  11
HETATM   11  C   UNL     1      -8.496   7.012  71.718  1.00  0.00    -0.114 C  
HETATM   12  O   UNL     1      -7.895   6.482  70.790  1.00  0.00    -0.102 OA 
HETATM   13  C   UNL     1     -10.011   6.786  72.070  1.00  0.00    -0.171 C  
HETATM   14  C   UNL     1     -10.217   5.296  72.416  1.00  0.00    -0.243 A  
HETATM   15  C   UNL     1     -10.888   7.243  70.849  1.00  0.00    -0.262 C  
HETATM   16  O   UNL     1     -10.371   7.562  73.223  1.00  0.00    -0.305 OA 
HETATM   17  H   UNL     1     -11.287   7.426  73.436  1.00  0.00     0.000 HD 
HETATM   18  C   UNL     1     -10.729   4.893  73.664  1.00  0.00    -0.352 A  
HETATM   19  C   UNL     1     -12.410   7.041  71.037  1.00  0.00    -0.402 C  
HETATM   20  C   UNL     1     -10.880   3.541  73.985  1.00  0.00    -0.269 A  
HETATM   21  C   UNL     1     -13.083   8.081  71.931  1.00  0.00    -0.336 C  
HETATM   22  C   UNL     1     -12.780   9.509  71.492  1.00  0.00    -0.461 C  
HETATM   23  C   UNL     1     -10.522   2.560  73.067  1.00  0.00    -0.245 A  
HETATM   24  C   UNL     1     -10.023   2.931  71.821  1.00  0.00    -0.187 A  
HETATM   25  C   UNL     1     -11.293   9.765  71.281  1.00  0.00    -0.445 C  
HETATM   26  C   UNL     1     -10.644   8.703  70.396  1.00  0.00    -0.244 C  
HETATM   27  C   UNL     1      -9.881   4.283  71.497  1.00  0.00    -0.260 A  
ENDBRANCH  10  11
ENDBRANCH   9  10
ENDBRANCH   8   9
ENDBRANCH   6   7
ENDBRANCH   3   6
ENDBRANCH   2   3
TORSDOF 7
ENDMDL
MODEL      181
REMARK 921   NORMALIZED FREE ENERGY PREDICTED BY IDOCK:   -3.52 KCAL/MOL
REMARK 922        TOTAL FREE ENERGY PREDICTED BY IDOCK:   -6.20 KCAL/MOL
REMARK 923 INTER-LIGAND FREE ENERGY PREDICTED BY IDOCK:   -5.66 KCAL/MOL
REMARK 924 INTRA-LIGAND FREE ENERGY PREDICTED BY IDOCK:   -0.54 KCAL/MOL
REMARK 927      BINDING AFFINITY PREDICTED BY RF-SCORE:    0.00 PKD
ROOT
HETATM    1  C   UNL     1     -11.480  14.495  70.256  1.00  0.00    -0.281 C  
HETATM    2  C   UNL     1     -12.592  13.464  70.429  1.00  0.00    -0.167 C  
ENDROOT
BRANCH   2   3
HETATM    3  N   UNL     1     -12.850  13.071  71.825  1.00  0.00    -0.287 NA 
BRANCH   3   4
HETATM    4  C   UNL     1     -13.572  14.087  72.608  1.00  0.00    -0.517 C  
HETATM    5  C   UNL     1     -12.740  14.929  73.568  1.00  0.00    -0.629 C  
ENDBRANCH   3   4
BRANCH   3   6
HETATM    6  C   UNL     1     -13.480  11.738  71.846  1.00  0.00    -0.176 C  
BRANCH   6   7
HETATM    7  C   UNL     1     -12.551  10.655  71.324  1.00  0.00    -0.533 C  
HETATM    8  C   UNL     1     -11.754   9.725  70.876  1.00  0.00    -0.429 C  
BRANCH   8   9
HETATM    9  C   UNL     1     -10.852   8.698  70.349  1.00  0.00    -0.227 C  
BRANCH   9  10
HETATM   10  O   UNL     1      -9.910   9.274  69.433  1.00  0.00    -0.165 OA 
BRANCH  10  11
HETATM   11  C   UNL     1      -8.905   8.431  69.038  1.00  0.00    -0.146 C  
HETATM   12  O   UNL     1      -8.020   8.013  69.777  1.00  0.00    -0.110 OA 
HETATM   13  C   UNL     1      -9.032   8.125  67.502  1.00  0.00    -0.137 C  
HETATM   14  C   UNL     1      -9.208   6.603  67.318  1.00  0.00    -0.129 A  
HETATM   15  C   UNL     1      -7.752   8.671  66.770  1.00  0.00    -0.093 C  
HETATM   16  O   UNL     1     -10.194   8.774  66.963  1.00  0.00    -0.234 OA 
HETATM   17  H   UNL     1     -10.270   8.589  66.034  1.00  0.00     0.000 HD 
HETATM   18  C   UNL     1     -10.335   6.065  66.669  1.00  0.00    -0.264 A  
HETATM   19  C   UNL     1      -7.719   8.403  65.247  1.00  0.00    -0.098 C  
HETATM   20  C   UNL     1     -10.508   4.684  66.537  1.00  0.00    -0.171 A  
HETATM   21  C   UNL     1      -8.608   9.330  64.420  1.00  0.00    -0.216 C  
HETATM   22  C   UNL     1      -8.346  10.803  64.714  1.00  0.00     0.004 C  
HETATM   23  C   UNL     1      -9.559   3.808  67.052  1.00  0.00    -0.213 A  
HETATM   24  C   UNL     1      -8.429   4.313  67.690  1.00  0.00    -0.101 A  
HETATM   25  C   UNL     1      -8.357  11.125  66.203  1.00  0.00    -0.144 C  
HETATM   26  C   UNL     1      -7.472  10.175  67.006  1.00  0.00    -0.092 C  
HETATM   27  C   UNL     1      -8.253   5.695  67.814  1.00  0.00    -0.101 A  
ENDBRANCH  10  11
ENDBRANCH   9  10
ENDBRANCH   8   9
ENDBRANCH   6   7
ENDBRANCH   3   6
ENDBRANCH   2   3
TORSDOF 7
ENDMDL
MODEL      182
REMARK 921   NORMALIZED FREE ENERGY PREDICTED BY IDOCK:   -3.50 KCAL/MOL
REMARK 922        TOTAL FREE ENERGY PREDICTED BY IDOCK:   -6.18 KCAL/MOL
REMARK 923 INTER-LIGAND FREE ENERGY PREDICTED BY IDOCK:   -5.78 KCAL/MOL
REMARK 924 INTRA-LIGAND FREE ENERGY PREDICTED BY IDOCK:   -0.41 KCAL/MOL
REMARK 927      BINDING AFFINITY PREDICTED BY RF-SCORE:    0.00 PKD
ROOT
HETATM    1  C   UNL     1      -7.251  19.345  65.874  1.00  0.00    -0.310 C  
HETATM    2  C   UNL     1      -7.670  19.539  67.330  1.00  0.00    -0.255 C  
ENDROOT
BRANCH   2   3
HETATM    3  N   UNL     1      -7.655  18.308  68.140  1.00  0.00    -0.261 NA 
BRANCH   3   4
HETATM    4  C   UNL     1      -8.859  17.475  67.983  1.00  0.00    -0.258 C  
HETATM    5  C   UNL     1     -10.169  18.210  67.725  1.00  0.00    -0.395 C  
ENDBRANCH   3   4
BRANCH   3   6
HETATM    6  C   UNL     1      -6.391  17.587  67.903  1.00  0.00    -0.165 C  
BRANCH   6   7
HETATM    7  C   UNL     1      -6.600  16.087  67.773  1.00  0.00    -0.175 C  
HETATM    8  C   UNL     1      -6.780  14.801  67.661  1.00  0.00    -0.198 C  
BRANCH   8   9
HETATM    9  C   UNL     1      -7.006  13.358  67.551  1.00  0.00    -0.142 C  
BRANCH   9  10
HETATM   10  O   UNL     1      -7.945  12.917  68.543  1.00  0.00    -0.144 OA 
BRANCH  10  11
HETATM   11  C   UNL     1      -7.729  11.649  69.013  1.00  0.00    -0.002 C  
HETATM   12  O   UNL     1      -6.775  11.321  69.710  1.00  0.00    -0.133 OA 
HETATM   13  C   UNL     1      -8.852  10.682  68.491  1.00  0.00    -0.148 C  
HETATM   14  C   UNL     1      -9.586  10.079  69.707  1.00  0.00    -0.249 A  
HETATM   15  C   UNL     1      -8.190   9.579  67.587  1.00  0.00    -0.121 C  
HETATM   16  O   UNL     1      -9.811  11.413  67.713  1.00  0.00    -0.170 OA 
HETATM   17  H   UNL     1     -10.490  10.829  67.396  1.00  0.00     0.000 HD 
HETATM   18  C   UNL     1     -10.973  10.243  69.887  1.00  0.00    -0.358 A  
HETATM   19  C   UNL     1      -9.176   8.526  67.030  1.00  0.00    -0.187 C  
HETATM   20  C   UNL     1     -11.627   9.727  71.009  1.00  0.00    -0.455 A  
HETATM   21  C   UNL     1     -10.022   9.007  65.852  1.00  0.00    -0.169 C  
HETATM   22  C   UNL     1      -9.175   9.598  64.731  1.00  0.00    -0.298 C  
HETATM   23  C   UNL     1     -10.910   9.035  71.979  1.00  0.00    -0.342 A  
HETATM   24  C   UNL     1      -9.539   8.849  71.822  1.00  0.00    -0.353 A  
HETATM   25  C   UNL     1      -8.176  10.637  65.223  1.00  0.00    -0.105 C  
HETATM   26  C   UNL     1      -7.355  10.135  66.408  1.00  0.00    -0.108 C  
HETATM   27  C   UNL     1      -8.887   9.359  70.695  1.00  0.00    -0.275 A  
ENDBRANCH  10  11
ENDBRANCH   9  10
ENDBRANCH   8   9
ENDBRANCH   6   7
ENDBRANCH   3   6
ENDBRANCH   2   3
TORSDOF 7
ENDMDL
MODEL      183
REMARK 921   NORMALIZED FREE ENERGY PREDICTED BY IDOCK:   -3.50 KCAL/MOL
REMARK 922        TOTAL FREE ENERGY PREDICTED BY IDOCK:   -6.18 KCAL/MOL
REMARK 923 INTER-LIGAND FREE ENERGY PREDICTED BY IDOCK:   -5.60 KCAL/MOL
REMARK 924 INTRA-LIGAND FREE ENERGY PREDICTED BY IDOCK:   -0.58 KCAL/MOL
REMARK 927      BINDING AFFINITY PREDICTED BY RF-SCORE:    0.00 PKD
ROOT
HETATM    1  C   UNL     1      -7.747   8.474  73.522  1.00  0.00    -0.061 C  
HETATM    2  C   UNL     1      -9.027   7.971  72.857  1.00  0.00    -0.239 C  
ENDROOT
BRANCH   2   3
HETATM    3  N   UNL     1      -8.923   6.623  72.272  1.00  0.00    -0.134 NA 
BRANCH   3   4
HETATM    4  C   UNL     1     -10.218   6.038  71.887  1.00  0.00    -0.200 C  
HETATM    5  C   UNL     1     -11.038   5.398  73.002  1.00  0.00    -0.368 C  
ENDBRANCH   3   4
BRANCH   3   6
HETATM    6  C   UNL     1      -7.926   6.641  71.187  1.00  0.00    -0.107 C  
BRANCH   6   7
HETATM    7  C   UNL     1      -8.339   7.549  70.040  1.00  0.00    -0.136 C  
HETATM    8  C   UNL     1      -8.693   8.328  69.057  1.00  0.00    -0.143 C  
BRANCH   8   9
HETATM    9  C   UNL     1      -9.115   9.210  67.967  1.00  0.00    -0.131 C  
BRANCH   9  10
HETATM   10  O   UNL     1      -8.695  10.560  68.216  1.00  0.00    -0.126 OA 
BRANCH  10  11
HETATM   11  C   UNL     1      -8.609  11.349  67.101  1.00  0.00    -0.151 C  
HETATM   12  O   UNL     1      -8.179  10.973  66.016  1.00  0.00    -0.164 OA 
HETATM   13  C   UNL     1      -9.095  12.806  67.433  1.00  0.00    -0.192 C  
HETATM   14  C   UNL     1     -10.295  13.142  66.523  1.00  0.00    -0.284 A  
HETATM   15  C   UNL     1      -7.894  13.799  67.230  1.00  0.00    -0.115 C  
HETATM   16  O   UNL     1      -9.540  12.880  68.796  1.00  0.00    -0.402 OA 
HETATM   17  H   UNL     1      -9.833  13.760  68.997  1.00  0.00     0.000 HD 
HETATM   18  C   UNL     1     -11.548  13.498  67.056  1.00  0.00    -0.394 A  
HETATM   19  C   UNL     1      -8.238  15.285  67.484  1.00  0.00    -0.191 C  
HETATM   20  C   UNL     1     -12.642  13.767  66.228  1.00  0.00    -0.372 A  
HETATM   21  C   UNL     1      -8.330  15.673  68.959  1.00  0.00    -0.235 C  
HETATM   22  C   UNL     1      -7.090  15.265  69.746  1.00  0.00    -0.154 C  
HETATM   23  C   UNL     1     -12.509  13.685  64.846  1.00  0.00    -0.423 A  
HETATM   24  C   UNL     1     -11.278  13.345  64.291  1.00  0.00    -0.406 A  
HETATM   25  C   UNL     1      -6.698  13.810  69.527  1.00  0.00    -0.044 C  
HETATM   26  C   UNL     1      -6.627  13.447  68.045  1.00  0.00    -0.133 C  
HETATM   27  C   UNL     1     -10.183  13.085  65.120  1.00  0.00    -0.289 A  
ENDBRANCH  10  11
ENDBRANCH   9  10
ENDBRANCH   8   9
ENDBRANCH   6   7
ENDBRANCH   3   6
ENDBRANCH   2   3
TORSDOF 7
ENDMDL
MODEL      184
REMARK 921   NORMALIZED FREE ENERGY PREDICTED BY IDOCK:   -3.50 KCAL/MOL
REMARK 922        TOTAL FREE ENERGY PREDICTED BY IDOCK:   -6.17 KCAL/MOL
REMARK 923 INTER-LIGAND FREE ENERGY PREDICTED BY IDOCK:   -5.67 KCAL/MOL
REMARK 924 INTRA-LIGAND FREE ENERGY PREDICTED BY IDOCK:   -0.50 KCAL/MOL
REMARK 927      BINDING AFFINITY PREDICTED BY RF-SCORE:    0.00 PKD
ROOT
HETATM    1  C   UNL     1      -7.409  10.570  67.083  1.00  0.00    -0.093 C  
HETATM    2  C   UNL     1      -8.922  10.698  66.924  1.00  0.00    -0.137 C  
ENDROOT
BRANCH   2   3
HETATM    3  N   UNL     1      -9.473  10.021  65.737  1.00  0.00    -0.196 NA 
BRANCH   3   4
HETATM    4  C   UNL     1      -9.428  10.835  64.511  1.00  0.00    -0.252 C  
HETATM    5  C   UNL     1      -8.364  10.465  63.484  1.00  0.00    -0.154 C  
ENDBRANCH   3   4
BRANCH   3   6
HETATM    6  C   UNL     1      -8.845   8.695  65.600  1.00  0.00    -0.187 C  
BRANCH   6   7
HETATM    7  C   UNL     1      -9.389   7.694  66.606  1.00  0.00    -0.239 C  
HETATM    8  C   UNL     1      -9.856   6.836  67.469  1.00  0.00    -0.164 C  
BRANCH   8   9
HETATM    9  C   UNL     1     -10.379   5.892  68.460  1.00  0.00    -0.214 C  
BRANCH   9  10
HETATM   10  O   UNL     1      -9.524   5.842  69.611  1.00  0.00    -0.135 OA 
BRANCH  10  11
HETATM   11  C   UNL     1      -9.714   6.855  70.512  1.00  0.00    -0.172 C  
HETATM   12  O   UNL     1      -9.282   7.995  70.376  1.00  0.00    -0.153 OA 
HETATM   13  C   UNL     1     -10.519   6.328  71.755  1.00  0.00    -0.211 C  
HETATM   14  C   UNL     1     -11.826   7.140  71.873  1.00  0.00    -0.336 A  
HETATM   15  C   UNL     1      -9.617   6.459  73.035  1.00  0.00    -0.160 C  
HETATM   16  O   UNL     1     -10.871   4.948  71.567  1.00  0.00    -0.057 OA 
HETATM   17  H   UNL     1     -11.357   4.630  72.318  1.00  0.00     0.000 HD 
HETATM   18  C   UNL     1     -13.088   6.515  71.841  1.00  0.00    -0.012 A  
HETATM   19  C   UNL     1     -10.297   6.012  74.350  1.00  0.00    -0.267 C  
HETATM   20  C   UNL     1     -14.269   7.258  71.912  1.00  0.00    -0.462 A  
HETATM   21  C   UNL     1     -10.377   4.498  74.541  1.00  0.00    -0.304 C  
HETATM   22  C   UNL     1      -9.022   3.818  74.377  1.00  0.00    -0.098 C  
HETATM   23  C   UNL     1     -14.218   8.644  72.015  1.00  0.00    -0.524 A  
HETATM   24  C   UNL     1     -12.984   9.288  72.060  1.00  0.00    -0.504 A  
HETATM   25  C   UNL     1      -8.300   4.229  73.100  1.00  0.00    -0.091 C  
HETATM   26  C   UNL     1      -8.247   5.746  72.928  1.00  0.00    -0.119 C  
HETATM   27  C   UNL     1     -11.803   8.542  71.997  1.00  0.00    -0.429 A  
ENDBRANCH  10  11
ENDBRANCH   9  10
ENDBRANCH   8   9
ENDBRANCH   6   7
ENDBRANCH   3   6
ENDBRANCH   2   3
TORSDOF 7
ENDMDL
MODEL      185
REMARK 921   NORMALIZED FREE ENERGY PREDICTED BY IDOCK:   -3.49 KCAL/MOL
REMARK 922        TOTAL FREE ENERGY PREDICTED BY IDOCK:   -6.17 KCAL/MOL
REMARK 923 INTER-LIGAND FREE ENERGY PREDICTED BY IDOCK:   -5.00 KCAL/MOL
REMARK 924 INTRA-LIGAND FREE ENERGY PREDICTED BY IDOCK:   -1.17 KCAL/MOL
REMARK 927      BINDING AFFINITY PREDICTED BY RF-SCORE:    0.00 PKD
ROOT
HETATM    1  C   UNL     1     -10.383  18.355  65.982  1.00  0.00    -0.397 C  
HETATM    2  C   UNL     1     -10.602  17.559  67.267  1.00  0.00    -0.287 C  
ENDROOT
BRANCH   2   3
HETATM    3  N   UNL     1     -10.440  16.102  67.119  1.00  0.00    -0.303 NA 
BRANCH   3   4
HETATM    4  C   UNL     1      -9.093  15.693  66.687  1.00  0.00    -0.282 C  
HETATM    5  C   UNL     1      -7.958  15.920  67.679  1.00  0.00    -0.163 C  
ENDBRANCH   3   4
BRANCH   3   6
HETATM    6  C   UNL     1     -10.904  15.435  68.348  1.00  0.00    -0.268 C  
BRANCH   6   7
HETATM    7  C   UNL     1     -11.117  13.944  68.148  1.00  0.00    -0.278 C  
HETATM    8  C   UNL     1     -11.300  12.664  67.976  1.00  0.00    -0.337 C  
BRANCH   8   9
HETATM    9  C   UNL     1     -11.533  11.232  67.774  1.00  0.00    -0.275 C  
BRANCH   9  10
HETATM   10  O   UNL     1     -10.852  10.770  66.599  1.00  0.00    -0.237 OA 
BRANCH  10  11
HETATM   11  C   UNL     1     -10.092   9.646  66.780  1.00  0.00    -0.236 C  
HETATM   12  O   UNL     1     -10.472   8.640  67.371  1.00  0.00    -0.263 OA 
HETATM   13  C   UNL     1      -8.661   9.857  66.167  1.00  0.00    -0.136 C  
HETATM   14  C   UNL     1      -8.433   8.788  65.077  1.00  0.00    -0.193 A  
HETATM   15  C   UNL     1      -7.598   9.770  67.320  1.00  0.00    -0.088 C  
HETATM   16  O   UNL     1      -8.576  11.148  65.545  1.00  0.00    -0.310 OA 
HETATM   17  H   UNL     1      -7.711  11.275  65.174  1.00  0.00     0.000 HD 
HETATM   18  C   UNL     1      -8.144   9.143  63.745  1.00  0.00    -0.156 A  
HETATM   19  C   UNL     1      -6.131   9.920  66.856  1.00  0.00    -0.063 C  
HETATM   20  C   UNL     1      -7.974   8.172  62.755  1.00  0.00    -0.159 A  
HETATM   21  C   UNL     1      -5.705  11.356  66.549  1.00  0.00    -0.142 C  
HETATM   22  C   UNL     1      -6.007  12.310  67.699  1.00  0.00    -0.119 C  
HETATM   23  C   UNL     1      -8.089   6.822  63.071  1.00  0.00    -0.028 A  
HETATM   24  C   UNL     1      -8.363   6.442  64.382  1.00  0.00     0.050 A  
HETATM   25  C   UNL     1      -7.439  12.199  68.205  1.00  0.00    -0.107 C  
HETATM   26  C   UNL     1      -7.841  10.754  68.490  1.00  0.00    -0.122 C  
HETATM   27  C   UNL     1      -8.525   7.415  65.374  1.00  0.00    -0.101 A  
ENDBRANCH  10  11
ENDBRANCH   9  10
ENDBRANCH   8   9
ENDBRANCH   6   7
ENDBRANCH   3   6
ENDBRANCH   2   3
TORSDOF 7
ENDMDL
MODEL      186
REMARK 921   NORMALIZED FREE ENERGY PREDICTED BY IDOCK:   -3.48 KCAL/MOL
REMARK 922        TOTAL FREE ENERGY PREDICTED BY IDOCK:   -6.14 KCAL/MOL
REMARK 923 INTER-LIGAND FREE ENERGY PREDICTED BY IDOCK:   -5.43 KCAL/MOL
REMARK 924 INTRA-LIGAND FREE ENERGY PREDICTED BY IDOCK:   -0.71 KCAL/MOL
REMARK 927      BINDING AFFINITY PREDICTED BY RF-SCORE:    0.00 PKD
ROOT
HETATM    1  C   UNL     1      -9.595   9.149  70.680  1.00  0.00    -0.312 C  
HETATM    2  C   UNL     1      -8.310   8.832  69.919  1.00  0.00    -0.125 C  
ENDROOT
BRANCH   2   3
HETATM    3  N   UNL     1      -8.388   7.641  69.055  1.00  0.00    -0.127 NA 
BRANCH   3   4
HETATM    4  C   UNL     1      -9.701   7.452  68.416  1.00  0.00    -0.153 C  
HETATM    5  C   UNL     1      -9.694   6.991  66.963  1.00  0.00    -0.216 C  
ENDBRANCH   3   4
BRANCH   3   6
HETATM    6  C   UNL     1      -7.257   7.651  68.110  1.00  0.00    -0.093 C  
BRANCH   6   7
HETATM    7  C   UNL     1      -6.829   9.062  67.740  1.00  0.00    -0.070 C  
HETATM    8  C   UNL     1      -6.462  10.272  67.422  1.00  0.00    -0.067 C  
BRANCH   8   9
HETATM    9  C   UNL     1      -6.066  11.642  67.087  1.00  0.00    -0.130 C  
BRANCH   9  10
HETATM   10  O   UNL     1      -7.223  12.462  66.865  1.00  0.00    -0.058 OA 
BRANCH  10  11
HETATM   11  C   UNL     1      -7.480  13.372  67.855  1.00  0.00    -0.149 C  
HETATM   12  O   UNL     1      -6.925  13.382  68.949  1.00  0.00    -0.104 OA 
HETATM   13  C   UNL     1      -8.614  14.358  67.399  1.00  0.00    -0.202 C  
HETATM   14  C   UNL     1      -8.051  15.795  67.414  1.00  0.00    -0.193 A  
HETATM   15  C   UNL     1      -9.848  14.191  68.359  1.00  0.00    -0.231 C  
HETATM   16  O   UNL     1      -9.021  14.057  66.055  1.00  0.00    -0.464 OA 
HETATM   17  H   UNL     1      -9.707  14.653  65.780  1.00  0.00     0.000 HD 
HETATM   18  C   UNL     1      -8.039  16.595  66.256  1.00  0.00    -0.361 A  
HETATM   19  C   UNL     1     -11.034  15.134  68.053  1.00  0.00    -0.295 C  
HETATM   20  C   UNL     1      -7.495  17.882  66.266  1.00  0.00    -0.321 A  
HETATM   21  C   UNL     1     -11.888  14.714  66.857  1.00  0.00    -0.345 C  
HETATM   22  C   UNL     1     -12.360  13.268  66.958  1.00  0.00    -0.190 C  
HETATM   23  C   UNL     1      -6.947  18.400  67.435  1.00  0.00    -0.209 A  
HETATM   24  C   UNL     1      -6.954  17.635  68.598  1.00  0.00    -0.237 A  
HETATM   25  C   UNL     1     -11.233  12.293  67.268  1.00  0.00    -0.358 C  
HETATM   26  C   UNL     1     -10.389  12.744  68.458  1.00  0.00    -0.231 C  
HETATM   27  C   UNL     1      -7.507  16.351  68.588  1.00  0.00    -0.194 A  
ENDBRANCH  10  11
ENDBRANCH   9  10
ENDBRANCH   8   9
ENDBRANCH   6   7
ENDBRANCH   3   6
ENDBRANCH   2   3
TORSDOF 7
ENDMDL
MODEL      187
REMARK 921   NORMALIZED FREE ENERGY PREDICTED BY IDOCK:   -3.47 KCAL/MOL
REMARK 922        TOTAL FREE ENERGY PREDICTED BY IDOCK:   -6.14 KCAL/MOL
REMARK 923 INTER-LIGAND FREE ENERGY PREDICTED BY IDOCK:   -5.52 KCAL/MOL
REMARK 924 INTRA-LIGAND FREE ENERGY PREDICTED BY IDOCK:   -0.62 KCAL/MOL
REMARK 927      BINDING AFFINITY PREDICTED BY RF-SCORE:    0.00 PKD
ROOT
HETATM    1  C   UNL     1      -6.847   9.456  65.884  1.00  0.00    -0.089 C  
HETATM    2  C   UNL     1      -6.611   9.719  64.399  1.00  0.00    -0.118 C  
ENDROOT
BRANCH   2   3
HETATM    3  N   UNL     1      -7.814   9.601  63.557  1.00  0.00    -0.129 NA 
BRANCH   3   4
HETATM    4  C   UNL     1      -7.786   8.456  62.632  1.00  0.00    -0.127 C  
HETATM    5  C   UNL     1      -7.932   7.071  63.252  1.00  0.00    -0.064 C  
ENDBRANCH   3   4
BRANCH   3   6
HETATM    6  C   UNL     1      -9.012   9.649  64.415  1.00  0.00    -0.234 C  
BRANCH   6   7
HETATM    7  C   UNL     1      -9.755  10.970  64.292  1.00  0.00    -0.333 C  
HETATM    8  C   UNL     1     -10.391  12.102  64.186  1.00  0.00    -0.382 C  
BRANCH   8   9
HETATM    9  C   UNL     1     -11.081  13.390  64.070  1.00  0.00    -0.253 C  
BRANCH   9  10
HETATM   10  O   UNL     1     -10.542  14.337  65.003  1.00  0.00    -0.375 OA 
BRANCH  10  11
HETATM   11  C   UNL     1     -10.588  13.943  66.314  1.00  0.00    -0.289 C  
HETATM   12  O   UNL     1     -11.482  13.261  66.802  1.00  0.00    -0.320 OA 
HETATM   13  C   UNL     1      -9.359  14.531  67.097  1.00  0.00    -0.218 C  
HETATM   14  C   UNL     1      -8.536  13.358  67.671  1.00  0.00    -0.193 A  
HETATM   15  C   UNL     1      -9.888  15.495  68.220  1.00  0.00    -0.213 C  
HETATM   16  O   UNL     1      -8.512  15.270  66.204  1.00  0.00    -0.398 OA 
HETATM   17  H   UNL     1      -7.769  15.626  66.677  1.00  0.00     0.000 HD 
HETATM   18  C   UNL     1      -7.179  13.179  67.342  1.00  0.00    -0.119 A  
HETATM   19  C   UNL     1      -8.785  16.121  69.103  1.00  0.00    -0.235 C  
HETATM   20  C   UNL     1      -6.448  12.095  67.836  1.00  0.00    -0.078 A  
HETATM   21  C   UNL     1      -8.024  17.273  68.449  1.00  0.00    -0.253 C  
HETATM   22  C   UNL     1      -8.956  18.351  67.907  1.00  0.00    -0.296 C  
HETATM   23  C   UNL     1      -7.057  11.162  68.669  1.00  0.00    -0.090 A  
HETATM   24  C   UNL     1      -8.396  11.321  69.019  1.00  0.00    -0.014 A  
HETATM   25  C   UNL     1     -10.072  17.791  67.034  1.00  0.00    -0.337 C  
HETATM   26  C   UNL     1     -10.804  16.632  67.707  1.00  0.00    -0.292 C  
HETATM   27  C   UNL     1      -9.123  12.410  68.531  1.00  0.00    -0.068 A  
ENDBRANCH  10  11
ENDBRANCH   9  10
ENDBRANCH   8   9
ENDBRANCH   6   7
ENDBRANCH   3   6
ENDBRANCH   2   3
TORSDOF 7
ENDMDL
MODEL      188
REMARK 921   NORMALIZED FREE ENERGY PREDICTED BY IDOCK:   -3.46 KCAL/MOL
REMARK 922        TOTAL FREE ENERGY PREDICTED BY IDOCK:   -6.12 KCAL/MOL
REMARK 923 INTER-LIGAND FREE ENERGY PREDICTED BY IDOCK:   -5.54 KCAL/MOL
REMARK 924 INTRA-LIGAND FREE ENERGY PREDICTED BY IDOCK:   -0.58 KCAL/MOL
REMARK 927      BINDING AFFINITY PREDICTED BY RF-SCORE:    0.00 PKD
ROOT
HETATM    1  C   UNL     1     -11.723  14.396  67.489  1.00  0.00    -0.416 C  
HETATM    2  C   UNL     1     -10.682  14.782  68.537  1.00  0.00    -0.247 C  
ENDROOT
BRANCH   2   3
HETATM    3  N   UNL     1      -9.360  15.129  67.987  1.00  0.00    -0.185 NA 
BRANCH   3   4
HETATM    4  C   UNL     1      -8.381  15.546  69.004  1.00  0.00    -0.227 C  
HETATM    5  C   UNL     1      -7.903  16.992  68.941  1.00  0.00    -0.224 C  
ENDBRANCH   3   4
BRANCH   3   6
HETATM    6  C   UNL     1      -8.893  14.034  67.118  1.00  0.00    -0.228 C  
BRANCH   6   7
HETATM    7  C   UNL     1      -8.308  12.878  67.912  1.00  0.00    -0.170 C  
HETATM    8  C   UNL     1      -7.806  11.886  68.593  1.00  0.00    -0.104 C  
BRANCH   8   9
HETATM    9  C   UNL     1      -7.270  10.765  69.368  1.00  0.00    -0.132 C  
BRANCH   9  10
HETATM   10  O   UNL     1      -8.325   9.886  69.784  1.00  0.00    -0.157 OA 
BRANCH  10  11
HETATM   11  C   UNL     1      -9.504  10.044  69.105  1.00  0.00    -0.207 C  
HETATM   12  O   UNL     1     -10.382  10.841  69.416  1.00  0.00    -0.218 OA 
HETATM   13  C   UNL     1      -9.578   9.025  67.911  1.00  0.00    -0.147 C  
HETATM   14  C   UNL     1      -9.714   9.821  66.595  1.00  0.00    -0.257 A  
HETATM   15  C   UNL     1     -10.791   8.054  68.148  1.00  0.00     0.013 C  
HETATM   16  O   UNL     1      -8.368   8.257  67.840  1.00  0.00    -0.126 OA 
HETATM   17  H   UNL     1      -8.413   7.641  67.119  1.00  0.00     0.000 HD 
HETATM   18  C   UNL     1      -8.774   9.691  65.555  1.00  0.00    -0.176 A  
HETATM   19  C   UNL     1     -11.013   7.015  67.025  1.00  0.00    -0.357 C  
HETATM   20  C   UNL     1      -8.881  10.441  64.381  1.00  0.00    -0.223 A  
HETATM   21  C   UNL     1     -10.042   5.835  67.049  1.00  0.00    -0.224 C  
HETATM   22  C   UNL     1      -9.989   5.153  68.411  1.00  0.00    -0.214 C  
HETATM   23  C   UNL     1      -9.930  11.340  64.218  1.00  0.00    -0.347 A  
HETATM   24  C   UNL     1     -10.880  11.481  65.227  1.00  0.00    -0.319 A  
HETATM   25  C   UNL     1      -9.782   6.131  69.560  1.00  0.00    -0.175 C  
HETATM   26  C   UNL     1     -10.755   7.306  69.503  1.00  0.00    -0.244 C  
HETATM   27  C   UNL     1     -10.776  10.724  66.397  1.00  0.00    -0.228 A  
ENDBRANCH  10  11
ENDBRANCH   9  10
ENDBRANCH   8   9
ENDBRANCH   6   7
ENDBRANCH   3   6
ENDBRANCH   2   3
TORSDOF 7
ENDMDL
MODEL      189
REMARK 921   NORMALIZED FREE ENERGY PREDICTED BY IDOCK:   -3.45 KCAL/MOL
REMARK 922        TOTAL FREE ENERGY PREDICTED BY IDOCK:   -6.11 KCAL/MOL
REMARK 923 INTER-LIGAND FREE ENERGY PREDICTED BY IDOCK:   -4.71 KCAL/MOL
REMARK 924 INTRA-LIGAND FREE ENERGY PREDICTED BY IDOCK:   -1.39 KCAL/MOL
REMARK 927      BINDING AFFINITY PREDICTED BY RF-SCORE:    0.00 PKD
ROOT
HETATM    1  C   UNL     1      -5.614  10.509  63.141  1.00  0.00    -0.156 C  
HETATM    2  C   UNL     1      -7.098  10.487  62.783  1.00  0.00    -0.071 C  
ENDROOT
BRANCH   2   3
HETATM    3  N   UNL     1      -7.811   9.267  63.201  1.00  0.00    -0.129 NA 
BRANCH   3   4
HETATM    4  C   UNL     1      -6.944   8.085  63.332  1.00  0.00    -0.084 C  
HETATM    5  C   UNL     1      -7.366   6.839  62.562  1.00  0.00    -0.065 C  
ENDBRANCH   3   4
BRANCH   3   6
HETATM    6  C   UNL     1      -8.611   9.560  64.403  1.00  0.00    -0.195 C  
BRANCH   6   7
HETATM    7  C   UNL     1      -7.948   9.057  65.674  1.00  0.00    -0.104 C  
HETATM    8  C   UNL     1      -7.378   8.625  66.764  1.00  0.00    -0.079 C  
BRANCH   8   9
HETATM    9  C   UNL     1      -6.717   8.125  67.972  1.00  0.00    -0.065 C  
BRANCH   9  10
HETATM   10  O   UNL     1      -7.618   8.154  69.089  1.00  0.00    -0.092 OA 
BRANCH  10  11
HETATM   11  C   UNL     1      -8.004   9.407  69.483  1.00  0.00    -0.098 C  
HETATM   12  O   UNL     1      -7.230  10.303  69.803  1.00  0.00    -0.114 OA 
HETATM   13  C   UNL     1      -9.572   9.504  69.508  1.00  0.00    -0.188 C  
HETATM   14  C   UNL     1     -10.011  10.616  68.532  1.00  0.00    -0.176 A  
HETATM   15  C   UNL     1     -10.039   9.787  70.982  1.00  0.00    -0.048 C  
HETATM   16  O   UNL     1     -10.152   8.269  69.061  1.00  0.00    -0.191 OA 
HETATM   17  H   UNL     1     -11.099   8.328  69.076  1.00  0.00     0.000 HD 
HETATM   18  C   UNL     1     -10.876  10.351  67.454  1.00  0.00    -0.344 A  
HETATM   19  C   UNL     1     -11.567   9.948  71.154  1.00  0.00    -0.468 C  
HETATM   20  C   UNL     1     -11.241  11.354  66.551  1.00  0.00    -0.276 A  
HETATM   21  C   UNL     1     -12.350   8.636  71.141  1.00  0.00    -0.243 C  
HETATM   22  C   UNL     1     -11.801   7.620  72.135  1.00  0.00    -0.352 C  
HETATM   23  C   UNL     1     -10.748  12.645  66.703  1.00  0.00    -0.275 A  
HETATM   24  C   UNL     1      -9.898  12.938  67.767  1.00  0.00    -0.221 A  
HETATM   25  C   UNL     1     -10.294   7.426  72.018  1.00  0.00    -0.223 C  
HETATM   26  C   UNL     1      -9.539   8.753  72.021  1.00  0.00    -0.356 C  
HETATM   27  C   UNL     1      -9.541  11.936  68.674  1.00  0.00    -0.101 A  
ENDBRANCH  10  11
ENDBRANCH   9  10
ENDBRANCH   8   9
ENDBRANCH   6   7
ENDBRANCH   3   6
ENDBRANCH   2   3
TORSDOF 7
ENDMDL
MODEL      190
REMARK 921   NORMALIZED FREE ENERGY PREDICTED BY IDOCK:   -3.44 KCAL/MOL
REMARK 922        TOTAL FREE ENERGY PREDICTED BY IDOCK:   -6.08 KCAL/MOL
REMARK 923 INTER-LIGAND FREE ENERGY PREDICTED BY IDOCK:   -5.07 KCAL/MOL
REMARK 924 INTRA-LIGAND FREE ENERGY PREDICTED BY IDOCK:   -1.01 KCAL/MOL
REMARK 927      BINDING AFFINITY PREDICTED BY RF-SCORE:    0.00 PKD
ROOT
HETATM    1  C   UNL     1     -12.690   9.231  72.070  1.00  0.00    -0.479 C  
HETATM    2  C   UNL     1     -11.866   9.781  70.908  1.00  0.00    -0.336 C  
ENDROOT
BRANCH   2   3
HETATM    3  N   UNL     1     -12.471  10.935  70.220  1.00  0.00    -0.314 NA 
BRANCH   3   4
HETATM    4  C   UNL     1     -12.445  12.179  71.006  1.00  0.00    -0.269 C  
HETATM    5  C   UNL     1     -12.324  13.481  70.222  1.00  0.00    -0.370 C  
ENDBRANCH   3   4
BRANCH   3   6
HETATM    6  C   UNL     1     -11.882  11.062  68.876  1.00  0.00    -0.308 C  
BRANCH   6   7
HETATM    7  C   UNL     1     -10.366  10.953  68.899  1.00  0.00    -0.222 C  
HETATM    8  C   UNL     1      -9.066  10.859  68.919  1.00  0.00    -0.151 C  
BRANCH   8   9
HETATM    9  C   UNL     1      -7.604  10.774  68.964  1.00  0.00    -0.126 C  
BRANCH   9  10
HETATM   10  O   UNL     1      -7.078  10.430  67.674  1.00  0.00    -0.083 OA 
BRANCH  10  11
HETATM   11  C   UNL     1      -6.922   9.088  67.456  1.00  0.00    -0.078 C  
HETATM   12  O   UNL     1      -6.147   8.370  68.079  1.00  0.00    -0.048 OA 
HETATM   13  C   UNL     1      -7.841   8.623  66.269  1.00  0.00    -0.102 C  
HETATM   14  C   UNL     1      -8.815   7.548  66.794  1.00  0.00    -0.153 A  
HETATM   15  C   UNL     1      -6.931   8.087  65.105  1.00  0.00    -0.062 C  
HETATM   16  O   UNL     1      -8.620   9.728  65.786  1.00  0.00    -0.129 OA 
HETATM   17  H   UNL     1      -9.175   9.448  65.068  1.00  0.00     0.000 HD 
HETATM   18  C   UNL     1     -10.211   7.713  66.710  1.00  0.00    -0.333 A  
HETATM   19  C   UNL     1      -7.705   7.555  63.876  1.00  0.00    -0.125 C  
HETATM   20  C   UNL     1     -11.089   6.753  67.220  1.00  0.00    -0.394 A  
HETATM   21  C   UNL     1      -8.267   8.641  62.960  1.00  0.00    -0.179 C  
HETATM   22  C   UNL     1      -7.205   9.649  62.533  1.00  0.00    -0.107 C  
HETATM   23  C   UNL     1     -10.593   5.604  67.828  1.00  0.00    -0.274 A  
HETATM   24  C   UNL     1      -9.217   5.410  67.915  1.00  0.00    -0.117 A  
HETATM   25  C   UNL     1      -6.402  10.201  63.704  1.00  0.00    -0.133 C  
HETATM   26  C   UNL     1      -5.866   9.095  64.609  1.00  0.00    -0.064 C  
HETATM   27  C   UNL     1      -8.340   6.367  67.397  1.00  0.00    -0.112 A  
ENDBRANCH  10  11
ENDBRANCH   9  10
ENDBRANCH   8   9
ENDBRANCH   6   7
ENDBRANCH   3   6
ENDBRANCH   2   3
TORSDOF 7
ENDMDL
MODEL      191
REMARK 921   NORMALIZED FREE ENERGY PREDICTED BY IDOCK:   -3.42 KCAL/MOL
REMARK 922        TOTAL FREE ENERGY PREDICTED BY IDOCK:   -6.06 KCAL/MOL
REMARK 923 INTER-LIGAND FREE ENERGY PREDICTED BY IDOCK:   -5.97 KCAL/MOL
REMARK 924 INTRA-LIGAND FREE ENERGY PREDICTED BY IDOCK:   -0.09 KCAL/MOL
REMARK 927      BINDING AFFINITY PREDICTED BY RF-SCORE:    0.00 PKD
ROOT
HETATM    1  C   UNL     1     -13.205  10.407  72.334  1.00  0.00    -0.093 C  
HETATM    2  C   UNL     1     -13.092  10.710  70.841  1.00  0.00    -0.256 C  
ENDROOT
BRANCH   2   3
HETATM    3  N   UNL     1     -12.172  11.812  70.508  1.00  0.00    -0.365 NA 
BRANCH   3   4
HETATM    4  C   UNL     1     -12.038  12.062  69.064  1.00  0.00    -0.166 C  
HETATM    5  C   UNL     1     -11.215  11.055  68.269  1.00  0.00    -0.340 C  
ENDBRANCH   3   4
BRANCH   3   6
HETATM    6  C   UNL     1     -12.540  13.004  71.292  1.00  0.00    -0.279 C  
BRANCH   6   7
HETATM    7  C   UNL     1     -12.044  14.290  70.652  1.00  0.00    -0.417 C  
HETATM    8  C   UNL     1     -11.619  15.393  70.103  1.00  0.00    -0.351 C  
BRANCH   8   9
HETATM    9  C   UNL     1     -11.159  16.628  69.463  1.00  0.00    -0.158 C  
BRANCH   9  10
HETATM   10  O   UNL     1     -11.680  16.730  68.129  1.00  0.00     0.096 OA 
BRANCH  10  11
HETATM   11  C   UNL     1     -10.733  16.890  67.154  1.00  0.00    -0.180 C  
HETATM   12  O   UNL     1     -10.415  17.970  66.666  1.00  0.00    -0.357 OA 
HETATM   13  C   UNL     1     -10.157  15.492  66.727  1.00  0.00    -0.264 C  
HETATM   14  C   UNL     1      -8.637  15.485  66.995  1.00  0.00    -0.262 A  
HETATM   15  C   UNL     1     -10.497  15.245  65.213  1.00  0.00    -0.436 C  
HETATM   16  O   UNL     1     -10.750  14.451  67.518  1.00  0.00    -0.266 OA 
HETATM   17  H   UNL     1     -10.402  13.606  67.260  1.00  0.00     0.000 HD 
HETATM   18  C   UNL     1      -8.043  14.536  67.848  1.00  0.00    -0.151 A  
HETATM   19  C   UNL     1      -9.955  13.916  64.639  1.00  0.00     0.025 C  
HETATM   20  C   UNL     1      -6.671  14.556  68.116  1.00  0.00    -0.129 A  
HETATM   21  C   UNL     1     -10.756  12.677  65.038  1.00  0.00    -0.321 C  
HETATM   22  C   UNL     1     -12.243  12.825  64.740  1.00  0.00    -0.517 C  
HETATM   23  C   UNL     1      -5.860  15.527  67.537  1.00  0.00    -0.077 A  
HETATM   24  C   UNL     1      -6.420  16.472  66.681  1.00  0.00    -0.021 A  
HETATM   25  C   UNL     1     -12.832  14.124  65.274  1.00  0.00    -0.370 C  
HETATM   26  C   UNL     1     -12.004  15.343  64.872  1.00  0.00    -0.017 C  
HETATM   27  C   UNL     1      -7.790  16.445  66.408  1.00  0.00    -0.297 A  
ENDBRANCH  10  11
ENDBRANCH   9  10
ENDBRANCH   8   9
ENDBRANCH   6   7
ENDBRANCH   3   6
ENDBRANCH   2   3
TORSDOF 7
ENDMDL
MODEL      192
REMARK 921   NORMALIZED FREE ENERGY PREDICTED BY IDOCK:   -3.42 KCAL/MOL
REMARK 922        TOTAL FREE ENERGY PREDICTED BY IDOCK:   -6.06 KCAL/MOL
REMARK 923 INTER-LIGAND FREE ENERGY PREDICTED BY IDOCK:   -5.65 KCAL/MOL
REMARK 924 INTRA-LIGAND FREE ENERGY PREDICTED BY IDOCK:   -0.41 KCAL/MOL
REMARK 927      BINDING AFFINITY PREDICTED BY RF-SCORE:    0.00 PKD
ROOT
HETATM    1  C   UNL     1     -11.144  16.500  64.690  1.00  0.00    -0.135 C  
HETATM    2  C   UNL     1     -10.918  15.020  64.990  1.00  0.00    -0.423 C  
ENDROOT
BRANCH   2   3
HETATM    3  N   UNL     1     -10.584  14.724  66.394  1.00  0.00    -0.293 NA 
BRANCH   3   4
HETATM    4  C   UNL     1     -11.735  14.287  67.201  1.00  0.00    -0.404 C  
HETATM    5  C   UNL     1     -11.675  14.584  68.695  1.00  0.00    -0.364 C  
ENDBRANCH   3   4
BRANCH   3   6
HETATM    6  C   UNL     1      -9.436  13.801  66.436  1.00  0.00    -0.243 C  
BRANCH   6   7
HETATM    7  C   UNL     1      -9.867  12.344  66.389  1.00  0.00    -0.249 C  
HETATM    8  C   UNL     1     -10.236  11.095  66.350  1.00  0.00    -0.279 C  
BRANCH   8   9
HETATM    9  C   UNL     1     -10.639   9.687  66.331  1.00  0.00    -0.027 C  
BRANCH   9  10
HETATM   10  O   UNL     1      -9.522   8.845  66.009  1.00  0.00    -0.228 OA 
BRANCH  10  11
HETATM   11  C   UNL     1      -8.838   8.359  67.091  1.00  0.00    -0.130 C  
HETATM   12  O   UNL     1      -7.883   8.921  67.617  1.00  0.00    -0.100 OA 
HETATM   13  C   UNL     1      -9.426   6.966  67.519  1.00  0.00    -0.128 C  
HETATM   14  C   UNL     1      -9.930   7.073  68.974  1.00  0.00    -0.164 A  
HETATM   15  C   UNL     1      -8.310   5.872  67.353  1.00  0.00    -0.105 C  
HETATM   16  O   UNL     1     -10.546   6.626  66.687  1.00  0.00    -0.438 OA 
HETATM   17  H   UNL     1     -10.901   5.784  66.946  1.00  0.00     0.000 HD 
HETATM   18  C   UNL     1     -11.271   6.806  69.312  1.00  0.00    -0.261 A  
HETATM   19  C   UNL     1      -8.736   4.448  67.778  1.00  0.00    -0.115 C  
HETATM   20  C   UNL     1     -11.731   6.939  70.624  1.00  0.00    -0.417 A  
HETATM   21  C   UNL     1      -9.622   3.721  66.767  1.00  0.00    -0.205 C  
HETATM   22  C   UNL     1      -9.018   3.708  65.367  1.00  0.00    -0.136 C  
HETATM   23  C   UNL     1     -10.861   7.344  71.632  1.00  0.00    -0.246 A  
HETATM   24  C   UNL     1      -9.528   7.605  71.329  1.00  0.00    -0.166 A  
HETATM   25  C   UNL     1      -8.569   5.086  64.898  1.00  0.00    -0.150 C  
HETATM   26  C   UNL     1      -7.698   5.794  65.933  1.00  0.00    -0.092 C  
HETATM   27  C   UNL     1      -9.067   7.463  70.016  1.00  0.00    -0.148 A  
ENDBRANCH  10  11
ENDBRANCH   9  10
ENDBRANCH   8   9
ENDBRANCH   6   7
ENDBRANCH   3   6
ENDBRANCH   2   3
TORSDOF 7
ENDMDL
MODEL      193
REMARK 921   NORMALIZED FREE ENERGY PREDICTED BY IDOCK:   -3.39 KCAL/MOL
REMARK 922        TOTAL FREE ENERGY PREDICTED BY IDOCK:   -6.02 KCAL/MOL
REMARK 923 INTER-LIGAND FREE ENERGY PREDICTED BY IDOCK:   -5.38 KCAL/MOL
REMARK 924 INTRA-LIGAND FREE ENERGY PREDICTED BY IDOCK:   -0.64 KCAL/MOL
REMARK 927      BINDING AFFINITY PREDICTED BY RF-SCORE:    0.00 PKD
ROOT
HETATM    1  C   UNL     1      -8.569   1.588  64.180  1.00  0.00    -0.082 C  
HETATM    2  C   UNL     1      -8.175   2.871  64.907  1.00  0.00    -0.087 C  
ENDROOT
BRANCH   2   3
HETATM    3  N   UNL     1      -7.468   2.660  66.182  1.00  0.00    -0.067 NA 
BRANCH   3   4
HETATM    4  C   UNL     1      -6.327   3.566  66.389  1.00  0.00    -0.032 C  
HETATM    5  C   UNL     1      -5.874   4.382  65.184  1.00  0.00    -0.022 C  
ENDBRANCH   3   4
BRANCH   3   6
HETATM    6  C   UNL     1      -8.446   2.664  67.285  1.00  0.00    -0.097 C  
BRANCH   6   7
HETATM    7  C   UNL     1      -9.310   3.914  67.284  1.00  0.00    -0.220 C  
HETATM    8  C   UNL     1     -10.051   4.987  67.282  1.00  0.00    -0.226 C  
BRANCH   8   9
HETATM    9  C   UNL     1     -10.873   6.199  67.254  1.00  0.00    -0.352 C  
BRANCH   9  10
HETATM   10  O   UNL     1     -10.634   6.999  68.421  1.00  0.00    -0.200 OA 
BRANCH  10  11
HETATM   11  C   UNL     1      -9.547   7.827  68.337  1.00  0.00    -0.152 C  
HETATM   12  O   UNL     1      -8.399   7.496  68.618  1.00  0.00    -0.127 OA 
HETATM   13  C   UNL     1      -9.995   9.261  67.878  1.00  0.00    -0.187 C  
HETATM   14  C   UNL     1      -9.274   9.601  66.557  1.00  0.00    -0.197 A  
HETATM   15  C   UNL     1      -9.662  10.286  69.022  1.00  0.00    -0.213 C  
HETATM   16  O   UNL     1     -11.409   9.280  67.628  1.00  0.00    -0.372 OA 
HETATM   17  H   UNL     1     -11.680  10.147  67.350  1.00  0.00     0.000 HD 
HETATM   18  C   UNL     1      -9.989   9.912  65.385  1.00  0.00    -0.349 A  
HETATM   19  C   UNL     1     -10.014  11.755  68.692  1.00  0.00    -0.181 C  
HETATM   20  C   UNL     1      -9.332  10.184  64.182  1.00  0.00    -0.340 A  
HETATM   21  C   UNL     1     -11.501  12.092  68.801  1.00  0.00    -0.355 C  
HETATM   22  C   UNL     1     -12.093  11.684  70.145  1.00  0.00    -0.414 C  
HETATM   23  C   UNL     1      -7.942  10.150  64.122  1.00  0.00    -0.154 A  
HETATM   24  C   UNL     1      -7.209   9.856  65.268  1.00  0.00    -0.131 A  
HETATM   25  C   UNL     1     -11.769  10.246  70.528  1.00  0.00    -0.418 C  
HETATM   26  C   UNL     1     -10.280   9.934  70.397  1.00  0.00    -0.299 C  
HETATM   27  C   UNL     1      -7.868   9.593  66.473  1.00  0.00    -0.108 A  
ENDBRANCH  10  11
ENDBRANCH   9  10
ENDBRANCH   8   9
ENDBRANCH   6   7
ENDBRANCH   3   6
ENDBRANCH   2   3
TORSDOF 7
ENDMDL
MODEL      194
REMARK 921   NORMALIZED FREE ENERGY PREDICTED BY IDOCK:   -3.38 KCAL/MOL
REMARK 922        TOTAL FREE ENERGY PREDICTED BY IDOCK:   -6.01 KCAL/MOL
REMARK 923 INTER-LIGAND FREE ENERGY PREDICTED BY IDOCK:   -5.32 KCAL/MOL
REMARK 924 INTRA-LIGAND FREE ENERGY PREDICTED BY IDOCK:   -0.69 KCAL/MOL
REMARK 927      BINDING AFFINITY PREDICTED BY RF-SCORE:    0.00 PKD
ROOT
HETATM    1  C   UNL     1     -10.585  15.265  65.051  1.00  0.00    -0.444 C  
HETATM    2  C   UNL     1     -10.431  16.616  65.745  1.00  0.00    -0.311 C  
ENDROOT
BRANCH   2   3
HETATM    3  N   UNL     1      -9.976  16.537  67.144  1.00  0.00    -0.259 NA 
BRANCH   3   4
HETATM    4  C   UNL     1     -10.560  15.417  67.900  1.00  0.00    -0.267 C  
HETATM    5  C   UNL     1     -11.489  15.781  69.052  1.00  0.00    -0.394 C  
ENDBRANCH   3   4
BRANCH   3   6
HETATM    6  C   UNL     1      -8.503  16.581  67.179  1.00  0.00    -0.181 C  
BRANCH   6   7
HETATM    7  C   UNL     1      -7.895  15.236  67.538  1.00  0.00    -0.198 C  
HETATM    8  C   UNL     1      -7.375  14.081  67.846  1.00  0.00    -0.162 C  
BRANCH   8   9
HETATM    9  C   UNL     1      -6.811  12.780  68.212  1.00  0.00    -0.090 C  
BRANCH   9  10
HETATM   10  O   UNL     1      -7.641  12.123  69.181  1.00  0.00     0.014 OA 
BRANCH  10  11
HETATM   11  C   UNL     1      -7.157  10.925  69.634  1.00  0.00    -0.116 C  
HETATM   12  O   UNL     1      -6.074  10.780  70.191  1.00  0.00    -0.087 OA 
HETATM   13  C   UNL     1      -8.168   9.772  69.291  1.00  0.00    -0.132 C  
HETATM   14  C   UNL     1      -8.617   9.106  70.609  1.00  0.00    -0.266 A  
HETATM   15  C   UNL     1      -7.467   8.757  68.317  1.00  0.00    -0.092 C  
HETATM   16  O   UNL     1      -9.333  10.311  68.648  1.00  0.00    -0.148 OA 
HETATM   17  H   UNL     1      -9.944   9.614  68.441  1.00  0.00     0.000 HD 
HETATM   18  C   UNL     1      -9.973   9.052  70.983  1.00  0.00    -0.349 A  
HETATM   19  C   UNL     1      -8.335   7.539  67.923  1.00  0.00    -0.123 C  
HETATM   20  C   UNL     1     -10.372   8.479  72.194  1.00  0.00    -0.409 A  
HETATM   21  C   UNL     1      -9.403   7.835  66.871  1.00  0.00    -0.212 C  
HETATM   22  C   UNL     1      -8.829   8.512  65.632  1.00  0.00    -0.214 C  
HETATM   23  C   UNL     1      -9.423   7.948  73.061  1.00  0.00    -0.336 A  
HETATM   24  C   UNL     1      -8.076   7.978  72.712  1.00  0.00    -0.205 A  
HETATM   25  C   UNL     1      -7.955   9.715  65.961  1.00  0.00    -0.108 C  
HETATM   26  C   UNL     1      -6.906   9.395  67.023  1.00  0.00    -0.084 C  
HETATM   27  C   UNL     1      -7.680   8.544  71.496  1.00  0.00    -0.146 A  
ENDBRANCH  10  11
ENDBRANCH   9  10
ENDBRANCH   8   9
ENDBRANCH   6   7
ENDBRANCH   3   6
ENDBRANCH   2   3
TORSDOF 7
ENDMDL
MODEL      195
REMARK 921   NORMALIZED FREE ENERGY PREDICTED BY IDOCK:   -3.37 KCAL/MOL
REMARK 922        TOTAL FREE ENERGY PREDICTED BY IDOCK:   -5.99 KCAL/MOL
REMARK 923 INTER-LIGAND FREE ENERGY PREDICTED BY IDOCK:   -5.49 KCAL/MOL
REMARK 924 INTRA-LIGAND FREE ENERGY PREDICTED BY IDOCK:   -0.50 KCAL/MOL
REMARK 927      BINDING AFFINITY PREDICTED BY RF-SCORE:    0.00 PKD
ROOT
HETATM    1  C   UNL     1     -11.590  15.225  69.818  1.00  0.00    -0.335 C  
HETATM    2  C   UNL     1     -10.434  15.218  68.819  1.00  0.00    -0.237 C  
ENDROOT
BRANCH   2   3
HETATM    3  N   UNL     1     -10.705  14.477  67.575  1.00  0.00    -0.272 NA 
BRANCH   3   4
HETATM    4  C   UNL     1     -10.599  15.297  66.357  1.00  0.00    -0.308 C  
HETATM    5  C   UNL     1     -10.782  14.573  65.028  1.00  0.00    -0.444 C  
ENDBRANCH   3   4
BRANCH   3   6
HETATM    6  C   UNL     1      -9.883  13.254  67.549  1.00  0.00    -0.220 C  
BRANCH   6   7
HETATM    7  C   UNL     1     -10.428  12.175  68.469  1.00  0.00    -0.248 C  
HETATM    8  C   UNL     1     -10.897  11.249  69.259  1.00  0.00    -0.259 C  
BRANCH   8   9
HETATM    9  C   UNL     1     -11.416  10.225  70.169  1.00  0.00    -0.309 C  
BRANCH   9  10
HETATM   10  O   UNL     1     -10.339   9.497  70.778  1.00  0.00    -0.277 OA 
BRANCH  10  11
HETATM   11  C   UNL     1     -10.531   8.144  70.852  1.00  0.00    -0.202 C  
HETATM   12  O   UNL     1     -11.629   7.598  70.851  1.00  0.00    -0.281 OA 
HETATM   13  C   UNL     1      -9.148   7.410  70.985  1.00  0.00    -0.152 C  
HETATM   14  C   UNL     1      -8.984   6.451  69.787  1.00  0.00    -0.141 A  
HETATM   15  C   UNL     1      -9.106   6.655  72.363  1.00  0.00    -0.139 C  
HETATM   16  O   UNL     1      -8.076   8.364  70.939  1.00  0.00    -0.092 OA 
HETATM   17  H   UNL     1      -7.240   7.920  71.019  1.00  0.00     0.000 HD 
HETATM   18  C   UNL     1      -7.897   6.561  68.899  1.00  0.00    -0.110 A  
HETATM   19  C   UNL     1      -7.810   5.850  72.617  1.00  0.00    -0.101 C  
HETATM   20  C   UNL     1      -7.772   5.714  67.794  1.00  0.00    -0.096 A  
HETATM   21  C   UNL     1      -6.605   6.696  73.024  1.00  0.00    -0.067 C  
HETATM   22  C   UNL     1      -6.910   7.612  74.204  1.00  0.00    -0.115 C  
HETATM   23  C   UNL     1      -8.732   4.737  67.550  1.00  0.00    -0.104 A  
HETATM   24  C   UNL     1      -9.812   4.600  68.418  1.00  0.00    -0.169 A  
HETATM   25  C   UNL     1      -8.183   8.425  74.014  1.00  0.00    -0.186 C  
HETATM   26  C   UNL     1      -9.367   7.557  73.594  1.00  0.00    -0.329 C  
HETATM   27  C   UNL     1      -9.931   5.442  69.527  1.00  0.00    -0.289 A  
ENDBRANCH  10  11
ENDBRANCH   9  10
ENDBRANCH   8   9
ENDBRANCH   6   7
ENDBRANCH   3   6
ENDBRANCH   2   3
TORSDOF 7
ENDMDL
MODEL      196
REMARK 921   NORMALIZED FREE ENERGY PREDICTED BY IDOCK:   -3.36 KCAL/MOL
REMARK 922        TOTAL FREE ENERGY PREDICTED BY IDOCK:   -5.98 KCAL/MOL
REMARK 923 INTER-LIGAND FREE ENERGY PREDICTED BY IDOCK:   -4.84 KCAL/MOL
REMARK 924 INTRA-LIGAND FREE ENERGY PREDICTED BY IDOCK:   -1.14 KCAL/MOL
REMARK 927      BINDING AFFINITY PREDICTED BY RF-SCORE:    0.00 PKD
ROOT
HETATM    1  C   UNL     1      -8.276   9.576  70.024  1.00  0.00    -0.181 C  
HETATM    2  C   UNL     1      -9.717   9.733  69.545  1.00  0.00    -0.212 C  
ENDROOT
BRANCH   2   3
HETATM    3  N   UNL     1      -9.878  10.590  68.357  1.00  0.00    -0.156 NA 
BRANCH   3   4
HETATM    4  C   UNL     1      -9.497   9.937  67.094  1.00  0.00    -0.158 C  
HETATM    5  C   UNL     1     -10.194  10.432  65.832  1.00  0.00    -0.302 C  
ENDBRANCH   3   4
BRANCH   3   6
HETATM    6  C   UNL     1     -11.236  11.162  68.352  1.00  0.00    -0.262 C  
BRANCH   6   7
HETATM    7  C   UNL     1     -11.236  12.647  68.672  1.00  0.00    -0.323 C  
HETATM    8  C   UNL     1     -11.237  13.922  68.947  1.00  0.00    -0.304 C  
BRANCH   8   9
HETATM    9  C   UNL     1     -11.260  15.358  69.237  1.00  0.00    -0.296 C  
BRANCH   9  10
HETATM   10  O   UNL     1      -9.926  15.872  69.353  1.00  0.00    -0.242 OA 
BRANCH  10  11
HETATM   11  C   UNL     1      -9.292  16.097  68.160  1.00  0.00    -0.201 C  
HETATM   12  O   UNL     1      -9.868  16.297  67.096  1.00  0.00    -0.236 OA 
HETATM   13  C   UNL     1      -7.735  16.014  68.353  1.00  0.00    -0.147 C  
HETATM   14  C   UNL     1      -7.117  17.370  67.950  1.00  0.00    -0.178 A  
HETATM   15  C   UNL     1      -7.180  14.825  67.488  1.00  0.00    -0.222 C  
HETATM   16  O   UNL     1      -7.420  15.777  69.734  1.00  0.00    -0.159 OA 
HETATM   17  H   UNL     1      -6.478  15.727  69.850  1.00  0.00     0.000 HD 
HETATM   18  C   UNL     1      -6.351  18.129  68.855  1.00  0.00    -0.224 A  
HETATM   19  C   UNL     1      -5.645  14.646  67.548  1.00  0.00     0.160 C  
HETATM   20  C   UNL     1      -5.824  19.373  68.497  1.00  0.00    -0.233 A  
HETATM   21  C   UNL     1      -5.133  13.979  68.823  1.00  0.00    -0.084 C  
HETATM   22  C   UNL     1      -5.840  12.661  69.115  1.00  0.00    -0.080 C  
HETATM   23  C   UNL     1      -6.053  19.889  67.226  1.00  0.00    -0.201 A  
HETATM   24  C   UNL     1      -6.798  19.155  66.307  1.00  0.00    -0.236 A  
HETATM   25  C   UNL     1      -7.358  12.774  69.060  1.00  0.00     0.056 C  
HETATM   26  C   UNL     1      -7.841  13.457  67.782  1.00  0.00    -0.158 C  
HETATM   27  C   UNL     1      -7.317  17.907  66.664  1.00  0.00    -0.260 A  
ENDBRANCH  10  11
ENDBRANCH   9  10
ENDBRANCH   8   9
ENDBRANCH   6   7
ENDBRANCH   3   6
ENDBRANCH   2   3
TORSDOF 7
ENDMDL
MODEL      197
REMARK 921   NORMALIZED FREE ENERGY PREDICTED BY IDOCK:   -3.35 KCAL/MOL
REMARK 922        TOTAL FREE ENERGY PREDICTED BY IDOCK:   -5.97 KCAL/MOL
REMARK 923 INTER-LIGAND FREE ENERGY PREDICTED BY IDOCK:   -5.51 KCAL/MOL
REMARK 924 INTRA-LIGAND FREE ENERGY PREDICTED BY IDOCK:   -0.46 KCAL/MOL
REMARK 927      BINDING AFFINITY PREDICTED BY RF-SCORE:    0.00 PKD
ROOT
HETATM    1  C   UNL     1     -11.218  14.282  69.409  1.00  0.00    -0.313 C  
HETATM    2  C   UNL     1     -11.614  12.867  69.823  1.00  0.00    -0.218 C  
ENDROOT
BRANCH   2   3
HETATM    3  N   UNL     1     -12.348  12.785  71.098  1.00  0.00    -0.252 NA 
BRANCH   3   4
HETATM    4  C   UNL     1     -13.113  14.000  71.426  1.00  0.00    -0.353 C  
HETATM    5  C   UNL     1     -13.140  14.415  72.892  1.00  0.00    -0.612 C  
ENDBRANCH   3   4
BRANCH   3   6
HETATM    6  C   UNL     1     -13.149  11.548  71.118  1.00  0.00    -0.094 C  
BRANCH   6   7
HETATM    7  C   UNL     1     -12.294  10.312  71.346  1.00  0.00    -0.502 C  
HETATM    8  C   UNL     1     -11.560   9.253  71.542  1.00  0.00    -0.452 C  
BRANCH   8   9
HETATM    9  C   UNL     1     -10.713   8.076  71.749  1.00  0.00    -0.240 C  
BRANCH   9  10
HETATM   10  O   UNL     1      -9.953   7.785  70.567  1.00  0.00    -0.187 OA 
BRANCH  10  11
HETATM   11  C   UNL     1      -8.859   6.989  70.770  1.00  0.00    -0.149 C  
HETATM   12  O   UNL     1      -7.799   7.375  71.252  1.00  0.00    -0.093 OA 
HETATM   13  C   UNL     1      -9.147   5.534  70.252  1.00  0.00    -0.138 C  
HETATM   14  C   UNL     1      -9.004   4.554  71.436  1.00  0.00    -0.165 A  
HETATM   15  C   UNL     1      -8.151   5.206  69.081  1.00  0.00    -0.084 C  
HETATM   16  O   UNL     1     -10.494   5.442  69.762  1.00  0.00    -0.284 OA 
HETATM   17  H   UNL     1     -10.668   4.562  69.449  1.00  0.00     0.000 HD 
HETATM   18  C   UNL     1     -10.068   3.725  71.839  1.00  0.00    -0.194 A  
HETATM   19  C   UNL     1      -8.292   3.782  68.495  1.00  0.00    -0.092 C  
HETATM   20  C   UNL     1      -9.944   2.865  72.934  1.00  0.00    -0.204 A  
HETATM   21  C   UNL     1      -9.483   3.597  67.556  1.00  0.00    -0.237 C  
HETATM   22  C   UNL     1      -9.517   4.642  66.446  1.00  0.00    -0.169 C  
HETATM   23  C   UNL     1      -8.755   2.815  73.654  1.00  0.00    -0.072 A  
HETATM   24  C   UNL     1      -7.683   3.617  73.270  1.00  0.00    -0.066 A  
HETATM   25  C   UNL     1      -9.371   6.066  66.965  1.00  0.00    -0.128 C  
HETATM   26  C   UNL     1      -8.183   6.219  67.911  1.00  0.00    -0.114 C  
HETATM   27  C   UNL     1      -7.805   4.470  72.169  1.00  0.00    -0.095 A  
ENDBRANCH  10  11
ENDBRANCH   9  10
ENDBRANCH   8   9
ENDBRANCH   6   7
ENDBRANCH   3   6
ENDBRANCH   2   3
TORSDOF 7
ENDMDL
MODEL      198
REMARK 921   NORMALIZED FREE ENERGY PREDICTED BY IDOCK:   -3.34 KCAL/MOL
REMARK 922        TOTAL FREE ENERGY PREDICTED BY IDOCK:   -5.95 KCAL/MOL
REMARK 923 INTER-LIGAND FREE ENERGY PREDICTED BY IDOCK:   -5.45 KCAL/MOL
REMARK 924 INTRA-LIGAND FREE ENERGY PREDICTED BY IDOCK:   -0.50 KCAL/MOL
REMARK 927      BINDING AFFINITY PREDICTED BY RF-SCORE:    0.00 PKD
ROOT
HETATM    1  C   UNL     1      -6.095   5.080  68.504  1.00  0.00    -0.030 C  
HETATM    2  C   UNL     1      -6.231   6.553  68.882  1.00  0.00    -0.030 C  
ENDROOT
BRANCH   2   3
HETATM    3  N   UNL     1      -7.533   7.153  68.543  1.00  0.00    -0.103 NA 
BRANCH   3   4
HETATM    4  C   UNL     1      -8.463   6.226  67.877  1.00  0.00    -0.117 C  
HETATM    5  C   UNL     1      -8.713   6.458  66.391  1.00  0.00    -0.140 C  
ENDBRANCH   3   4
BRANCH   3   6
HETATM    6  C   UNL     1      -8.092   7.808  69.739  1.00  0.00    -0.117 C  
BRANCH   6   7
HETATM    7  C   UNL     1      -8.951   9.012  69.389  1.00  0.00    -0.145 C  
HETATM    8  C   UNL     1      -9.687  10.045  69.088  1.00  0.00    -0.217 C  
BRANCH   8   9
HETATM    9  C   UNL     1     -10.490  11.222  68.749  1.00  0.00    -0.208 C  
BRANCH   9  10
HETATM   10  O   UNL     1      -9.663  12.392  68.671  1.00  0.00    -0.166 OA 
BRANCH  10  11
HETATM   11  C   UNL     1     -10.346  13.567  68.499  1.00  0.00    -0.240 C  
HETATM   12  O   UNL     1     -11.043  14.096  69.358  1.00  0.00    -0.251 OA 
HETATM   13  C   UNL     1     -10.140  14.100  67.035  1.00  0.00    -0.261 C  
HETATM   14  C   UNL     1      -9.484  15.495  67.109  1.00  0.00    -0.223 A  
HETATM   15  C   UNL     1     -11.533  14.133  66.308  1.00  0.00    -0.358 C  
HETATM   16  O   UNL     1      -9.254  13.232  66.313  1.00  0.00    -0.433 OA 
HETATM   17  H   UNL     1      -9.130  13.554  65.428  1.00  0.00     0.000 HD 
HETATM   18  C   UNL     1      -8.249  15.763  66.488  1.00  0.00    -0.278 A  
HETATM   19  C   UNL     1     -11.492  14.678  64.862  1.00  0.00    -0.401 C  
HETATM   20  C   UNL     1      -7.642  17.017  66.589  1.00  0.00    -0.298 A  
HETATM   21  C   UNL     1     -10.956  13.691  63.826  1.00  0.00     0.275 C  
HETATM   22  C   UNL     1     -11.676  12.348  63.875  1.00  0.00    -0.529 C  
HETATM   23  C   UNL     1      -8.254  18.035  67.313  1.00  0.00    -0.224 A  
HETATM   24  C   UNL     1      -9.481  17.801  67.929  1.00  0.00    -0.270 A  
HETATM   25  C   UNL     1     -11.756  11.766  65.280  1.00  0.00    -0.132 C  
HETATM   26  C   UNL     1     -12.281  12.778  66.296  1.00  0.00    -0.289 C  
HETATM   27  C   UNL     1     -10.091  16.548  67.820  1.00  0.00    -0.264 A  
ENDBRANCH  10  11
ENDBRANCH   9  10
ENDBRANCH   8   9
ENDBRANCH   6   7
ENDBRANCH   3   6
ENDBRANCH   2   3
TORSDOF 7
ENDMDL
MODEL      199
REMARK 921   NORMALIZED FREE ENERGY PREDICTED BY IDOCK:   -3.32 KCAL/MOL
REMARK 922        TOTAL FREE ENERGY PREDICTED BY IDOCK:   -5.92 KCAL/MOL
REMARK 923 INTER-LIGAND FREE ENERGY PREDICTED BY IDOCK:   -5.47 KCAL/MOL
REMARK 924 INTRA-LIGAND FREE ENERGY PREDICTED BY IDOCK:   -0.44 KCAL/MOL
REMARK 927      BINDING AFFINITY PREDICTED BY RF-SCORE:    0.00 PKD
ROOT
HETATM    1  C   UNL     1     -12.653  13.390  65.572  1.00  0.00    -0.520 C  
HETATM    2  C   UNL     1     -11.280  12.749  65.758  1.00  0.00    -0.307 C  
ENDROOT
BRANCH   2   3
HETATM    3  N   UNL     1     -10.234  13.670  66.237  1.00  0.00    -0.289 NA 
BRANCH   3   4
HETATM    4  C   UNL     1     -10.750  14.964  66.712  1.00  0.00    -0.312 C  
HETATM    5  C   UNL     1      -9.728  15.937  67.289  1.00  0.00    -0.224 C  
ENDBRANCH   3   4
BRANCH   3   6
HETATM    6  C   UNL     1      -9.380  12.969  67.212  1.00  0.00    -0.220 C  
BRANCH   6   7
HETATM    7  C   UNL     1     -10.187  12.332  68.331  1.00  0.00    -0.220 C  
HETATM    8  C   UNL     1     -10.881  11.785  69.290  1.00  0.00    -0.185 C  
BRANCH   8   9
HETATM    9  C   UNL     1     -11.683  11.185  70.358  1.00  0.00    -0.320 C  
BRANCH   9  10
HETATM   10  O   UNL     1     -11.770   9.763  70.187  1.00  0.00    -0.221 OA 
BRANCH  10  11
HETATM   11  C   UNL     1     -10.882   9.237  69.288  1.00  0.00    -0.152 C  
HETATM   12  O   UNL     1     -11.022   9.276  68.070  1.00  0.00    -0.155 OA 
HETATM   13  C   UNL     1      -9.694   8.543  70.047  1.00  0.00    -0.170 C  
HETATM   14  C   UNL     1      -8.377   9.234  69.635  1.00  0.00    -0.140 A  
HETATM   15  C   UNL     1      -9.698   7.010  69.699  1.00  0.00    -0.157 C  
HETATM   16  O   UNL     1      -9.853   8.703  71.465  1.00  0.00    -0.218 OA 
HETATM   17  H   UNL     1      -9.135   8.283  71.924  1.00  0.00     0.000 HD 
HETATM   18  C   UNL     1      -7.533   9.838  70.586  1.00  0.00    -0.050 A  
HETATM   19  C   UNL     1      -8.552   6.199  70.348  1.00  0.00    -0.134 C  
HETATM   20  C   UNL     1      -6.360  10.495  70.204  1.00  0.00    -0.132 A  
HETATM   21  C   UNL     1      -8.758   5.881  71.828  1.00  0.00    -0.139 C  
HETATM   22  C   UNL     1     -10.106   5.221  72.099  1.00  0.00    -0.241 C  
HETATM   23  C   UNL     1      -6.003  10.564  68.861  1.00  0.00    -0.040 A  
HETATM   24  C   UNL     1      -6.814   9.966  67.900  1.00  0.00    -0.076 A  
HETATM   25  C   UNL     1     -11.274   5.972  71.473  1.00  0.00    -0.326 C  
HETATM   26  C   UNL     1     -11.035   6.289  69.999  1.00  0.00    -0.422 C  
HETATM   27  C   UNL     1      -7.983   9.302  68.285  1.00  0.00    -0.102 A  
ENDBRANCH  10  11
ENDBRANCH   9  10
ENDBRANCH   8   9
ENDBRANCH   6   7
ENDBRANCH   3   6
ENDBRANCH   2   3
TORSDOF 7
ENDMDL
MODEL      200
REMARK 921   NORMALIZED FREE ENERGY PREDICTED BY IDOCK:   -3.28 KCAL/MOL
REMARK 922        TOTAL FREE ENERGY PREDICTED BY IDOCK:   -5.86 KCAL/MOL
REMARK 923 INTER-LIGAND FREE ENERGY PREDICTED BY IDOCK:   -4.66 KCAL/MOL
REMARK 924 INTRA-LIGAND FREE ENERGY PREDICTED BY IDOCK:   -1.20 KCAL/MOL
REMARK 927      BINDING AFFINITY PREDICTED BY RF-SCORE:    0.00 PKD
ROOT
HETATM    1  C   UNL     1      -9.818   4.469  73.502  1.00  0.00    -0.166 C  
HETATM    2  C   UNL     1      -9.095   5.489  72.624  1.00  0.00    -0.138 C  
ENDROOT
BRANCH   2   3
HETATM    3  N   UNL     1      -8.747   5.000  71.278  1.00  0.00    -0.127 NA 
BRANCH   3   4
HETATM    4  C   UNL     1      -9.833   4.262  70.611  1.00  0.00    -0.195 C  
HETATM    5  C   UNL     1      -9.498   2.865  70.102  1.00  0.00    -0.198 C  
ENDBRANCH   3   4
BRANCH   3   6
HETATM    6  C   UNL     1      -8.202   6.114  70.483  1.00  0.00    -0.114 C  
BRANCH   6   7
HETATM    7  C   UNL     1      -9.182   7.270  70.364  1.00  0.00    -0.158 C  
HETATM    8  C   UNL     1     -10.022   8.261  70.262  1.00  0.00    -0.188 C  
BRANCH   8   9
HETATM    9  C   UNL     1     -10.981   9.364  70.171  1.00  0.00    -0.246 C  
BRANCH   9  10
HETATM   10  O   UNL     1     -10.808  10.085  68.942  1.00  0.00    -0.213 OA 
BRANCH  10  11
HETATM   11  C   UNL     1      -9.505  10.275  68.567  1.00  0.00    -0.158 C  
HETATM   12  O   UNL     1      -8.645  10.784  69.279  1.00  0.00    -0.129 OA 
HETATM   13  C   UNL     1      -9.294   9.791  67.087  1.00  0.00    -0.142 C  
HETATM   14  C   UNL     1      -8.229   8.674  67.083  1.00  0.00    -0.107 A  
HETATM   15  C   UNL     1      -8.871  11.022  66.207  1.00  0.00    -0.187 C  
HETATM   16  O   UNL     1     -10.514   9.240  66.569  1.00  0.00    -0.227 OA 
HETATM   17  H   UNL     1     -10.387   8.948  65.674  1.00  0.00     0.000 HD 
HETATM   18  C   UNL     1      -8.510   7.389  66.582  1.00  0.00    -0.124 A  
HETATM   19  C   UNL     1      -8.589  10.687  64.724  1.00  0.00    -0.136 C  
HETATM   20  C   UNL     1      -7.553   6.371  66.614  1.00  0.00    -0.094 A  
HETATM   21  C   UNL     1      -9.839  10.485  63.869  1.00  0.00    -0.373 C  
HETATM   22  C   UNL     1     -10.816  11.650  63.982  1.00  0.00    -0.455 C  
HETATM   23  C   UNL     1      -6.292   6.612  67.149  1.00  0.00    -0.041 A  
HETATM   24  C   UNL     1      -5.983   7.877  67.643  1.00  0.00    -0.046 A  
HETATM   25  C   UNL     1     -11.124  12.031  65.424  1.00  0.00    -0.369 C  
HETATM   26  C   UNL     1      -9.858  12.214  66.257  1.00  0.00    -0.250 C  
HETATM   27  C   UNL     1      -6.939   8.897  67.602  1.00  0.00    -0.075 A  
ENDBRANCH  10  11
ENDBRANCH   9  10
ENDBRANCH   8   9
ENDBRANCH   6   7
ENDBRANCH   3   6
ENDBRANCH   2   3
TORSDOF 7
ENDMDL
MODEL      201
REMARK 921   NORMALIZED FREE ENERGY PREDICTED BY IDOCK:   -3.27 KCAL/MOL
REMARK 922        TOTAL FREE ENERGY PREDICTED BY IDOCK:   -5.86 KCAL/MOL
REMARK 923 INTER-LIGAND FREE ENERGY PREDICTED BY IDOCK:   -5.11 KCAL/MOL
REMARK 924 INTRA-LIGAND FREE ENERGY PREDICTED BY IDOCK:   -0.75 KCAL/MOL
REMARK 927      BINDING AFFINITY PREDICTED BY RF-SCORE:    0.00 PKD
ROOT
HETATM    1  C   UNL     1     -12.014  11.741  67.722  1.00  0.00    -0.134 C  
HETATM    2  C   UNL     1     -11.450  12.650  68.811  1.00  0.00    -0.306 C  
ENDROOT
BRANCH   2   3
HETATM    3  N   UNL     1     -11.157  14.025  68.370  1.00  0.00    -0.243 NA 
BRANCH   3   4
HETATM    4  C   UNL     1     -11.302  15.036  69.431  1.00  0.00    -0.297 C  
HETATM    5  C   UNL     1     -10.381  16.248  69.350  1.00  0.00    -0.278 C  
ENDBRANCH   3   4
BRANCH   3   6
HETATM    6  C   UNL     1      -9.849  14.049  67.693  1.00  0.00    -0.233 C  
BRANCH   6   7
HETATM    7  C   UNL     1      -8.917  12.961  68.200  1.00  0.00    -0.202 C  
HETATM    8  C   UNL     1      -8.119  12.027  68.634  1.00  0.00    -0.069 C  
BRANCH   8   9
HETATM    9  C   UNL     1      -7.244  10.959  69.126  1.00  0.00    -0.118 C  
BRANCH   9  10
HETATM   10  O   UNL     1      -7.584   9.706  68.515  1.00  0.00    -0.079 OA 
BRANCH  10  11
HETATM   11  C   UNL     1      -7.820   8.684  69.395  1.00  0.00    -0.096 C  
HETATM   12  O   UNL     1      -7.051   8.345  70.287  1.00  0.00    -0.039 OA 
HETATM   13  C   UNL     1      -9.189   7.989  69.059  1.00  0.00    -0.148 C  
HETATM   14  C   UNL     1     -10.115   8.109  70.288  1.00  0.00    -0.192 A  
HETATM   15  C   UNL     1      -8.914   6.493  68.662  1.00  0.00    -0.126 C  
HETATM   16  O   UNL     1      -9.825   8.657  67.959  1.00  0.00    -0.157 OA 
HETATM   17  H   UNL     1     -10.653   8.237  67.755  1.00  0.00     0.000 HD 
HETATM   18  C   UNL     1     -11.370   8.742  70.206  1.00  0.00    -0.162 A  
HETATM   19  C   UNL     1     -10.182   5.669  68.341  1.00  0.00    -0.247 C  
HETATM   20  C   UNL     1     -12.189   8.881  71.330  1.00  0.00    -0.374 A  
HETATM   21  C   UNL     1     -10.785   5.940  66.964  1.00  0.00    -0.396 C  
HETATM   22  C   UNL     1      -9.760   5.809  65.843  1.00  0.00     0.019 C  
HETATM   23  C   UNL     1     -11.772   8.390  72.564  1.00  0.00    -0.429 A  
HETATM   24  C   UNL     1     -10.540   7.750  72.670  1.00  0.00    -0.377 A  
HETATM   25  C   UNL     1      -8.482   6.595  66.110  1.00  0.00    -0.135 C  
HETATM   26  C   UNL     1      -7.910   6.315  67.497  1.00  0.00    -0.105 C  
HETATM   27  C   UNL     1      -9.726   7.605  71.543  1.00  0.00    -0.191 A  
ENDBRANCH  10  11
ENDBRANCH   9  10
ENDBRANCH   8   9
ENDBRANCH   6   7
ENDBRANCH   3   6
ENDBRANCH   2   3
TORSDOF 7
ENDMDL
MODEL      202
REMARK 921   NORMALIZED FREE ENERGY PREDICTED BY IDOCK:   -3.26 KCAL/MOL
REMARK 922        TOTAL FREE ENERGY PREDICTED BY IDOCK:   -5.83 KCAL/MOL
REMARK 923 INTER-LIGAND FREE ENERGY PREDICTED BY IDOCK:   -5.59 KCAL/MOL
REMARK 924 INTRA-LIGAND FREE ENERGY PREDICTED BY IDOCK:   -0.25 KCAL/MOL
REMARK 927      BINDING AFFINITY PREDICTED BY RF-SCORE:    0.00 PKD
ROOT
HETATM    1  C   UNL     1      -5.620   7.994  73.751  1.00  0.00    -0.062 C  
HETATM    2  C   UNL     1      -5.419   7.091  72.536  1.00  0.00    -0.038 C  
ENDROOT
BRANCH   2   3
HETATM    3  N   UNL     1      -6.007   7.606  71.287  1.00  0.00    -0.035 NA 
BRANCH   3   4
HETATM    4  C   UNL     1      -7.066   6.750  70.728  1.00  0.00    -0.068 C  
HETATM    5  C   UNL     1      -8.290   6.517  71.606  1.00  0.00    -0.120 C  
ENDBRANCH   3   4
BRANCH   3   6
HETATM    6  C   UNL     1      -6.410   9.010  71.483  1.00  0.00    -0.079 C  
BRANCH   6   7
HETATM    7  C   UNL     1      -6.732   9.706  70.171  1.00  0.00    -0.089 C  
HETATM    8  C   UNL     1      -7.007  10.302  69.045  1.00  0.00    -0.064 C  
BRANCH   8   9
HETATM    9  C   UNL     1      -7.291  10.963  67.769  1.00  0.00    -0.093 C  
BRANCH   9  10
HETATM   10  O   UNL     1      -8.243  12.021  67.948  1.00  0.00    -0.135 OA 
BRANCH  10  11
HETATM   11  C   UNL     1      -9.522  11.605  68.207  1.00  0.00    -0.191 C  
HETATM   12  O   UNL     1      -9.818  10.484  68.609  1.00  0.00    -0.163 OA 
HETATM   13  C   UNL     1     -10.541  12.752  67.870  1.00  0.00    -0.221 C  
HETATM   14  C   UNL     1     -11.319  13.110  69.154  1.00  0.00    -0.335 A  
HETATM   15  C   UNL     1     -11.489  12.264  66.715  1.00  0.00    -0.421 C  
HETATM   16  O   UNL     1      -9.838  13.926  67.437  1.00  0.00    -0.230 OA 
HETATM   17  H   UNL     1     -10.454  14.619  67.233  1.00  0.00     0.000 HD 
HETATM   18  C   UNL     1     -11.306  14.414  69.684  1.00  0.00    -0.309 A  
HETATM   19  C   UNL     1     -12.577  13.281  66.302  1.00  0.00    -0.140 C  
HETATM   20  C   UNL     1     -11.982  14.725  70.867  1.00  0.00    -0.384 A  
HETATM   21  C   UNL     1     -12.075  14.429  65.428  1.00  0.00    -0.364 C  
HETATM   22  C   UNL     1     -11.307  13.937  64.206  1.00  0.00    -0.309 C  
HETATM   23  C   UNL     1     -12.687  13.739  71.550  1.00  0.00    -0.432 A  
HETATM   24  C   UNL     1     -12.725  12.443  71.043  1.00  0.00    -0.315 A  
HETATM   25  C   UNL     1     -10.225  12.923  64.552  1.00  0.00    -0.334 C  
HETATM   26  C   UNL     1     -10.751  11.795  65.437  1.00  0.00    -0.333 C  
HETATM   27  C   UNL     1     -12.055  12.135  69.855  1.00  0.00    -0.324 A  
ENDBRANCH  10  11
ENDBRANCH   9  10
ENDBRANCH   8   9
ENDBRANCH   6   7
ENDBRANCH   3   6
ENDBRANCH   2   3
TORSDOF 7
ENDMDL
MODEL      203
REMARK 921   NORMALIZED FREE ENERGY PREDICTED BY IDOCK:   -3.26 KCAL/MOL
REMARK 922        TOTAL FREE ENERGY PREDICTED BY IDOCK:   -5.83 KCAL/MOL
REMARK 923 INTER-LIGAND FREE ENERGY PREDICTED BY IDOCK:   -5.12 KCAL/MOL
REMARK 924 INTRA-LIGAND FREE ENERGY PREDICTED BY IDOCK:   -0.71 KCAL/MOL
REMARK 927      BINDING AFFINITY PREDICTED BY RF-SCORE:    0.00 PKD
ROOT
HETATM    1  C   UNL     1      -9.773   4.578  72.464  1.00  0.00    -0.200 C  
HETATM    2  C   UNL     1      -9.902   5.774  71.524  1.00  0.00    -0.169 C  
ENDROOT
BRANCH   2   3
HETATM    3  N   UNL     1     -10.217   7.048  72.193  1.00  0.00    -0.186 NA 
BRANCH   3   4
HETATM    4  C   UNL     1      -9.041   7.737  72.748  1.00  0.00    -0.186 C  
HETATM    5  C   UNL     1      -7.764   7.688  71.917  1.00  0.00    -0.093 C  
ENDBRANCH   3   4
BRANCH   3   6
HETATM    6  C   UNL     1     -11.031   7.882  71.291  1.00  0.00    -0.238 C  
BRANCH   6   7
HETATM    7  C   UNL     1     -10.861   7.488  69.833  1.00  0.00    -0.250 C  
HETATM    8  C   UNL     1     -10.715   7.150  68.583  1.00  0.00    -0.198 C  
BRANCH   8   9
HETATM    9  C   UNL     1     -10.523   6.764  67.183  1.00  0.00    -0.293 C  
BRANCH   9  10
HETATM   10  O   UNL     1     -10.374   7.926  66.354  1.00  0.00    -0.173 OA 
BRANCH  10  11
HETATM   11  C   UNL     1      -9.178   8.578  66.490  1.00  0.00    -0.190 C  
HETATM   12  O   UNL     1      -8.185   8.101  67.030  1.00  0.00    -0.113 OA 
HETATM   13  C   UNL     1      -9.285  10.030  65.899  1.00  0.00    -0.167 C  
HETATM   14  C   UNL     1      -8.251  10.176  64.763  1.00  0.00    -0.161 A  
HETATM   15  C   UNL     1      -9.050  11.067  67.057  1.00  0.00    -0.154 C  
HETATM   16  O   UNL     1     -10.590  10.240  65.339  1.00  0.00    -0.152 OA 
HETATM   17  H   UNL     1     -10.655  11.118  64.982  1.00  0.00     0.000 HD 
HETATM   18  C   UNL     1      -8.638  10.512  63.452  1.00  0.00    -0.172 A  
HETATM   19  C   UNL     1      -9.087  12.547  66.613  1.00  0.00    -0.203 C  
HETATM   20  C   UNL     1      -7.702  10.607  62.419  1.00  0.00    -0.189 A  
HETATM   21  C   UNL     1     -10.490  13.105  66.377  1.00  0.00    -0.287 C  
HETATM   22  C   UNL     1     -11.415  12.876  67.567  1.00  0.00    -0.386 C  
HETATM   23  C   UNL     1      -6.355  10.366  62.671  1.00  0.00    -0.142 A  
HETATM   24  C   UNL     1      -5.943  10.042  63.961  1.00  0.00    -0.131 A  
HETATM   25  C   UNL     1     -11.412  11.433  68.055  1.00  0.00    -0.377 C  
HETATM   26  C   UNL     1      -9.998  10.898  68.269  1.00  0.00    -0.187 C  
HETATM   27  C   UNL     1      -6.879   9.956  64.995  1.00  0.00    -0.126 A  
ENDBRANCH  10  11
ENDBRANCH   9  10
ENDBRANCH   8   9
ENDBRANCH   6   7
ENDBRANCH   3   6
ENDBRANCH   2   3
TORSDOF 7
ENDMDL
MODEL      204
REMARK 921   NORMALIZED FREE ENERGY PREDICTED BY IDOCK:   -3.25 KCAL/MOL
REMARK 922        TOTAL FREE ENERGY PREDICTED BY IDOCK:   -5.83 KCAL/MOL
REMARK 923 INTER-LIGAND FREE ENERGY PREDICTED BY IDOCK:   -5.26 KCAL/MOL
REMARK 924 INTRA-LIGAND FREE ENERGY PREDICTED BY IDOCK:   -0.57 KCAL/MOL
REMARK 927      BINDING AFFINITY PREDICTED BY RF-SCORE:    0.00 PKD
ROOT
HETATM    1  C   UNL     1      -7.486  19.362  65.956  1.00  0.00    -0.305 C  
HETATM    2  C   UNL     1      -7.984  19.394  67.399  1.00  0.00    -0.268 C  
ENDROOT
BRANCH   2   3
HETATM    3  N   UNL     1      -7.827  18.124  68.130  1.00  0.00    -0.271 NA 
BRANCH   3   4
HETATM    4  C   UNL     1      -8.888  17.141  67.855  1.00  0.00    -0.226 C  
HETATM    5  C   UNL     1      -9.348  16.285  69.029  1.00  0.00    -0.254 C  
ENDBRANCH   3   4
BRANCH   3   6
HETATM    6  C   UNL     1      -6.463  17.608  67.918  1.00  0.00    -0.179 C  
BRANCH   6   7
HETATM    7  C   UNL     1      -6.437  16.098  67.754  1.00  0.00    -0.168 C  
HETATM    8  C   UNL     1      -6.415  14.802  67.614  1.00  0.00    -0.162 C  
BRANCH   8   9
HETATM    9  C   UNL     1      -6.417  13.344  67.470  1.00  0.00    -0.118 C  
BRANCH   9  10
HETATM   10  O   UNL     1      -7.371  12.749  68.361  1.00  0.00    -0.104 OA 
BRANCH  10  11
HETATM   11  C   UNL     1      -7.955  11.602  67.894  1.00  0.00    -0.132 C  
HETATM   12  O   UNL     1      -7.337  10.600  67.549  1.00  0.00    -0.089 OA 
HETATM   13  C   UNL     1      -9.514  11.780  67.825  1.00  0.00    -0.181 C  
HETATM   14  C   UNL     1     -10.170  10.718  68.732  1.00  0.00    -0.207 A  
HETATM   15  C   UNL     1      -9.972  11.651  66.327  1.00  0.00    -0.247 C  
HETATM   16  O   UNL     1      -9.886  13.076  68.319  1.00  0.00    -0.223 OA 
HETATM   17  H   UNL     1     -10.829  13.184  68.277  1.00  0.00     0.000 HD 
HETATM   18  C   UNL     1     -11.013  11.081  69.800  1.00  0.00    -0.258 A  
HETATM   19  C   UNL     1     -11.499  11.766  66.108  1.00  0.00    -0.288 C  
HETATM   20  C   UNL     1     -11.576  10.117  70.642  1.00  0.00    -0.429 A  
HETATM   21  C   UNL     1     -12.044  13.192  66.169  1.00  0.00    -0.479 C  
HETATM   22  C   UNL     1     -11.293  14.141  65.241  1.00  0.00    -0.328 C  
HETATM   23  C   UNL     1     -11.309   8.767  70.436  1.00  0.00    -0.213 A  
HETATM   24  C   UNL     1     -10.487   8.380  69.381  1.00  0.00    -0.222 A  
HETATM   25  C   UNL     1      -9.781  14.064  65.406  1.00  0.00    -0.109 C  
HETATM   26  C   UNL     1      -9.267  12.627  65.355  1.00  0.00     0.393 C  
HETATM   27  C   UNL     1      -9.931   9.345  68.535  1.00  0.00    -0.190 A  
ENDBRANCH  10  11
ENDBRANCH   9  10
ENDBRANCH   8   9
ENDBRANCH   6   7
ENDBRANCH   3   6
ENDBRANCH   2   3
TORSDOF 7
ENDMDL
MODEL      205
REMARK 921   NORMALIZED FREE ENERGY PREDICTED BY IDOCK:   -3.25 KCAL/MOL
REMARK 922        TOTAL FREE ENERGY PREDICTED BY IDOCK:   -5.82 KCAL/MOL
REMARK 923 INTER-LIGAND FREE ENERGY PREDICTED BY IDOCK:   -4.70 KCAL/MOL
REMARK 924 INTRA-LIGAND FREE ENERGY PREDICTED BY IDOCK:   -1.13 KCAL/MOL
REMARK 927      BINDING AFFINITY PREDICTED BY RF-SCORE:    0.00 PKD
ROOT
HETATM    1  C   UNL     1     -11.064  15.901  64.634  1.00  0.00    -0.368 C  
HETATM    2  C   UNL     1     -11.815  14.580  64.781  1.00  0.00    -0.441 C  
ENDROOT
BRANCH   2   3
HETATM    3  N   UNL     1     -11.059  13.519  65.471  1.00  0.00    -0.292 NA 
BRANCH   3   4
HETATM    4  C   UNL     1     -10.319  12.627  64.563  1.00  0.00    -0.344 C  
HETATM    5  C   UNL     1     -11.147  11.840  63.553  1.00  0.00    -0.503 C  
ENDBRANCH   3   4
BRANCH   3   6
HETATM    6  C   UNL     1     -10.228  14.124  66.527  1.00  0.00    -0.278 C  
BRANCH   6   7
HETATM    7  C   UNL     1      -9.358  13.098  67.233  1.00  0.00    -0.225 C  
HETATM    8  C   UNL     1      -8.612  12.217  67.839  1.00  0.00    -0.169 C  
BRANCH   8   9
HETATM    9  C   UNL     1      -7.795  11.208  68.517  1.00  0.00    -0.136 C  
BRANCH   9  10
HETATM   10  O   UNL     1      -8.496   9.958  68.593  1.00  0.00    -0.108 OA 
BRANCH  10  11
HETATM   11  C   UNL     1      -7.739   8.856  68.296  1.00  0.00    -0.096 C  
HETATM   12  O   UNL     1      -6.825   8.433  68.995  1.00  0.00    -0.054 OA 
HETATM   13  C   UNL     1      -8.184   8.254  66.914  1.00  0.00    -0.103 C  
HETATM   14  C   UNL     1      -8.654   6.801  67.141  1.00  0.00    -0.120 A  
HETATM   15  C   UNL     1      -6.978   8.341  65.911  1.00  0.00    -0.064 C  
HETATM   16  O   UNL     1      -9.291   8.999  66.384  1.00  0.00    -0.173 OA 
HETATM   17  H   UNL     1      -9.560   8.634  65.549  1.00  0.00     0.000 HD 
HETATM   18  C   UNL     1      -9.954   6.384  66.797  1.00  0.00    -0.225 A  
HETATM   19  C   UNL     1      -7.258   7.745  64.513  1.00  0.00    -0.073 C  
HETATM   20  C   UNL     1     -10.386   5.077  67.038  1.00  0.00    -0.242 A  
HETATM   21  C   UNL     1      -8.102   8.634  63.600  1.00  0.00    -0.163 C  
HETATM   22  C   UNL     1      -7.540  10.046  63.481  1.00  0.00    -0.146 C  
HETATM   23  C   UNL     1      -9.529   4.155  67.630  1.00  0.00    -0.225 A  
HETATM   24  C   UNL     1      -8.234   4.538  67.971  1.00  0.00    -0.094 A  
HETATM   25  C   UNL     1      -7.234  10.681  64.831  1.00  0.00     0.124 C  
HETATM   26  C   UNL     1      -6.402   9.766  65.726  1.00  0.00    -0.078 C  
HETATM   27  C   UNL     1      -7.801   5.843  67.722  1.00  0.00    -0.098 A  
ENDBRANCH  10  11
ENDBRANCH   9  10
ENDBRANCH   8   9
ENDBRANCH   6   7
ENDBRANCH   3   6
ENDBRANCH   2   3
TORSDOF 7
ENDMDL
MODEL      206
REMARK 921   NORMALIZED FREE ENERGY PREDICTED BY IDOCK:   -3.24 KCAL/MOL
REMARK 922        TOTAL FREE ENERGY PREDICTED BY IDOCK:   -5.81 KCAL/MOL
REMARK 923 INTER-LIGAND FREE ENERGY PREDICTED BY IDOCK:   -4.96 KCAL/MOL
REMARK 924 INTRA-LIGAND FREE ENERGY PREDICTED BY IDOCK:   -0.85 KCAL/MOL
REMARK 927      BINDING AFFINITY PREDICTED BY RF-SCORE:    0.00 PKD
ROOT
HETATM    1  C   UNL     1      -8.893   1.470  65.745  1.00  0.00    -0.120 C  
HETATM    2  C   UNL     1      -8.072   2.513  66.501  1.00  0.00    -0.083 C  
ENDROOT
BRANCH   2   3
HETATM    3  N   UNL     1      -7.792   2.169  67.907  1.00  0.00    -0.059 NA 
BRANCH   3   4
HETATM    4  C   UNL     1      -6.388   2.372  68.302  1.00  0.00    -0.029 C  
HETATM    5  C   UNL     1      -6.104   3.541  69.238  1.00  0.00    -0.028 C  
ENDBRANCH   3   4
BRANCH   3   6
HETATM    6  C   UNL     1      -8.765   2.853  68.776  1.00  0.00    -0.085 C  
BRANCH   6   7
HETATM    7  C   UNL     1      -9.447   4.016  68.076  1.00  0.00    -0.220 C  
HETATM    8  C   UNL     1     -10.032   5.014  67.473  1.00  0.00    -0.209 C  
BRANCH   8   9
HETATM    9  C   UNL     1     -10.673   6.129  66.773  1.00  0.00    -0.299 C  
BRANCH   9  10
HETATM   10  O   UNL     1     -11.097   7.134  67.705  1.00  0.00    -0.175 OA 
BRANCH  10  11
HETATM   11  C   UNL     1     -10.280   8.230  67.779  1.00  0.00    -0.223 C  
HETATM   12  O   UNL     1      -9.707   8.734  66.818  1.00  0.00    -0.180 OA 
HETATM   13  C   UNL     1     -10.151   8.708  69.270  1.00  0.00    -0.202 C  
HETATM   14  C   UNL     1     -10.666  10.160  69.366  1.00  0.00    -0.266 A  
HETATM   15  C   UNL     1      -8.650   8.576  69.717  1.00  0.00    -0.131 C  
HETATM   16  O   UNL     1     -10.969   7.891  70.122  1.00  0.00    -0.253 OA 
HETATM   17  H   UNL     1     -10.891   8.180  71.024  1.00  0.00     0.000 HD 
HETATM   18  C   UNL     1     -11.729  10.510  70.220  1.00  0.00    -0.420 A  
HETATM   19  C   UNL     1      -8.364   9.051  71.160  1.00  0.00    -0.212 C  
HETATM   20  C   UNL     1     -12.215  11.819  70.277  1.00  0.00    -0.381 A  
HETATM   21  C   UNL     1      -8.792   8.068  72.249  1.00  0.00    -0.224 C  
HETATM   22  C   UNL     1      -8.233   6.668  72.022  1.00  0.00    -0.106 C  
HETATM   23  C   UNL     1     -11.651  12.810  69.480  1.00  0.00    -0.342 A  
HETATM   24  C   UNL     1     -10.591  12.494  68.634  1.00  0.00    -0.240 A  
HETATM   25  C   UNL     1      -8.477   6.151  70.610  1.00  0.00    -0.134 C  
HETATM   26  C   UNL     1      -8.054   7.158  69.544  1.00  0.00    -0.130 C  
HETATM   27  C   UNL     1     -10.101  11.185  68.584  1.00  0.00    -0.208 A  
ENDBRANCH  10  11
ENDBRANCH   9  10
ENDBRANCH   8   9
ENDBRANCH   6   7
ENDBRANCH   3   6
ENDBRANCH   2   3
TORSDOF 7
ENDMDL
MODEL      207
REMARK 921   NORMALIZED FREE ENERGY PREDICTED BY IDOCK:   -3.22 KCAL/MOL
REMARK 922        TOTAL FREE ENERGY PREDICTED BY IDOCK:   -5.78 KCAL/MOL
REMARK 923 INTER-LIGAND FREE ENERGY PREDICTED BY IDOCK:   -5.09 KCAL/MOL
REMARK 924 INTRA-LIGAND FREE ENERGY PREDICTED BY IDOCK:   -0.69 KCAL/MOL
REMARK 927      BINDING AFFINITY PREDICTED BY RF-SCORE:    0.00 PKD
ROOT
HETATM    1  C   UNL     1     -10.750   9.372  68.020  1.00  0.00    -0.246 C  
HETATM    2  C   UNL     1      -9.539   9.717  68.882  1.00  0.00    -0.167 C  
ENDROOT
BRANCH   2   3
HETATM    3  N   UNL     1      -8.333  10.091  68.122  1.00  0.00    -0.113 NA 
BRANCH   3   4
HETATM    4  C   UNL     1      -8.557  11.159  67.134  1.00  0.00    -0.139 C  
HETATM    5  C   UNL     1      -8.211  10.833  65.685  1.00  0.00    -0.127 C  
ENDBRANCH   3   4
BRANCH   3   6
HETATM    6  C   UNL     1      -7.232  10.365  69.063  1.00  0.00    -0.088 C  
BRANCH   6   7
HETATM    7  C   UNL     1      -6.861  11.838  69.101  1.00  0.00    -0.106 C  
HETATM    8  C   UNL     1      -6.543  13.102  69.135  1.00  0.00    -0.104 C  
BRANCH   8   9
HETATM    9  C   UNL     1      -6.204  14.527  69.149  1.00  0.00    -0.096 C  
BRANCH   9  10
HETATM   10  O   UNL     1      -6.800  15.200  68.030  1.00  0.00    -0.114 OA 
BRANCH  10  11
HETATM   11  C   UNL     1      -7.398  16.394  68.331  1.00  0.00    -0.168 C  
HETATM   12  O   UNL     1      -7.385  16.917  69.441  1.00  0.00    -0.198 OA 
HETATM   13  C   UNL     1      -8.136  16.962  67.065  1.00  0.00    -0.198 C  
HETATM   14  C   UNL     1      -7.530  18.338  66.720  1.00  0.00    -0.243 A  
HETATM   15  C   UNL     1      -9.675  17.047  67.372  1.00  0.00    -0.252 C  
HETATM   16  O   UNL     1      -7.929  16.092  65.941  1.00  0.00    -0.001 OA 
HETATM   17  H   UNL     1      -8.375  16.435  65.176  1.00  0.00     0.000 HD 
HETATM   18  C   UNL     1      -6.947  18.593  65.464  1.00  0.00    -0.196 A  
HETATM   19  C   UNL     1     -10.529  17.629  66.222  1.00  0.00    -0.292 C  
HETATM   20  C   UNL     1      -6.367  19.830  65.169  1.00  0.00    -0.307 A  
HETATM   21  C   UNL     1     -10.796  16.658  65.073  1.00  0.00    -0.190 C  
HETATM   22  C   UNL     1     -11.373  15.332  65.554  1.00  0.00    -0.220 C  
HETATM   23  C   UNL     1      -6.354  20.842  66.123  1.00  0.00    -0.296 A  
HETATM   24  C   UNL     1      -6.933  20.621  67.370  1.00  0.00    -0.395 A  
HETATM   25  C   UNL     1     -10.576  14.714  66.696  1.00  0.00    -0.289 C  
HETATM   26  C   UNL     1     -10.313  15.710  67.823  1.00  0.00    -0.266 C  
HETATM   27  C   UNL     1      -7.520  19.386  67.661  1.00  0.00    -0.285 A  
ENDBRANCH  10  11
ENDBRANCH   9  10
ENDBRANCH   8   9
ENDBRANCH   6   7
ENDBRANCH   3   6
ENDBRANCH   2   3
TORSDOF 7
ENDMDL
MODEL      208
REMARK 921   NORMALIZED FREE ENERGY PREDICTED BY IDOCK:   -3.22 KCAL/MOL
REMARK 922        TOTAL FREE ENERGY PREDICTED BY IDOCK:   -5.77 KCAL/MOL
REMARK 923 INTER-LIGAND FREE ENERGY PREDICTED BY IDOCK:   -4.44 KCAL/MOL
REMARK 924 INTRA-LIGAND FREE ENERGY PREDICTED BY IDOCK:   -1.34 KCAL/MOL
REMARK 927      BINDING AFFINITY PREDICTED BY RF-SCORE:    0.00 PKD
ROOT
HETATM    1  C   UNL     1      -9.802   3.142  71.976  1.00  0.00    -0.241 C  
HETATM    2  C   UNL     1      -9.211   3.298  70.577  1.00  0.00    -0.143 C  
ENDROOT
BRANCH   2   3
HETATM    3  N   UNL     1      -7.809   3.750  70.551  1.00  0.00    -0.050 NA 
BRANCH   3   4
HETATM    4  C   UNL     1      -7.048   3.403  71.763  1.00  0.00    -0.035 C  
HETATM    5  C   UNL     1      -6.382   4.556  72.505  1.00  0.00    -0.022 C  
ENDBRANCH   3   4
BRANCH   3   6
HETATM    6  C   UNL     1      -7.178   3.302  69.297  1.00  0.00    -0.048 C  
BRANCH   6   7
HETATM    7  C   UNL     1      -7.677   4.080  68.091  1.00  0.00    -0.066 C  
HETATM    8  C   UNL     1      -8.106   4.747  67.056  1.00  0.00    -0.106 C  
BRANCH   8   9
HETATM    9  C   UNL     1      -8.596   5.471  65.881  1.00  0.00    -0.141 C  
BRANCH   9  10
HETATM   10  O   UNL     1      -8.828   6.851  66.198  1.00  0.00    -0.147 OA 
BRANCH  10  11
HETATM   11  C   UNL     1      -9.981   7.093  66.896  1.00  0.00    -0.224 C  
HETATM   12  O   UNL     1     -11.042   6.508  66.708  1.00  0.00    -0.362 OA 
HETATM   13  C   UNL     1      -9.751   8.255  67.929  1.00  0.00    -0.161 C  
HETATM   14  C   UNL     1     -10.028   7.713  69.347  1.00  0.00    -0.180 A  
HETATM   15  C   UNL     1     -10.692   9.458  67.556  1.00  0.00    -0.290 C  
HETATM   16  O   UNL     1      -8.385   8.695  67.882  1.00  0.00    -0.121 OA 
HETATM   17  H   UNL     1      -8.247   9.398  68.506  1.00  0.00     0.000 HD 
HETATM   18  C   UNL     1      -9.044   7.747  70.354  1.00  0.00    -0.155 A  
HETATM   19  C   UNL     1     -10.603  10.667  68.516  1.00  0.00    -0.229 C  
HETATM   20  C   UNL     1      -9.288   7.221  71.626  1.00  0.00    -0.160 A  
HETATM   21  C   UNL     1      -9.370  11.548  68.316  1.00  0.00    -0.190 C  
HETATM   22  C   UNL     1      -9.204  11.996  66.868  1.00  0.00    -0.197 C  
HETATM   23  C   UNL     1     -10.520   6.648  71.922  1.00  0.00    -0.224 A  
HETATM   24  C   UNL     1     -11.515   6.611  70.948  1.00  0.00    -0.401 A  
HETATM   25  C   UNL     1      -9.293  10.845  65.874  1.00  0.00    -0.226 C  
HETATM   26  C   UNL     1     -10.525   9.974  66.106  1.00  0.00    -0.156 C  
HETATM   27  C   UNL     1     -11.272   7.144  69.679  1.00  0.00    -0.161 A  
ENDBRANCH  10  11
ENDBRANCH   9  10
ENDBRANCH   8   9
ENDBRANCH   6   7
ENDBRANCH   3   6
ENDBRANCH   2   3
TORSDOF 7
ENDMDL
MODEL      209
REMARK 921   NORMALIZED FREE ENERGY PREDICTED BY IDOCK:   -3.21 KCAL/MOL
REMARK 922        TOTAL FREE ENERGY PREDICTED BY IDOCK:   -5.77 KCAL/MOL
REMARK 923 INTER-LIGAND FREE ENERGY PREDICTED BY IDOCK:   -5.45 KCAL/MOL
REMARK 924 INTRA-LIGAND FREE ENERGY PREDICTED BY IDOCK:   -0.32 KCAL/MOL
REMARK 927      BINDING AFFINITY PREDICTED BY RF-SCORE:    0.00 PKD
ROOT
HETATM    1  C   UNL     1      -9.534   2.337  69.402  1.00  0.00    -0.118 C  
HETATM    2  C   UNL     1      -9.354   3.466  70.415  1.00  0.00    -0.170 C  
ENDROOT
BRANCH   2   3
HETATM    3  N   UNL     1     -10.325   4.566  70.284  1.00  0.00    -0.061 NA 
BRANCH   3   4
HETATM    4  C   UNL     1     -10.526   5.336  71.523  1.00  0.00    -0.210 C  
HETATM    5  C   UNL     1      -9.505   5.120  72.635  1.00  0.00    -0.159 C  
ENDBRANCH   3   4
BRANCH   3   6
HETATM    6  C   UNL     1      -9.968   5.391  69.116  1.00  0.00    -0.197 C  
BRANCH   6   7
HETATM    7  C   UNL     1     -10.297   6.860  69.327  1.00  0.00    -0.212 C  
HETATM    8  C   UNL     1     -10.579   8.120  69.508  1.00  0.00    -0.215 C  
BRANCH   8   9
HETATM    9  C   UNL     1     -10.910   9.528  69.737  1.00  0.00    -0.243 C  
BRANCH   9  10
HETATM   10  O   UNL     1     -11.102  10.211  68.489  1.00  0.00    -0.245 OA 
BRANCH  10  11
HETATM   11  C   UNL     1      -9.957  10.697  67.918  1.00  0.00    -0.166 C  
HETATM   12  O   UNL     1      -8.823  10.410  68.287  1.00  0.00    -0.128 OA 
HETATM   13  C   UNL     1     -10.313  11.702  66.765  1.00  0.00    -0.222 C  
HETATM   14  C   UNL     1      -9.717  11.168  65.446  1.00  0.00    -0.275 A  
HETATM   15  C   UNL     1      -9.755  13.123  67.140  1.00  0.00    -0.235 C  
HETATM   16  O   UNL     1     -11.738  11.785  66.604  1.00  0.00    -0.548 OA 
HETATM   17  H   UNL     1     -11.954  12.393  65.907  1.00  0.00     0.000 HD 
HETATM   18  C   UNL     1     -10.527  10.895  64.327  1.00  0.00    -0.405 A  
HETATM   19  C   UNL     1      -9.999  14.213  66.072  1.00  0.00    -0.340 C  
HETATM   20  C   UNL     1      -9.987  10.377  63.147  1.00  0.00    -0.097 A  
HETATM   21  C   UNL     1     -11.423  14.764  66.039  1.00  0.00    -0.316 C  
HETATM   22  C   UNL     1     -11.896  15.237  67.409  1.00  0.00    -0.007 C  
HETATM   23  C   UNL     1      -8.623  10.117  63.057  1.00  0.00    -0.192 A  
HETATM   24  C   UNL     1      -7.797  10.388  64.145  1.00  0.00    -0.052 A  
HETATM   25  C   UNL     1     -11.671  14.205  68.506  1.00  0.00    -0.380 C  
HETATM   26  C   UNL     1     -10.244  13.662  68.507  1.00  0.00    -0.234 C  
HETATM   27  C   UNL     1      -8.337  10.914  65.321  1.00  0.00    -0.025 A  
ENDBRANCH  10  11
ENDBRANCH   9  10
ENDBRANCH   8   9
ENDBRANCH   6   7
ENDBRANCH   3   6
ENDBRANCH   2   3
TORSDOF 7
ENDMDL
MODEL      210
REMARK 921   NORMALIZED FREE ENERGY PREDICTED BY IDOCK:   -3.20 KCAL/MOL
REMARK 922        TOTAL FREE ENERGY PREDICTED BY IDOCK:   -5.76 KCAL/MOL
REMARK 923 INTER-LIGAND FREE ENERGY PREDICTED BY IDOCK:   -5.22 KCAL/MOL
REMARK 924 INTRA-LIGAND FREE ENERGY PREDICTED BY IDOCK:   -0.53 KCAL/MOL
REMARK 927      BINDING AFFINITY PREDICTED BY RF-SCORE:    0.00 PKD
ROOT
HETATM    1  C   UNL     1     -10.088   7.426  73.750  1.00  0.00    -0.329 C  
HETATM    2  C   UNL     1     -10.465   7.994  72.383  1.00  0.00    -0.301 C  
ENDROOT
BRANCH   2   3
HETATM    3  N   UNL     1     -11.898   8.293  72.219  1.00  0.00    -0.365 NA 
BRANCH   3   4
HETATM    4  C   UNL     1     -12.168   9.602  71.601  1.00  0.00    -0.402 C  
HETATM    5  C   UNL     1     -11.236  10.030  70.473  1.00  0.00    -0.408 C  
ENDBRANCH   3   4
BRANCH   3   6
HETATM    6  C   UNL     1     -12.555   7.162  71.540  1.00  0.00    -0.390 C  
BRANCH   6   7
HETATM    7  C   UNL     1     -11.588   6.364  70.682  1.00  0.00    -0.412 C  
HETATM    8  C   UNL     1     -10.758   5.680  69.946  1.00  0.00    -0.399 C  
BRANCH   8   9
HETATM    9  C   UNL     1      -9.808   4.905  69.142  1.00  0.00    -0.193 C  
BRANCH   9  10
HETATM   10  O   UNL     1      -9.085   5.763  68.248  1.00  0.00    -0.118 OA 
BRANCH  10  11
HETATM   11  C   UNL     1      -8.279   5.112  67.354  1.00  0.00    -0.107 C  
HETATM   12  O   UNL     1      -7.411   4.303  67.664  1.00  0.00    -0.067 OA 
HETATM   13  C   UNL     1      -8.601   5.589  65.892  1.00  0.00    -0.141 C  
HETATM   14  C   UNL     1      -9.048   4.365  65.064  1.00  0.00    -0.150 A  
HETATM   15  C   UNL     1      -7.323   6.281  65.292  1.00  0.00    -0.077 C  
HETATM   16  O   UNL     1      -9.683   6.532  65.906  1.00  0.00    -0.393 OA 
HETATM   17  H   UNL     1      -9.877   6.821  65.023  1.00  0.00     0.000 HD 
HETATM   18  C   UNL     1     -10.306   4.321  64.434  1.00  0.00    -0.069 A  
HETATM   19  C   UNL     1      -7.480   6.769  63.833  1.00  0.00    -0.094 C  
HETATM   20  C   UNL     1     -10.721   3.197  63.716  1.00  0.00    -0.202 A  
HETATM   21  C   UNL     1      -8.275   8.064  63.679  1.00  0.00    -0.040 C  
HETATM   22  C   UNL     1      -7.742   9.183  64.566  1.00  0.00    -0.114 C  
HETATM   23  C   UNL     1      -9.888   2.088  63.611  1.00  0.00    -0.128 A  
HETATM   24  C   UNL     1      -8.634   2.108  64.215  1.00  0.00    -0.088 A  
HETATM   25  C   UNL     1      -7.557   8.756  66.017  1.00  0.00    -0.093 C  
HETATM   26  C   UNL     1      -6.773   7.452  66.141  1.00  0.00    -0.053 C  
HETATM   27  C   UNL     1      -8.217   3.237  64.926  1.00  0.00    -0.090 A  
ENDBRANCH  10  11
ENDBRANCH   9  10
ENDBRANCH   8   9
ENDBRANCH   6   7
ENDBRANCH   3   6
ENDBRANCH   2   3
TORSDOF 7
ENDMDL
MODEL      211
REMARK 921   NORMALIZED FREE ENERGY PREDICTED BY IDOCK:   -3.20 KCAL/MOL
REMARK 922        TOTAL FREE ENERGY PREDICTED BY IDOCK:   -5.75 KCAL/MOL
REMARK 923 INTER-LIGAND FREE ENERGY PREDICTED BY IDOCK:   -5.11 KCAL/MOL
REMARK 924 INTRA-LIGAND FREE ENERGY PREDICTED BY IDOCK:   -0.64 KCAL/MOL
REMARK 927      BINDING AFFINITY PREDICTED BY RF-SCORE:    0.00 PKD
ROOT
HETATM    1  C   UNL     1     -10.736  19.424  67.243  1.00  0.00    -0.603 C  
HETATM    2  C   UNL     1     -10.027  18.392  68.118  1.00  0.00    -0.364 C  
ENDROOT
BRANCH   2   3
HETATM    3  N   UNL     1      -9.995  17.031  67.555  1.00  0.00    -0.266 NA 
BRANCH   3   4
HETATM    4  C   UNL     1     -10.425  15.985  68.498  1.00  0.00    -0.258 C  
HETATM    5  C   UNL     1     -11.909  15.943  68.842  1.00  0.00    -0.314 C  
ENDBRANCH   3   4
BRANCH   3   6
HETATM    6  C   UNL     1     -10.723  17.019  66.273  1.00  0.00    -0.086 C  
BRANCH   6   7
HETATM    7  C   UNL     1     -10.671  15.660  65.595  1.00  0.00    -0.376 C  
HETATM    8  C   UNL     1     -10.626  14.495  65.012  1.00  0.00    -0.458 C  
BRANCH   8   9
HETATM    9  C   UNL     1     -10.556  13.196  64.338  1.00  0.00    -0.421 C  
BRANCH   9  10
HETATM   10  O   UNL     1      -9.396  12.467  64.764  1.00  0.00     0.186 OA 
BRANCH  10  11
HETATM   11  C   UNL     1      -9.571  11.112  64.857  1.00  0.00    -0.239 C  
HETATM   12  O   UNL     1     -10.590  10.520  64.518  1.00  0.00    -0.246 OA 
HETATM   13  C   UNL     1      -8.302  10.448  65.502  1.00  0.00    -0.168 C  
HETATM   14  C   UNL     1      -7.715   9.433  64.498  1.00  0.00    -0.118 A  
HETATM   15  C   UNL     1      -8.718   9.772  66.859  1.00  0.00    -0.143 C  
HETATM   16  O   UNL     1      -7.300  11.443  65.761  1.00  0.00    -0.355 OA 
HETATM   17  H   UNL     1      -6.533  11.042  66.151  1.00  0.00     0.000 HD 
HETATM   18  C   UNL     1      -6.392   9.541  64.028  1.00  0.00    -0.099 A  
HETATM   19  C   UNL     1      -7.570   9.039  67.591  1.00  0.00    -0.093 C  
HETATM   20  C   UNL     1      -5.877   8.641  63.091  1.00  0.00    -0.078 A  
HETATM   21  C   UNL     1      -6.597   9.958  68.329  1.00  0.00    -0.055 C  
HETATM   22  C   UNL     1      -7.308  10.922  69.271  1.00  0.00    -0.125 C  
HETATM   23  C   UNL     1      -6.673   7.612  62.599  1.00  0.00    -0.072 A  
HETATM   24  C   UNL     1      -7.982   7.475  63.054  1.00  0.00    -0.111 A  
HETATM   25  C   UNL     1      -8.458  11.668  68.605  1.00  0.00    -0.094 C  
HETATM   26  C   UNL     1      -9.405  10.727  67.864  1.00  0.00    -0.154 C  
HETATM   27  C   UNL     1      -8.493   8.371  63.998  1.00  0.00    -0.003 A  
ENDBRANCH  10  11
ENDBRANCH   9  10
ENDBRANCH   8   9
ENDBRANCH   6   7
ENDBRANCH   3   6
ENDBRANCH   2   3
TORSDOF 7
ENDMDL
MODEL      212
REMARK 921   NORMALIZED FREE ENERGY PREDICTED BY IDOCK:   -3.19 KCAL/MOL
REMARK 922        TOTAL FREE ENERGY PREDICTED BY IDOCK:   -5.74 KCAL/MOL
REMARK 923 INTER-LIGAND FREE ENERGY PREDICTED BY IDOCK:   -4.62 KCAL/MOL
REMARK 924 INTRA-LIGAND FREE ENERGY PREDICTED BY IDOCK:   -1.12 KCAL/MOL
REMARK 927      BINDING AFFINITY PREDICTED BY RF-SCORE:    0.00 PKD
ROOT
HETATM    1  C   UNL     1      -6.245  12.349  69.938  1.00  0.00    -0.102 C  
HETATM    2  C   UNL     1      -5.264  11.822  68.893  1.00  0.00    -0.050 C  
ENDROOT
BRANCH   2   3
HETATM    3  N   UNL     1      -5.589  10.484  68.370  1.00  0.00    -0.037 NA 
BRANCH   3   4
HETATM    4  C   UNL     1      -6.837   9.919  68.907  1.00  0.00    -0.057 C  
HETATM    5  C   UNL     1      -6.702   8.705  69.819  1.00  0.00    -0.042 C  
ENDBRANCH   3   4
BRANCH   3   6
HETATM    6  C   UNL     1      -5.526  10.510  66.898  1.00  0.00    -0.044 C  
BRANCH   6   7
HETATM    7  C   UNL     1      -6.894  10.716  66.267  1.00  0.00    -0.133 C  
HETATM    8  C   UNL     1      -8.067  10.891  65.725  1.00  0.00    -0.094 C  
BRANCH   8   9
HETATM    9  C   UNL     1      -9.371  11.094  65.091  1.00  0.00    -0.213 C  
BRANCH   9  10
HETATM   10  O   UNL     1      -9.908  12.379  65.438  1.00  0.00    -0.252 OA 
BRANCH  10  11
HETATM   11  C   UNL     1     -10.997  12.341  66.267  1.00  0.00    -0.291 C  
HETATM   12  O   UNL     1     -12.120  11.988  65.922  1.00  0.00    -0.546 OA 
HETATM   13  C   UNL     1     -10.603  12.858  67.698  1.00  0.00    -0.223 C  
HETATM   14  C   UNL     1     -10.869  11.730  68.718  1.00  0.00    -0.268 A  
HETATM   15  C   UNL     1     -11.432  14.156  68.013  1.00  0.00    -0.342 C  
HETATM   16  O   UNL     1      -9.203  13.173  67.741  1.00  0.00    -0.186 OA 
HETATM   17  H   UNL     1      -8.965  13.486  68.606  1.00  0.00     0.000 HD 
HETATM   18  C   UNL     1      -9.843  11.217  69.533  1.00  0.00     0.231 A  
HETATM   19  C   UNL     1     -11.177  14.758  69.414  1.00  0.00    -0.308 C  
HETATM   20  C   UNL     1     -10.080  10.171  70.429  1.00  0.00    -0.052 A  
HETATM   21  C   UNL     1      -9.871  15.542  69.540  1.00  0.00    -0.284 C  
HETATM   22  C   UNL     1      -9.725  16.608  68.460  1.00  0.00    -0.244 C  
HETATM   23  C   UNL     1     -11.350   9.612  70.531  1.00  0.00    -0.360 A  
HETATM   24  C   UNL     1     -12.387  10.108  69.744  1.00  0.00     0.084 A  
HETATM   25  C   UNL     1      -9.976  16.073  67.056  1.00  0.00    -0.257 C  
HETATM   26  C   UNL     1     -11.280  15.283  66.963  1.00  0.00    -0.275 C  
HETATM   27  C   UNL     1     -12.149  11.160  68.854  1.00  0.00    -0.276 A  
ENDBRANCH  10  11
ENDBRANCH   9  10
ENDBRANCH   8   9
ENDBRANCH   6   7
ENDBRANCH   3   6
ENDBRANCH   2   3
TORSDOF 7
ENDMDL
MODEL      213
REMARK 921   NORMALIZED FREE ENERGY PREDICTED BY IDOCK:   -3.18 KCAL/MOL
REMARK 922        TOTAL FREE ENERGY PREDICTED BY IDOCK:   -5.72 KCAL/MOL
REMARK 923 INTER-LIGAND FREE ENERGY PREDICTED BY IDOCK:   -5.31 KCAL/MOL
REMARK 924 INTRA-LIGAND FREE ENERGY PREDICTED BY IDOCK:   -0.41 KCAL/MOL
REMARK 927      BINDING AFFINITY PREDICTED BY RF-SCORE:    0.00 PKD
ROOT
HETATM    1  C   UNL     1      -9.097  10.487  64.760  1.00  0.00    -0.242 C  
HETATM    2  C   UNL     1      -9.977   9.832  65.822  1.00  0.00    -0.279 C  
ENDROOT
BRANCH   2   3
HETATM    3  N   UNL     1      -9.787  10.360  67.185  1.00  0.00    -0.175 NA 
BRANCH   3   4
HETATM    4  C   UNL     1      -9.013  11.611  67.238  1.00  0.00    -0.169 C  
HETATM    5  C   UNL     1      -7.797  11.623  68.157  1.00  0.00    -0.133 C  
ENDBRANCH   3   4
BRANCH   3   6
HETATM    6  C   UNL     1     -11.093  10.433  67.863  1.00  0.00    -0.299 C  
BRANCH   6   7
HETATM    7  C   UNL     1     -11.017   9.978  69.311  1.00  0.00    -0.264 C  
HETATM    8  C   UNL     1     -10.951   9.587  70.553  1.00  0.00    -0.348 C  
BRANCH   8   9
HETATM    9  C   UNL     1     -10.884   9.121  71.940  1.00  0.00    -0.283 C  
BRANCH   9  10
HETATM   10  O   UNL     1     -11.824   8.060  72.162  1.00  0.00    -0.309 OA 
BRANCH  10  11
HETATM   11  C   UNL     1     -11.830   7.086  71.199  1.00  0.00    -0.338 C  
HETATM   12  O   UNL     1     -12.779   6.848  70.460  1.00  0.00    -0.152 OA 
HETATM   13  C   UNL     1     -10.470   6.300  71.220  1.00  0.00    -0.218 C  
HETATM   14  C   UNL     1      -9.795   6.452  69.840  1.00  0.00    -0.191 A  
HETATM   15  C   UNL     1     -10.758   4.798  71.582  1.00  0.00    -0.009 C  
HETATM   16  O   UNL     1      -9.590   6.860  72.206  1.00  0.00    -0.148 OA 
HETATM   17  H   UNL     1      -8.768   6.385  72.219  1.00  0.00     0.000 HD 
HETATM   18  C   UNL     1      -8.510   7.011  69.705  1.00  0.00    -0.134 A  
HETATM   19  C   UNL     1      -9.508   3.889  71.600  1.00  0.00    -0.220 C  
HETATM   20  C   UNL     1      -7.918   7.179  68.450  1.00  0.00    -0.124 A  
HETATM   21  C   UNL     1      -8.632   4.037  72.843  1.00  0.00    -0.099 C  
HETATM   22  C   UNL     1      -9.426   3.887  74.136  1.00  0.00    -0.114 C  
HETATM   23  C   UNL     1      -8.597   6.793  67.299  1.00  0.00    -0.120 A  
HETATM   24  C   UNL     1      -9.865   6.227  67.404  1.00  0.00    -0.154 A  
HETATM   25  C   UNL     1     -10.678   4.755  74.170  1.00  0.00    -0.329 C  
HETATM   26  C   UNL     1     -11.526   4.597  72.911  1.00  0.00    -0.166 C  
HETATM   27  C   UNL     1     -10.452   6.052  68.661  1.00  0.00    -0.297 A  
ENDBRANCH  10  11
ENDBRANCH   9  10
ENDBRANCH   8   9
ENDBRANCH   6   7
ENDBRANCH   3   6
ENDBRANCH   2   3
TORSDOF 7
ENDMDL
MODEL      214
REMARK 921   NORMALIZED FREE ENERGY PREDICTED BY IDOCK:   -3.17 KCAL/MOL
REMARK 922        TOTAL FREE ENERGY PREDICTED BY IDOCK:   -5.71 KCAL/MOL
REMARK 923 INTER-LIGAND FREE ENERGY PREDICTED BY IDOCK:   -4.80 KCAL/MOL
REMARK 924 INTRA-LIGAND FREE ENERGY PREDICTED BY IDOCK:   -0.91 KCAL/MOL
REMARK 927      BINDING AFFINITY PREDICTED BY RF-SCORE:    0.00 PKD
ROOT
HETATM    1  C   UNL     1     -10.721  10.907  67.044  1.00  0.00    -0.323 C  
HETATM    2  C   UNL     1      -9.564  11.576  66.306  1.00  0.00    -0.218 C  
ENDROOT
BRANCH   2   3
HETATM    3  N   UNL     1      -8.226  11.172  66.772  1.00  0.00    -0.148 NA 
BRANCH   3   4
HETATM    4  C   UNL     1      -8.188  10.743  68.180  1.00  0.00    -0.119 C  
HETATM    5  C   UNL     1      -7.108  11.367  69.056  1.00  0.00    -0.117 C  
ENDBRANCH   3   4
BRANCH   3   6
HETATM    6  C   UNL     1      -7.660  10.190  65.831  1.00  0.00    -0.128 C  
BRANCH   6   7
HETATM    7  C   UNL     1      -7.730   8.770  66.368  1.00  0.00    -0.099 C  
HETATM    8  C   UNL     1      -7.792   7.552  66.829  1.00  0.00    -0.110 C  
BRANCH   8   9
HETATM    9  C   UNL     1      -7.855   6.194  67.374  1.00  0.00    -0.098 C  
BRANCH   9  10
HETATM   10  O   UNL     1      -8.104   6.227  68.787  1.00  0.00    -0.107 OA 
BRANCH  10  11
HETATM   11  C   UNL     1      -9.080   5.369  69.218  1.00  0.00    -0.108 C  
HETATM   12  O   UNL     1      -9.618   4.521  68.515  1.00  0.00    -0.144 OA 
HETATM   13  C   UNL     1      -9.434   5.667  70.720  1.00  0.00    -0.165 C  
HETATM   14  C   UNL     1      -9.156   4.396  71.550  1.00  0.00    -0.177 A  
HETATM   15  C   UNL     1     -10.936   6.120  70.806  1.00  0.00    -0.365 C  
HETATM   16  O   UNL     1      -8.597   6.717  71.226  1.00  0.00    -0.124 OA 
HETATM   17  H   UNL     1      -8.811   6.897  72.134  1.00  0.00     0.000 HD 
HETATM   18  C   UNL     1      -8.254   4.403  72.631  1.00  0.00    -0.105 A  
HETATM   19  C   UNL     1     -11.440   6.410  72.239  1.00  0.00    -0.339 C  
HETATM   20  C   UNL     1      -7.979   3.241  73.357  1.00  0.00    -0.070 A  
HETATM   21  C   UNL     1     -10.986   7.751  72.813  1.00  0.00    -0.447 C  
HETATM   22  C   UNL     1     -11.301   8.919  71.884  1.00  0.00    -0.446 C  
HETATM   23  C   UNL     1      -8.599   2.043  73.019  1.00  0.00    -0.062 A  
HETATM   24  C   UNL     1      -9.504   2.009  71.962  1.00  0.00    -0.174 A  
HETATM   25  C   UNL     1     -10.835   8.684  70.453  1.00  0.00    -0.250 C  
HETATM   26  C   UNL     1     -11.291   7.332  69.910  1.00  0.00    -0.145 C  
HETATM   27  C   UNL     1      -9.784   3.174  71.242  1.00  0.00    -0.215 A  
ENDBRANCH  10  11
ENDBRANCH   9  10
ENDBRANCH   8   9
ENDBRANCH   6   7
ENDBRANCH   3   6
ENDBRANCH   2   3
TORSDOF 7
ENDMDL
MODEL      215
REMARK 921   NORMALIZED FREE ENERGY PREDICTED BY IDOCK:   -3.16 KCAL/MOL
REMARK 922        TOTAL FREE ENERGY PREDICTED BY IDOCK:   -5.70 KCAL/MOL
REMARK 923 INTER-LIGAND FREE ENERGY PREDICTED BY IDOCK:   -4.61 KCAL/MOL
REMARK 924 INTRA-LIGAND FREE ENERGY PREDICTED BY IDOCK:   -1.09 KCAL/MOL
REMARK 927      BINDING AFFINITY PREDICTED BY RF-SCORE:    0.00 PKD
ROOT
HETATM    1  C   UNL     1      -9.531  11.096  63.232  1.00  0.00    -0.346 C  
HETATM    2  C   UNL     1     -10.398  11.009  64.486  1.00  0.00    -0.354 C  
ENDROOT
BRANCH   2   3
HETATM    3  N   UNL     1     -10.895  12.306  64.978  1.00  0.00    -0.287 NA 
BRANCH   3   4
HETATM    4  C   UNL     1     -12.343  12.498  64.797  1.00  0.00    -0.474 C  
HETATM    5  C   UNL     1     -12.909  12.171  63.420  1.00  0.00    -0.406 C  
ENDBRANCH   3   4
BRANCH   3   6
HETATM    6  C   UNL     1     -10.431  12.510  66.362  1.00  0.00    -0.247 C  
BRANCH   6   7
HETATM    7  C   UNL     1     -10.275  11.199  67.116  1.00  0.00    -0.235 C  
HETATM    8  C   UNL     1     -10.139  10.076  67.763  1.00  0.00    -0.222 C  
BRANCH   8   9
HETATM    9  C   UNL     1      -9.964   8.806  68.473  1.00  0.00    -0.182 C  
BRANCH   9  10
HETATM   10  O   UNL     1      -9.903   7.713  67.546  1.00  0.00    -0.147 OA 
BRANCH  10  11
HETATM   11  C   UNL     1      -8.755   6.969  67.610  1.00  0.00    -0.121 C  
HETATM   12  O   UNL     1      -8.356   6.394  68.617  1.00  0.00    -0.119 OA 
HETATM   13  C   UNL     1      -8.011   7.007  66.226  1.00  0.00    -0.114 C  
HETATM   14  C   UNL     1      -7.891   5.563  65.695  1.00  0.00    -0.101 A  
HETATM   15  C   UNL     1      -6.609   7.689  66.423  1.00  0.00    -0.050 C  
HETATM   16  O   UNL     1      -8.773   7.766  65.275  1.00  0.00    -0.330 OA 
HETATM   17  H   UNL     1      -8.324   7.789  64.439  1.00  0.00     0.000 HD 
HETATM   18  C   UNL     1      -8.432   5.188  64.450  1.00  0.00    -0.138 A  
HETATM   19  C   UNL     1      -5.742   7.761  65.145  1.00  0.00    -0.037 C  
HETATM   20  C   UNL     1      -8.352   3.871  63.990  1.00  0.00    -0.092 A  
HETATM   21  C   UNL     1      -6.154   8.853  64.158  1.00  0.00    -0.071 C  
HETATM   22  C   UNL     1      -6.256  10.224  64.817  1.00  0.00    -0.124 C  
HETATM   23  C   UNL     1      -7.730   2.896  64.763  1.00  0.00    -0.077 A  
HETATM   24  C   UNL     1      -7.176   3.241  65.993  1.00  0.00    -0.071 A  
HETATM   25  C   UNL     1      -7.092  10.212  66.090  1.00  0.00    -0.114 C  
HETATM   26  C   UNL     1      -6.668   9.103  67.050  1.00  0.00    -0.072 C  
HETATM   27  C   UNL     1      -7.250   4.561  66.449  1.00  0.00    -0.076 A  
ENDBRANCH  10  11
ENDBRANCH   9  10
ENDBRANCH   8   9
ENDBRANCH   6   7
ENDBRANCH   3   6
ENDBRANCH   2   3
TORSDOF 7
ENDMDL
MODEL      216
REMARK 921   NORMALIZED FREE ENERGY PREDICTED BY IDOCK:   -3.15 KCAL/MOL
REMARK 922        TOTAL FREE ENERGY PREDICTED BY IDOCK:   -5.68 KCAL/MOL
REMARK 923 INTER-LIGAND FREE ENERGY PREDICTED BY IDOCK:   -5.33 KCAL/MOL
REMARK 924 INTRA-LIGAND FREE ENERGY PREDICTED BY IDOCK:   -0.35 KCAL/MOL
REMARK 927      BINDING AFFINITY PREDICTED BY RF-SCORE:    0.00 PKD
ROOT
HETATM    1  C   UNL     1     -12.335  16.079  74.362  1.00  0.00    -0.713 C  
HETATM    2  C   UNL     1     -12.846  16.203  72.928  1.00  0.00    -0.390 C  
ENDROOT
BRANCH   2   3
HETATM    3  N   UNL     1     -12.122  15.378  71.946  1.00  0.00    -0.350 NA 
BRANCH   3   4
HETATM    4  C   UNL     1     -12.341  13.931  72.106  1.00  0.00     0.046 C  
HETATM    5  C   UNL     1     -13.774  13.482  72.371  1.00  0.00    -0.704 C  
ENDBRANCH   3   4
BRANCH   3   6
HETATM    6  C   UNL     1     -12.400  15.881  70.590  1.00  0.00    -0.273 C  
BRANCH   6   7
HETATM    7  C   UNL     1     -12.292  14.791  69.537  1.00  0.00    -0.214 C  
HETATM    8  C   UNL     1     -12.199  13.854  68.635  1.00  0.00    -0.213 C  
BRANCH   8   9
HETATM    9  C   UNL     1     -12.080  12.786  67.640  1.00  0.00    -0.140 C  
BRANCH   9  10
HETATM   10  O   UNL     1     -10.841  12.080  67.801  1.00  0.00    -0.201 OA 
BRANCH  10  11
HETATM   11  C   UNL     1      -9.768  12.654  67.175  1.00  0.00    -0.211 C  
HETATM   12  O   UNL     1      -9.824  13.678  66.502  1.00  0.00    -0.276 OA 
HETATM   13  C   UNL     1      -8.479  11.785  67.407  1.00  0.00    -0.158 C  
HETATM   14  C   UNL     1      -7.426  12.652  68.128  1.00  0.00    -0.122 A  
HETATM   15  C   UNL     1      -7.968  11.256  66.019  1.00  0.00     0.020 C  
HETATM   16  O   UNL     1      -8.785  10.666  68.253  1.00  0.00    -0.125 OA 
HETATM   17  H   UNL     1      -8.006  10.140  68.393  1.00  0.00     0.000 HD 
HETATM   18  C   UNL     1      -6.891  12.278  69.375  1.00  0.00     0.007 A  
HETATM   19  C   UNL     1      -6.675  10.412  66.088  1.00  0.00    -0.117 C  
HETATM   20  C   UNL     1      -5.964  13.085  70.041  1.00  0.00    -0.140 A  
HETATM   21  C   UNL     1      -6.876   8.979  66.578  1.00  0.00    -0.079 C  
HETATM   22  C   UNL     1      -7.958   8.243  65.796  1.00  0.00    -0.099 C  
HETATM   23  C   UNL     1      -5.550  14.287  69.476  1.00  0.00    -0.093 A  
HETATM   24  C   UNL     1      -6.056  14.677  68.238  1.00  0.00    -0.117 A  
HETATM   25  C   UNL     1      -9.256   9.033  65.686  1.00  0.00    -0.288 C  
HETATM   26  C   UNL     1      -9.023  10.464  65.208  1.00  0.00    -0.212 C  
HETATM   27  C   UNL     1      -6.976  13.865  67.570  1.00  0.00    -0.162 A  
ENDBRANCH  10  11
ENDBRANCH   9  10
ENDBRANCH   8   9
ENDBRANCH   6   7
ENDBRANCH   3   6
ENDBRANCH   2   3
TORSDOF 7
ENDMDL
MODEL      217
REMARK 921   NORMALIZED FREE ENERGY PREDICTED BY IDOCK:   -3.13 KCAL/MOL
REMARK 922        TOTAL FREE ENERGY PREDICTED BY IDOCK:   -5.65 KCAL/MOL
REMARK 923 INTER-LIGAND FREE ENERGY PREDICTED BY IDOCK:   -5.44 KCAL/MOL
REMARK 924 INTRA-LIGAND FREE ENERGY PREDICTED BY IDOCK:   -0.22 KCAL/MOL
REMARK 927      BINDING AFFINITY PREDICTED BY RF-SCORE:    0.00 PKD
ROOT
HETATM    1  C   UNL     1     -10.424   7.253  73.703  1.00  0.00    -0.391 C  
HETATM    2  C   UNL     1      -8.943   7.082  74.033  1.00  0.00    -0.195 C  
ENDROOT
BRANCH   2   3
HETATM    3  N   UNL     1      -8.095   6.739  72.878  1.00  0.00    -0.105 NA 
BRANCH   3   4
HETATM    4  C   UNL     1      -7.346   5.482  73.039  1.00  0.00    -0.092 C  
HETATM    5  C   UNL     1      -5.928   5.596  73.587  1.00  0.00    -0.055 C  
ENDBRANCH   3   4
BRANCH   3   6
HETATM    6  C   UNL     1      -8.902   6.803  71.647  1.00  0.00    -0.129 C  
BRANCH   6   7
HETATM    7  C   UNL     1      -8.769   8.141  70.939  1.00  0.00    -0.152 C  
HETATM    8  C   UNL     1      -8.654   9.289  70.331  1.00  0.00    -0.250 C  
BRANCH   8   9
HETATM    9  C   UNL     1      -8.495  10.577  69.652  1.00  0.00     0.033 C  
BRANCH   9  10
HETATM   10  O   UNL     1      -8.411  10.392  68.231  1.00  0.00    -0.117 OA 
BRANCH  10  11
HETATM   11  C   UNL     1      -9.601  10.515  67.565  1.00  0.00    -0.160 C  
HETATM   12  O   UNL     1     -10.683  10.136  68.001  1.00  0.00    -0.223 OA 
HETATM   13  C   UNL     1      -9.364  11.166  66.154  1.00  0.00    -0.206 C  
HETATM   14  C   UNL     1     -10.175  12.477  66.076  1.00  0.00    -0.269 A  
HETATM   15  C   UNL     1      -9.787  10.136  65.045  1.00  0.00    -0.392 C  
HETATM   16  O   UNL     1      -7.976  11.493  65.988  1.00  0.00    -0.367 OA 
HETATM   17  H   UNL     1      -7.833  11.885  65.135  1.00  0.00     0.000 HD 
HETATM   18  C   UNL     1      -9.552  13.714  65.826  1.00  0.00    -0.086 A  
HETATM   19  C   UNL     1      -9.645  10.656  63.596  1.00  0.00    -0.360 C  
HETATM   20  C   UNL     1     -10.285  14.904  65.793  1.00  0.00    -0.358 A  
HETATM   21  C   UNL     1      -8.213  10.669  63.062  1.00  0.00    -0.103 C  
HETATM   22  C   UNL     1      -7.522   9.319  63.220  1.00  0.00    -0.103 C  
HETATM   23  C   UNL     1     -11.659  14.885  66.009  1.00  0.00    -0.226 A  
HETATM   24  C   UNL     1     -12.302  13.673  66.248  1.00  0.00    -0.464 A  
HETATM   25  C   UNL     1      -7.638   8.751  64.629  1.00  0.00    -0.109 C  
HETATM   26  C   UNL     1      -9.076   8.764  65.141  1.00  0.00    -0.104 C  
HETATM   27  C   UNL     1     -11.569  12.484  66.274  1.00  0.00    -0.449 A  
ENDBRANCH  10  11
ENDBRANCH   9  10
ENDBRANCH   8   9
ENDBRANCH   6   7
ENDBRANCH   3   6
ENDBRANCH   2   3
TORSDOF 7
ENDMDL
MODEL      218
REMARK 921   NORMALIZED FREE ENERGY PREDICTED BY IDOCK:   -3.12 KCAL/MOL
REMARK 922        TOTAL FREE ENERGY PREDICTED BY IDOCK:   -5.65 KCAL/MOL
REMARK 923 INTER-LIGAND FREE ENERGY PREDICTED BY IDOCK:   -3.98 KCAL/MOL
REMARK 924 INTRA-LIGAND FREE ENERGY PREDICTED BY IDOCK:   -1.67 KCAL/MOL
REMARK 927      BINDING AFFINITY PREDICTED BY RF-SCORE:    0.00 PKD
ROOT
HETATM    1  C   UNL     1      -8.498   5.532  64.572  1.00  0.00    -0.094 C  
HETATM    2  C   UNL     1      -7.060   5.627  65.077  1.00  0.00    -0.064 C  
ENDROOT
BRANCH   2   3
HETATM    3  N   UNL     1      -6.907   6.333  66.361  1.00  0.00    -0.060 NA 
BRANCH   3   4
HETATM    4  C   UNL     1      -6.540   5.456  67.485  1.00  0.00    -0.053 C  
HETATM    5  C   UNL     1      -6.249   3.998  67.147  1.00  0.00    -0.036 C  
ENDBRANCH   3   4
BRANCH   3   6
HETATM    6  C   UNL     1      -6.004   7.483  66.177  1.00  0.00    -0.037 C  
BRANCH   6   7
HETATM    7  C   UNL     1      -6.526   8.466  65.143  1.00  0.00    -0.056 C  
HETATM    8  C   UNL     1      -6.973   9.309  64.255  1.00  0.00    -0.097 C  
BRANCH   8   9
HETATM    9  C   UNL     1      -7.448  10.268  63.254  1.00  0.00    -0.113 C  
BRANCH   9  10
HETATM   10  O   UNL     1      -8.358  11.207  63.846  1.00  0.00     0.190 OA 
BRANCH  10  11
HETATM   11  C   UNL     1      -9.478  10.650  64.401  1.00  0.00    -0.269 C  
HETATM   12  O   UNL     1     -10.257   9.915  63.802  1.00  0.00     0.461 OA 
HETATM   13  C   UNL     1      -9.638  11.128  65.889  1.00  0.00    -0.218 C  
HETATM   14  C   UNL     1      -9.617   9.888  66.808  1.00  0.00    -0.231 A  
HETATM   15  C   UNL     1     -10.975  11.944  66.018  1.00  0.00    -0.355 C  
HETATM   16  O   UNL     1      -8.536  11.971  66.258  1.00  0.00    -0.378 OA 
HETATM   17  H   UNL     1      -8.632  12.260  67.157  1.00  0.00     0.000 HD 
HETATM   18  C   UNL     1      -8.662   9.746  67.832  1.00  0.00    -0.125 A  
HETATM   19  C   UNL     1     -11.286  12.448  67.446  1.00  0.00    -0.381 C  
HETATM   20  C   UNL     1      -8.625   8.605  68.638  1.00  0.00    -0.131 A  
HETATM   21  C   UNL     1     -10.479  13.671  67.879  1.00  0.00    -0.249 C  
HETATM   22  C   UNL     1     -10.568  14.813  66.873  1.00  0.00    -0.294 C  
HETATM   23  C   UNL     1      -9.540   7.577  68.438  1.00  0.00    -0.152 A  
HETATM   24  C   UNL     1     -10.503   7.696  67.438  1.00  0.00    -0.367 A  
HETATM   25  C   UNL     1     -10.280  14.372  65.444  1.00  0.00    -0.408 C  
HETATM   26  C   UNL     1     -11.090  13.141  65.043  1.00  0.00    -0.322 C  
HETATM   27  C   UNL     1     -10.544   8.842  66.639  1.00  0.00    -0.141 A  
ENDBRANCH  10  11
ENDBRANCH   9  10
ENDBRANCH   8   9
ENDBRANCH   6   7
ENDBRANCH   3   6
ENDBRANCH   2   3
TORSDOF 7
ENDMDL
MODEL      219
REMARK 921   NORMALIZED FREE ENERGY PREDICTED BY IDOCK:   -3.12 KCAL/MOL
REMARK 922        TOTAL FREE ENERGY PREDICTED BY IDOCK:   -5.64 KCAL/MOL
REMARK 923 INTER-LIGAND FREE ENERGY PREDICTED BY IDOCK:   -4.76 KCAL/MOL
REMARK 924 INTRA-LIGAND FREE ENERGY PREDICTED BY IDOCK:   -0.89 KCAL/MOL
REMARK 927      BINDING AFFINITY PREDICTED BY RF-SCORE:    0.00 PKD
ROOT
HETATM    1  C   UNL     1     -11.316  14.828  65.908  1.00  0.00    -0.331 C  
HETATM    2  C   UNL     1     -10.494  13.648  66.422  1.00  0.00    -0.288 C  
ENDROOT
BRANCH   2   3
HETATM    3  N   UNL     1      -9.084  13.962  66.708  1.00  0.00    -0.243 NA 
BRANCH   3   4
HETATM    4  C   UNL     1      -8.890  15.226  67.438  1.00  0.00    -0.179 C  
HETATM    5  C   UNL     1      -7.468  15.544  67.888  1.00  0.00    -0.150 C  
ENDBRANCH   3   4
BRANCH   3   6
HETATM    6  C   UNL     1      -8.447  12.797  67.347  1.00  0.00    -0.191 C  
BRANCH   6   7
HETATM    7  C   UNL     1      -9.430  11.985  68.175  1.00  0.00    -0.200 C  
HETATM    8  C   UNL     1     -10.273  11.289  68.884  1.00  0.00    -0.195 C  
BRANCH   8   9
HETATM    9  C   UNL     1     -11.243  10.524  69.672  1.00  0.00    -0.282 C  
BRANCH   9  10
HETATM   10  O   UNL     1     -10.881   9.136  69.711  1.00  0.00    -0.228 OA 
BRANCH  10  11
HETATM   11  C   UNL     1     -10.304   8.725  70.882  1.00  0.00    -0.223 C  
HETATM   12  O   UNL     1     -10.616   9.143  71.993  1.00  0.00    -0.333 OA 
HETATM   13  C   UNL     1      -9.163   7.686  70.587  1.00  0.00    -0.162 C  
HETATM   14  C   UNL     1      -9.510   6.361  71.298  1.00  0.00    -0.175 A  
HETATM   15  C   UNL     1      -7.794   8.285  71.074  1.00  0.00    -0.097 C  
HETATM   16  O   UNL     1      -9.086   7.425  69.177  1.00  0.00    -0.135 OA 
HETATM   17  H   UNL     1      -8.396   6.797  68.998  1.00  0.00     0.000 HD 
HETATM   18  C   UNL     1      -9.649   5.156  70.584  1.00  0.00    -0.242 A  
HETATM   19  C   UNL     1      -6.577   7.350  70.882  1.00  0.00    -0.043 C  
HETATM   20  C   UNL     1      -9.998   3.966  71.228  1.00  0.00    -0.183 A  
HETATM   21  C   UNL     1      -6.053   7.275  69.449  1.00  0.00    -0.030 C  
HETATM   22  C   UNL     1      -5.772   8.653  68.859  1.00  0.00    -0.040 C  
HETATM   23  C   UNL     1     -10.219   3.953  72.602  1.00  0.00    -0.235 A  
HETATM   24  C   UNL     1     -10.077   5.128  73.334  1.00  0.00    -0.203 A  
HETATM   25  C   UNL     1      -6.935   9.622  69.028  1.00  0.00    -0.058 C  
HETATM   26  C   UNL     1      -7.447   9.666  70.466  1.00  0.00    -0.147 C  
HETATM   27  C   UNL     1      -9.720   6.316  72.690  1.00  0.00    -0.164 A  
ENDBRANCH  10  11
ENDBRANCH   9  10
ENDBRANCH   8   9
ENDBRANCH   6   7
ENDBRANCH   3   6
ENDBRANCH   2   3
TORSDOF 7
ENDMDL
MODEL      220
REMARK 921   NORMALIZED FREE ENERGY PREDICTED BY IDOCK:   -3.12 KCAL/MOL
REMARK 922        TOTAL FREE ENERGY PREDICTED BY IDOCK:   -5.64 KCAL/MOL
REMARK 923 INTER-LIGAND FREE ENERGY PREDICTED BY IDOCK:   -5.07 KCAL/MOL
REMARK 924 INTRA-LIGAND FREE ENERGY PREDICTED BY IDOCK:   -0.57 KCAL/MOL
REMARK 927      BINDING AFFINITY PREDICTED BY RF-SCORE:    0.00 PKD
ROOT
HETATM    1  C   UNL     1      -8.799   9.542  69.881  1.00  0.00    -0.227 C  
HETATM    2  C   UNL     1     -10.123   9.597  69.121  1.00  0.00    -0.189 C  
ENDROOT
BRANCH   2   3
HETATM    3  N   UNL     1     -11.286   9.113  69.884  1.00  0.00    -0.106 NA 
BRANCH   3   4
HETATM    4  C   UNL     1     -11.174   7.711  70.319  1.00  0.00    -0.216 C  
HETATM    5  C   UNL     1     -11.173   7.459  71.823  1.00  0.00    -0.277 C  
ENDBRANCH   3   4
BRANCH   3   6
HETATM    6  C   UNL     1     -11.578  10.058  70.977  1.00  0.00    -0.393 C  
BRANCH   6   7
HETATM    7  C   UNL     1     -11.914  11.448  70.461  1.00  0.00    -0.451 C  
HETATM    8  C   UNL     1     -12.203  12.640  70.020  1.00  0.00    -0.267 C  
BRANCH   8   9
HETATM    9  C   UNL     1     -12.552  13.968  69.510  1.00  0.00     0.049 C  
BRANCH   9  10
HETATM   10  O   UNL     1     -11.472  14.513  68.738  1.00  0.00    -0.264 OA 
BRANCH  10  11
HETATM   11  C   UNL     1     -10.390  14.919  69.472  1.00  0.00    -0.155 C  
HETATM   12  O   UNL     1     -10.337  14.903  70.697  1.00  0.00     0.091 OA 
HETATM   13  C   UNL     1      -9.259  15.448  68.518  1.00  0.00    -0.198 C  
HETATM   14  C   UNL     1      -7.995  14.590  68.733  1.00  0.00    -0.142 A  
HETATM   15  C   UNL     1      -9.008  16.969  68.825  1.00  0.00    -0.249 C  
HETATM   16  O   UNL     1      -9.663  15.306  67.148  1.00  0.00    -0.214 OA 
HETATM   17  H   UNL     1      -8.979  15.626  66.571  1.00  0.00     0.000 HD 
HETATM   18  C   UNL     1      -7.399  13.877  67.676  1.00  0.00    -0.186 A  
HETATM   19  C   UNL     1      -7.886  17.619  67.983  1.00  0.00    -0.235 C  
HETATM   20  C   UNL     1      -6.276  13.072  67.883  1.00  0.00    -0.134 A  
HETATM   21  C   UNL     1      -8.283  17.958  66.547  1.00  0.00    -0.298 C  
HETATM   22  C   UNL     1      -9.559  18.789  66.477  1.00  0.00    -0.369 C  
HETATM   23  C   UNL     1      -5.720  12.961  69.153  1.00  0.00    -0.076 A  
HETATM   24  C   UNL     1      -6.282  13.664  70.216  1.00  0.00    -0.071 A  
HETATM   25  C   UNL     1     -10.699  18.201  67.298  1.00  0.00    -0.336 C  
HETATM   26  C   UNL     1     -10.270  17.859  68.723  1.00  0.00    -0.362 C  
HETATM   27  C   UNL     1      -7.402  14.474  70.005  1.00  0.00     0.205 A  
ENDBRANCH  10  11
ENDBRANCH   9  10
ENDBRANCH   8   9
ENDBRANCH   6   7
ENDBRANCH   3   6
ENDBRANCH   2   3
TORSDOF 7
ENDMDL
MODEL      221
REMARK 921   NORMALIZED FREE ENERGY PREDICTED BY IDOCK:   -3.11 KCAL/MOL
REMARK 922        TOTAL FREE ENERGY PREDICTED BY IDOCK:   -5.63 KCAL/MOL
REMARK 923 INTER-LIGAND FREE ENERGY PREDICTED BY IDOCK:   -5.07 KCAL/MOL
REMARK 924 INTRA-LIGAND FREE ENERGY PREDICTED BY IDOCK:   -0.56 KCAL/MOL
REMARK 927      BINDING AFFINITY PREDICTED BY RF-SCORE:    0.00 PKD
ROOT
HETATM    1  C   UNL     1     -11.198  16.045  64.648  1.00  0.00    -0.340 C  
HETATM    2  C   UNL     1     -10.630  14.682  65.034  1.00  0.00    -0.439 C  
ENDROOT
BRANCH   2   3
HETATM    3  N   UNL     1     -11.585  13.566  64.921  1.00  0.00    -0.324 NA 
BRANCH   3   4
HETATM    4  C   UNL     1     -11.276  12.623  63.833  1.00  0.00    -0.442 C  
HETATM    5  C   UNL     1     -12.461  12.073  63.048  1.00  0.00    -0.156 C  
ENDBRANCH   3   4
BRANCH   3   6
HETATM    6  C   UNL     1     -11.746  12.929  66.239  1.00  0.00    -0.399 C  
BRANCH   6   7
HETATM    7  C   UNL     1     -10.793  11.761  66.435  1.00  0.00    -0.325 C  
HETATM    8  C   UNL     1      -9.976  10.759  66.601  1.00  0.00    -0.251 C  
BRANCH   8   9
HETATM    9  C   UNL     1      -9.079   9.615  66.781  1.00  0.00    -0.146 C  
BRANCH   9  10
HETATM   10  O   UNL     1      -9.434   8.874  67.958  1.00  0.00    -0.141 OA 
BRANCH  10  11
HETATM   11  C   UNL     1      -8.395   8.211  68.554  1.00  0.00    -0.126 C  
HETATM   12  O   UNL     1      -7.313   8.721  68.828  1.00  0.00    -0.080 OA 
HETATM   13  C   UNL     1      -8.778   6.706  68.787  1.00  0.00    -0.128 C  
HETATM   14  C   UNL     1      -8.703   6.408  70.299  1.00  0.00    -0.143 A  
HETATM   15  C   UNL     1      -7.803   5.800  67.950  1.00  0.00    -0.097 C  
HETATM   16  O   UNL     1     -10.127   6.467  68.356  1.00  0.00    -0.141 OA 
HETATM   17  H   UNL     1     -10.359   5.557  68.496  1.00  0.00     0.000 HD 
HETATM   18  C   UNL     1      -9.820   5.936  71.014  1.00  0.00    -0.225 A  
HETATM   19  C   UNL     1      -8.038   4.280  68.113  1.00  0.00    -0.089 C  
HETATM   20  C   UNL     1      -9.756   5.703  72.391  1.00  0.00    -0.177 A  
HETATM   21  C   UNL     1      -9.236   3.735  67.337  1.00  0.00    -0.212 C  
HETATM   22  C   UNL     1      -9.198   4.119  65.862  1.00  0.00    -0.148 C  
HETATM   23  C   UNL     1      -8.574   5.936  73.086  1.00  0.00    -0.119 A  
HETATM   24  C   UNL     1      -7.450   6.393  72.402  1.00  0.00    -0.096 A  
HETATM   25  C   UNL     1      -8.959   5.607  65.640  1.00  0.00    -0.139 C  
HETATM   26  C   UNL     1      -7.765   6.127  66.438  1.00  0.00    -0.102 C  
HETATM   27  C   UNL     1      -7.513   6.618  71.023  1.00  0.00    -0.084 A  
ENDBRANCH  10  11
ENDBRANCH   9  10
ENDBRANCH   8   9
ENDBRANCH   6   7
ENDBRANCH   3   6
ENDBRANCH   2   3
TORSDOF 7
ENDMDL
MODEL      222
REMARK 921   NORMALIZED FREE ENERGY PREDICTED BY IDOCK:   -3.09 KCAL/MOL
REMARK 922        TOTAL FREE ENERGY PREDICTED BY IDOCK:   -5.60 KCAL/MOL
REMARK 923 INTER-LIGAND FREE ENERGY PREDICTED BY IDOCK:   -5.21 KCAL/MOL
REMARK 924 INTRA-LIGAND FREE ENERGY PREDICTED BY IDOCK:   -0.39 KCAL/MOL
REMARK 927      BINDING AFFINITY PREDICTED BY RF-SCORE:    0.00 PKD
ROOT
HETATM    1  C   UNL     1     -11.459  14.474  70.137  1.00  0.00    -0.297 C  
HETATM    2  C   UNL     1     -12.537  13.394  70.202  1.00  0.00    -0.077 C  
ENDROOT
BRANCH   2   3
HETATM    3  N   UNL     1     -12.909  12.982  71.567  1.00  0.00    -0.338 NA 
BRANCH   3   4
HETATM    4  C   UNL     1     -13.808  13.926  72.251  1.00  0.00    -0.571 C  
HETATM    5  C   UNL     1     -13.150  14.974  73.141  1.00  0.00    -0.619 C  
ENDBRANCH   3   4
BRANCH   3   6
HETATM    6  C   UNL     1     -13.406  11.595  71.537  1.00  0.00    -0.051 C  
BRANCH   6   7
HETATM    7  C   UNL     1     -12.276  10.578  71.547  1.00  0.00    -0.385 C  
HETATM    8  C   UNL     1     -11.306   9.707  71.556  1.00  0.00    -0.420 C  
BRANCH   8   9
HETATM    9  C   UNL     1     -10.207   8.739  71.540  1.00  0.00    -0.300 C  
BRANCH   9  10
HETATM   10  O   UNL     1      -9.278   9.046  70.491  1.00  0.00    -0.182 OA 
BRANCH  10  11
HETATM   11  C   UNL     1      -8.221   8.181  70.389  1.00  0.00    -0.114 C  
HETATM   12  O   UNL     1      -7.212   8.234  71.085  1.00  0.00    -0.055 OA 
HETATM   13  C   UNL     1      -8.474   7.155  69.226  1.00  0.00    -0.133 C  
HETATM   14  C   UNL     1      -8.468   5.731  69.819  1.00  0.00    -0.123 A  
HETATM   15  C   UNL     1      -7.366   7.350  68.129  1.00  0.00    -0.100 C  
HETATM   16  O   UNL     1      -9.763   7.384  68.637  1.00  0.00    -0.149 OA 
HETATM   17  H   UNL     1      -9.916   6.764  67.934  1.00  0.00     0.000 HD 
HETATM   18  C   UNL     1      -9.579   4.875  69.694  1.00  0.00    -0.243 A  
HETATM   19  C   UNL     1      -7.465   6.374  66.933  1.00  0.00    -0.084 C  
HETATM   20  C   UNL     1      -9.582   3.599  70.264  1.00  0.00    -0.246 A  
HETATM   21  C   UNL     1      -8.554   6.720  65.919  1.00  0.00    -0.153 C  
HETATM   22  C   UNL     1      -8.458   8.161  65.431  1.00  0.00    -0.164 C  
HETATM   23  C   UNL     1      -8.475   3.148  70.975  1.00  0.00    -0.099 A  
HETATM   24  C   UNL     1      -7.358   3.969  71.106  1.00  0.00    -0.040 A  
HETATM   25  C   UNL     1      -8.347   9.169  66.568  1.00  0.00    -0.119 C  
HETATM   26  C   UNL     1      -7.262   8.791  67.573  1.00  0.00    -0.080 C  
HETATM   27  C   UNL     1      -7.353   5.242  70.527  1.00  0.00    -0.070 A  
ENDBRANCH  10  11
ENDBRANCH   9  10
ENDBRANCH   8   9
ENDBRANCH   6   7
ENDBRANCH   3   6
ENDBRANCH   2   3
TORSDOF 7
ENDMDL
MODEL      223
REMARK 921   NORMALIZED FREE ENERGY PREDICTED BY IDOCK:   -3.08 KCAL/MOL
REMARK 922        TOTAL FREE ENERGY PREDICTED BY IDOCK:   -5.59 KCAL/MOL
REMARK 923 INTER-LIGAND FREE ENERGY PREDICTED BY IDOCK:   -5.03 KCAL/MOL
REMARK 924 INTRA-LIGAND FREE ENERGY PREDICTED BY IDOCK:   -0.56 KCAL/MOL
REMARK 927      BINDING AFFINITY PREDICTED BY RF-SCORE:    0.00 PKD
ROOT
HETATM    1  C   UNL     1     -10.501   3.396  63.043  1.00  0.00    -0.200 C  
HETATM    2  C   UNL     1      -9.598   3.295  64.271  1.00  0.00    -0.151 C  
ENDROOT
BRANCH   2   3
HETATM    3  N   UNL     1      -9.021   1.959  64.498  1.00  0.00    -0.109 NA 
BRANCH   3   4
HETATM    4  C   UNL     1      -7.712   1.757  63.855  1.00  0.00    -0.060 C  
HETATM    5  C   UNL     1      -6.762   2.949  63.849  1.00  0.00    -0.032 C  
ENDBRANCH   3   4
BRANCH   3   6
HETATM    6  C   UNL     1      -9.032   1.665  65.942  1.00  0.00    -0.099 C  
BRANCH   6   7
HETATM    7  C   UNL     1      -8.813   2.910  66.785  1.00  0.00    -0.153 C  
HETATM    8  C   UNL     1      -8.624   3.979  67.507  1.00  0.00    -0.109 C  
BRANCH   8   9
HETATM    9  C   UNL     1      -8.384   5.179  68.313  1.00  0.00    -0.096 C  
BRANCH   9  10
HETATM   10  O   UNL     1      -8.865   6.348  67.635  1.00  0.00    -0.114 OA 
BRANCH  10  11
HETATM   11  C   UNL     1     -10.050   6.841  68.112  1.00  0.00    -0.164 C  
HETATM   12  O   UNL     1     -11.137   6.290  67.973  1.00  0.00    -0.333 OA 
HETATM   13  C   UNL     1      -9.813   8.226  68.815  1.00  0.00    -0.173 C  
HETATM   14  C   UNL     1     -10.261   8.112  70.288  1.00  0.00    -0.200 A  
HETATM   15  C   UNL     1     -10.609   9.334  68.033  1.00  0.00    -0.262 C  
HETATM   16  O   UNL     1      -8.415   8.554  68.802  1.00  0.00    -0.121 OA 
HETATM   17  H   UNL     1      -8.272   9.392  69.226  1.00  0.00     0.000 HD 
HETATM   18  C   UNL     1      -9.372   8.363  71.350  1.00  0.00    -0.247 A  
HETATM   19  C   UNL     1     -10.501  10.752  68.638  1.00  0.00    -0.213 C  
HETATM   20  C   UNL     1      -9.772   8.224  72.682  1.00  0.00    -0.357 A  
HETATM   21  C   UNL     1      -9.183  11.469  68.346  1.00  0.00    -0.190 C  
HETATM   22  C   UNL     1      -8.850  11.491  66.858  1.00  0.00    -0.182 C  
HETATM   23  C   UNL     1     -11.071   7.828  72.984  1.00  0.00    -0.419 A  
HETATM   24  C   UNL     1     -11.975   7.584  71.953  1.00  0.00    -0.335 A  
HETATM   25  C   UNL     1      -8.950  10.119  66.205  1.00  0.00    -0.171 C  
HETATM   26  C   UNL     1     -10.269   9.420  66.525  1.00  0.00    -0.308 C  
HETATM   27  C   UNL     1     -11.575   7.732  70.621  1.00  0.00    -0.233 A  
ENDBRANCH  10  11
ENDBRANCH   9  10
ENDBRANCH   8   9
ENDBRANCH   6   7
ENDBRANCH   3   6
ENDBRANCH   2   3
TORSDOF 7
ENDMDL
MODEL      224
REMARK 921   NORMALIZED FREE ENERGY PREDICTED BY IDOCK:   -3.08 KCAL/MOL
REMARK 922        TOTAL FREE ENERGY PREDICTED BY IDOCK:   -5.58 KCAL/MOL
REMARK 923 INTER-LIGAND FREE ENERGY PREDICTED BY IDOCK:   -4.72 KCAL/MOL
REMARK 924 INTRA-LIGAND FREE ENERGY PREDICTED BY IDOCK:   -0.86 KCAL/MOL
REMARK 927      BINDING AFFINITY PREDICTED BY RF-SCORE:    0.00 PKD
ROOT
HETATM    1  C   UNL     1      -9.553  17.927  66.632  1.00  0.00    -0.311 C  
HETATM    2  C   UNL     1     -10.513  17.732  67.803  1.00  0.00    -0.397 C  
ENDROOT
BRANCH   2   3
HETATM    3  N   UNL     1     -10.526  16.369  68.364  1.00  0.00    -0.281 NA 
BRANCH   3   4
HETATM    4  C   UNL     1     -11.652  16.109  69.275  1.00  0.00    -0.270 C  
HETATM    5  C   UNL     1     -11.310  15.928  70.750  1.00  0.00    -0.424 C  
ENDBRANCH   3   4
BRANCH   3   6
HETATM    6  C   UNL     1     -10.403  15.392  67.267  1.00  0.00    -0.271 C  
BRANCH   6   7
HETATM    7  C   UNL     1     -10.748  13.981  67.712  1.00  0.00    -0.248 C  
HETATM    8  C   UNL     1     -11.045  12.770  68.093  1.00  0.00    -0.288 C  
BRANCH   8   9
HETATM    9  C   UNL     1     -11.392  11.421  68.546  1.00  0.00    -0.271 C  
BRANCH   9  10
HETATM   10  O   UNL     1     -10.612  10.438  67.850  1.00  0.00    -0.196 OA 
BRANCH  10  11
HETATM   11  C   UNL     1      -9.779   9.697  68.645  1.00  0.00    -0.155 C  
HETATM   12  O   UNL     1      -9.974   9.474  69.836  1.00  0.00    -0.200 OA 
HETATM   13  C   UNL     1      -8.527   9.224  67.822  1.00  0.00    -0.116 C  
HETATM   14  C   UNL     1      -8.491   7.681  67.828  1.00  0.00    -0.122 A  
HETATM   15  C   UNL     1      -7.235   9.854  68.458  1.00  0.00    -0.076 C  
HETATM   16  O   UNL     1      -8.640   9.658  66.458  1.00  0.00    -0.125 OA 
HETATM   17  H   UNL     1      -7.883   9.372  65.961  1.00  0.00     0.000 HD 
HETATM   18  C   UNL     1      -8.516   6.938  66.633  1.00  0.00    -0.121 A  
HETATM   19  C   UNL     1      -5.913   9.441  67.771  1.00  0.00    -0.052 C  
HETATM   20  C   UNL     1      -8.520   5.540  66.645  1.00  0.00    -0.112 A  
HETATM   21  C   UNL     1      -5.632  10.156  66.450  1.00  0.00    -0.052 C  
HETATM   22  C   UNL     1      -5.721  11.672  66.580  1.00  0.00    -0.056 C  
HETATM   23  C   UNL     1      -8.500   4.852  67.853  1.00  0.00    -0.103 A  
HETATM   24  C   UNL     1      -8.465   5.561  69.051  1.00  0.00    -0.101 A  
HETATM   25  C   UNL     1      -7.002  12.138  67.260  1.00  0.00    -0.148 C  
HETATM   26  C   UNL     1      -7.265  11.397  68.569  1.00  0.00    -0.093 C  
HETATM   27  C   UNL     1      -8.452   6.959  69.037  1.00  0.00    -0.128 A  
ENDBRANCH  10  11
ENDBRANCH   9  10
ENDBRANCH   8   9
ENDBRANCH   6   7
ENDBRANCH   3   6
ENDBRANCH   2   3
TORSDOF 7
ENDMDL
MODEL      225
REMARK 921   NORMALIZED FREE ENERGY PREDICTED BY IDOCK:   -3.07 KCAL/MOL
REMARK 922        TOTAL FREE ENERGY PREDICTED BY IDOCK:   -5.57 KCAL/MOL
REMARK 923 INTER-LIGAND FREE ENERGY PREDICTED BY IDOCK:   -4.98 KCAL/MOL
REMARK 924 INTRA-LIGAND FREE ENERGY PREDICTED BY IDOCK:   -0.60 KCAL/MOL
REMARK 927      BINDING AFFINITY PREDICTED BY RF-SCORE:    0.00 PKD
ROOT
HETATM    1  C   UNL     1     -11.325  15.613  71.187  1.00  0.00    -0.446 C  
HETATM    2  C   UNL     1     -12.244  15.229  70.029  1.00  0.00    -0.349 C  
ENDROOT
BRANCH   2   3
HETATM    3  N   UNL     1     -11.629  15.346  68.695  1.00  0.00    -0.347 NA 
BRANCH   3   4
HETATM    4  C   UNL     1     -10.227  15.794  68.721  1.00  0.00    -0.217 C  
HETATM    5  C   UNL     1      -9.566  16.048  67.371  1.00  0.00    -0.225 C  
ENDBRANCH   3   4
BRANCH   3   6
HETATM    6  C   UNL     1     -11.846  14.093  67.950  1.00  0.00    -0.370 C  
BRANCH   6   7
HETATM    7  C   UNL     1     -11.669  12.864  68.826  1.00  0.00    -0.363 C  
HETATM    8  C   UNL     1     -11.517  11.810  69.578  1.00  0.00    -0.363 C  
BRANCH   8   9
HETATM    9  C   UNL     1     -11.354  10.642  70.447  1.00  0.00    -0.304 C  
BRANCH   9  10
HETATM   10  O   UNL     1     -11.151   9.455  69.665  1.00  0.00    -0.222 OA 
BRANCH  10  11
HETATM   11  C   UNL     1     -10.447   9.645  68.506  1.00  0.00    -0.212 C  
HETATM   12  O   UNL     1     -10.954   9.927  67.426  1.00  0.00    -0.269 OA 
HETATM   13  C   UNL     1      -8.916   9.400  68.759  1.00  0.00    -0.132 C  
HETATM   14  C   UNL     1      -8.150  10.697  68.420  1.00  0.00    -0.123 A  
HETATM   15  C   UNL     1      -8.446   8.183  67.883  1.00  0.00    -0.132 C  
HETATM   16  O   UNL     1      -8.685   9.100  70.144  1.00  0.00    -0.145 OA 
HETATM   17  H   UNL     1      -7.760   8.952  70.297  1.00  0.00     0.000 HD 
HETATM   18  C   UNL     1      -7.351  11.352  69.376  1.00  0.00     0.012 A  
HETATM   19  C   UNL     1      -6.941   7.849  68.000  1.00  0.00    -0.073 C  
HETATM   20  C   UNL     1      -6.688  12.545  69.075  1.00  0.00    -0.098 A  
HETATM   21  C   UNL     1      -6.552   7.103  69.275  1.00  0.00    -0.044 C  
HETATM   22  C   UNL     1      -7.399   5.856  69.501  1.00  0.00    -0.075 C  
HETATM   23  C   UNL     1      -6.809  13.113  67.811  1.00  0.00    -0.149 A  
HETATM   24  C   UNL     1      -7.584  12.480  66.842  1.00  0.00     0.073 A  
HETATM   25  C   UNL     1      -8.895   6.123  69.388  1.00  0.00    -0.126 C  
HETATM   26  C   UNL     1      -9.252   6.881  68.112  1.00  0.00    -0.126 C  
HETATM   27  C   UNL     1      -8.240  11.282  67.143  1.00  0.00    -0.149 A  
ENDBRANCH  10  11
ENDBRANCH   9  10
ENDBRANCH   8   9
ENDBRANCH   6   7
ENDBRANCH   3   6
ENDBRANCH   2   3
TORSDOF 7
ENDMDL
MODEL      226
REMARK 921   NORMALIZED FREE ENERGY PREDICTED BY IDOCK:   -3.04 KCAL/MOL
REMARK 922        TOTAL FREE ENERGY PREDICTED BY IDOCK:   -5.53 KCAL/MOL
REMARK 923 INTER-LIGAND FREE ENERGY PREDICTED BY IDOCK:   -5.04 KCAL/MOL
REMARK 924 INTRA-LIGAND FREE ENERGY PREDICTED BY IDOCK:   -0.49 KCAL/MOL
REMARK 927      BINDING AFFINITY PREDICTED BY RF-SCORE:    0.00 PKD
ROOT
HETATM    1  C   UNL     1     -11.367  14.298  69.346  1.00  0.00    -0.325 C  
HETATM    2  C   UNL     1     -11.915  12.971  69.867  1.00  0.00    -0.311 C  
ENDROOT
BRANCH   2   3
HETATM    3  N   UNL     1     -12.552  13.050  71.193  1.00  0.00    -0.353 NA 
BRANCH   3   4
HETATM    4  C   UNL     1     -13.153  14.361  71.490  1.00  0.00    -0.340 C  
HETATM    5  C   UNL     1     -13.078  14.835  72.937  1.00  0.00    -0.596 C  
ENDBRANCH   3   4
BRANCH   3   6
HETATM    6  C   UNL     1     -13.478  11.915  71.355  1.00  0.00     0.295 C  
BRANCH   6   7
HETATM    7  C   UNL     1     -12.751  10.620  71.676  1.00  0.00    -0.531 C  
HETATM    8  C   UNL     1     -12.126   9.509  71.951  1.00  0.00    -0.409 C  
BRANCH   8   9
HETATM    9  C   UNL     1     -11.401   8.271  72.246  1.00  0.00    -0.378 C  
BRANCH   9  10
HETATM   10  O   UNL     1      -9.986   8.471  72.117  1.00  0.00    -0.269 OA 
BRANCH  10  11
HETATM   11  C   UNL     1      -9.215   7.604  72.843  1.00  0.00    -0.188 C  
HETATM   12  O   UNL     1      -9.064   7.663  74.059  1.00  0.00    -0.259 OA 
HETATM   13  C   UNL     1      -8.524   6.565  71.888  1.00  0.00    -0.119 C  
HETATM   14  C   UNL     1      -8.976   5.147  72.296  1.00  0.00    -0.137 A  
HETATM   15  C   UNL     1      -6.966   6.746  71.985  1.00  0.00    -0.074 C  
HETATM   16  O   UNL     1      -8.940   6.789  70.532  1.00  0.00    -0.150 OA 
HETATM   17  H   UNL     1      -8.522   6.161  69.954  1.00  0.00     0.000 HD 
HETATM   18  C   UNL     1      -9.629   4.292  71.388  1.00  0.00    -0.239 A  
HETATM   19  C   UNL     1      -6.148   5.757  71.122  1.00  0.00    -0.034 C  
HETATM   20  C   UNL     1     -10.069   3.022  71.773  1.00  0.00    -0.112 A  
HETATM   21  C   UNL     1      -6.111   6.094  69.632  1.00  0.00    -0.026 C  
HETATM   22  C   UNL     1      -5.670   7.529  69.370  1.00  0.00    -0.023 C  
HETATM   23  C   UNL     1      -9.867   2.577  73.076  1.00  0.00    -0.176 A  
HETATM   24  C   UNL     1      -9.215   3.399  73.991  1.00  0.00    -0.099 A  
HETATM   25  C   UNL     1      -6.436   8.549  70.202  1.00  0.00    -0.038 C  
HETATM   26  C   UNL     1      -6.469   8.181  71.684  1.00  0.00    -0.046 C  
HETATM   27  C   UNL     1      -8.768   4.665  73.602  1.00  0.00    -0.106 A  
ENDBRANCH  10  11
ENDBRANCH   9  10
ENDBRANCH   8   9
ENDBRANCH   6   7
ENDBRANCH   3   6
ENDBRANCH   2   3
TORSDOF 7
ENDMDL
MODEL      227
REMARK 921   NORMALIZED FREE ENERGY PREDICTED BY IDOCK:   -3.04 KCAL/MOL
REMARK 922        TOTAL FREE ENERGY PREDICTED BY IDOCK:   -5.52 KCAL/MOL
REMARK 923 INTER-LIGAND FREE ENERGY PREDICTED BY IDOCK:   -4.75 KCAL/MOL
REMARK 924 INTRA-LIGAND FREE ENERGY PREDICTED BY IDOCK:   -0.78 KCAL/MOL
REMARK 927      BINDING AFFINITY PREDICTED BY RF-SCORE:    0.00 PKD
ROOT
HETATM    1  C   UNL     1      -9.145   5.229  65.738  1.00  0.00    -0.161 C  
HETATM    2  C   UNL     1      -8.122   5.037  66.856  1.00  0.00    -0.107 C  
ENDROOT
BRANCH   2   3
HETATM    3  N   UNL     1      -8.705   4.732  68.174  1.00  0.00    -0.102 NA 
BRANCH   3   4
HETATM    4  C   UNL     1      -9.299   3.388  68.268  1.00  0.00    -0.180 C  
HETATM    5  C   UNL     1      -8.539   2.362  69.102  1.00  0.00    -0.115 C  
ENDBRANCH   3   4
BRANCH   3   6
HETATM    6  C   UNL     1      -7.713   5.025  69.223  1.00  0.00    -0.075 C  
BRANCH   6   7
HETATM    7  C   UNL     1      -7.027   6.363  69.009  1.00  0.00    -0.072 C  
HETATM    8  C   UNL     1      -6.437   7.512  68.827  1.00  0.00    -0.048 C  
BRANCH   8   9
HETATM    9  C   UNL     1      -5.771   8.804  68.651  1.00  0.00    -0.041 C  
BRANCH   9  10
HETATM   10  O   UNL     1      -6.725   9.825  68.322  1.00  0.00    -0.060 OA 
BRANCH  10  11
HETATM   11  C   UNL     1      -7.842   9.377  67.669  1.00  0.00    -0.095 C  
HETATM   12  O   UNL     1      -7.824   8.661  66.674  1.00  0.00    -0.095 OA 
HETATM   13  C   UNL     1      -9.134   9.952  68.355  1.00  0.00    -0.123 C  
HETATM   14  C   UNL     1      -9.999   8.771  68.842  1.00  0.00    -0.200 A  
HETATM   15  C   UNL     1      -9.893  10.862  67.321  1.00  0.00    -0.202 C  
HETATM   16  O   UNL     1      -8.776  10.741  69.500  1.00  0.00    -0.381 OA 
HETATM   17  H   UNL     1      -9.556  11.089  69.914  1.00  0.00     0.000 HD 
HETATM   18  C   UNL     1     -10.354   8.627  70.196  1.00  0.00    -0.219 A  
HETATM   19  C   UNL     1     -11.214  11.469  67.847  1.00  0.00    -0.344 C  
HETATM   20  C   UNL     1     -11.107   7.536  70.639  1.00  0.00    -0.280 A  
HETATM   21  C   UNL     1     -11.035  12.660  68.789  1.00  0.00    -0.289 C  
HETATM   22  C   UNL     1     -10.143  13.743  68.194  1.00  0.00    -0.245 C  
HETATM   23  C   UNL     1     -11.522   6.561  69.737  1.00  0.00    -0.443 A  
HETATM   24  C   UNL     1     -11.193   6.684  68.390  1.00  0.00    -0.215 A  
HETATM   25  C   UNL     1      -8.828  13.200  67.649  1.00  0.00    -0.191 C  
HETATM   26  C   UNL     1      -9.035  12.004  66.724  1.00  0.00    -0.198 C  
HETATM   27  C   UNL     1     -10.447   7.780  67.948  1.00  0.00    -0.263 A  
ENDBRANCH  10  11
ENDBRANCH   9  10
ENDBRANCH   8   9
ENDBRANCH   6   7
ENDBRANCH   3   6
ENDBRANCH   2   3
TORSDOF 7
ENDMDL
MODEL      228
REMARK 921   NORMALIZED FREE ENERGY PREDICTED BY IDOCK:   -3.00 KCAL/MOL
REMARK 922        TOTAL FREE ENERGY PREDICTED BY IDOCK:   -5.47 KCAL/MOL
REMARK 923 INTER-LIGAND FREE ENERGY PREDICTED BY IDOCK:   -4.96 KCAL/MOL
REMARK 924 INTRA-LIGAND FREE ENERGY PREDICTED BY IDOCK:   -0.50 KCAL/MOL
REMARK 927      BINDING AFFINITY PREDICTED BY RF-SCORE:    0.00 PKD
ROOT
HETATM    1  C   UNL     1     -10.790  15.574  68.461  1.00  0.00    -0.272 C  
HETATM    2  C   UNL     1     -10.366  14.107  68.501  1.00  0.00    -0.249 C  
ENDROOT
BRANCH   2   3
HETATM    3  N   UNL     1     -11.422  13.154  68.117  1.00  0.00    -0.292 NA 
BRANCH   3   4
HETATM    4  C   UNL     1     -11.131  12.405  66.884  1.00  0.00    -0.287 C  
HETATM    5  C   UNL     1     -10.423  13.169  65.771  1.00  0.00    -0.291 C  
ENDBRANCH   3   4
BRANCH   3   6
HETATM    6  C   UNL     1     -11.749  12.301  69.274  1.00  0.00    -0.330 C  
BRANCH   6   7
HETATM    7  C   UNL     1     -10.756  11.166  69.452  1.00  0.00    -0.220 C  
HETATM    8  C   UNL     1      -9.903  10.191  69.603  1.00  0.00    -0.254 C  
BRANCH   8   9
HETATM    9  C   UNL     1      -8.961   9.079  69.755  1.00  0.00    -0.154 C  
BRANCH   9  10
HETATM   10  O   UNL     1      -9.438   8.142  70.731  1.00  0.00    -0.159 OA 
BRANCH  10  11
HETATM   11  C   UNL     1     -10.148   7.090  70.218  1.00  0.00    -0.187 C  
HETATM   12  O   UNL     1     -11.315   7.156  69.847  1.00  0.00    -0.239 OA 
HETATM   13  C   UNL     1      -9.265   5.790  70.222  1.00  0.00    -0.152 C  
HETATM   14  C   UNL     1      -9.127   5.286  68.770  1.00  0.00    -0.134 A  
HETATM   15  C   UNL     1      -9.937   4.725  71.162  1.00  0.00    -0.273 C  
HETATM   16  O   UNL     1      -7.950   6.088  70.714  1.00  0.00    -0.109 OA 
HETATM   17  H   UNL     1      -7.416   5.303  70.717  1.00  0.00     0.000 HD 
HETATM   18  C   UNL     1      -7.868   5.136  68.158  1.00  0.00    -0.087 A  
HETATM   19  C   UNL     1      -9.194   3.370  71.234  1.00  0.00    -0.190 C  
HETATM   20  C   UNL     1      -7.749   4.714  66.831  1.00  0.00    -0.091 A  
HETATM   21  C   UNL     1      -7.942   3.378  72.110  1.00  0.00    -0.059 C  
HETATM   22  C   UNL     1      -8.213   3.918  73.509  1.00  0.00    -0.088 C  
HETATM   23  C   UNL     1      -8.888   4.433  66.083  1.00  0.00    -0.115 A  
HETATM   24  C   UNL     1     -10.146   4.563  66.666  1.00  0.00    -0.238 A  
HETATM   25  C   UNL     1      -8.953   5.250  73.501  1.00  0.00    -0.121 C  
HETATM   26  C   UNL     1     -10.191   5.217  72.608  1.00  0.00    -0.227 C  
HETATM   27  C   UNL     1     -10.262   4.977  67.996  1.00  0.00    -0.144 A  
ENDBRANCH  10  11
ENDBRANCH   9  10
ENDBRANCH   8   9
ENDBRANCH   6   7
ENDBRANCH   3   6
ENDBRANCH   2   3
TORSDOF 7
ENDMDL
MODEL      229
REMARK 921   NORMALIZED FREE ENERGY PREDICTED BY IDOCK:   -2.99 KCAL/MOL
REMARK 922        TOTAL FREE ENERGY PREDICTED BY IDOCK:   -5.46 KCAL/MOL
REMARK 923 INTER-LIGAND FREE ENERGY PREDICTED BY IDOCK:   -5.22 KCAL/MOL
REMARK 924 INTRA-LIGAND FREE ENERGY PREDICTED BY IDOCK:   -0.24 KCAL/MOL
REMARK 927      BINDING AFFINITY PREDICTED BY RF-SCORE:    0.00 PKD
ROOT
HETATM    1  C   UNL     1      -9.737   4.556  72.507  1.00  0.00    -0.200 C  
HETATM    2  C   UNL     1     -10.004   5.895  71.824  1.00  0.00    -0.166 C  
ENDROOT
BRANCH   2   3
HETATM    3  N   UNL     1     -10.414   6.977  72.736  1.00  0.00    -0.220 NA 
BRANCH   3   4
HETATM    4  C   UNL     1      -9.288   7.684  73.368  1.00  0.00    -0.268 C  
HETATM    5  C   UNL     1      -8.052   7.910  72.505  1.00  0.00    -0.167 C  
ENDBRANCH   3   4
BRANCH   3   6
HETATM    6  C   UNL     1     -11.365   7.863  72.042  1.00  0.00    -0.292 C  
BRANCH   6   7
HETATM    7  C   UNL     1     -11.075   7.967  70.554  1.00  0.00    -0.260 C  
HETATM    8  C   UNL     1     -10.826   8.055  69.278  1.00  0.00    -0.072 C  
BRANCH   8   9
HETATM    9  C   UNL     1     -10.517   8.160  67.850  1.00  0.00    -0.197 C  
BRANCH   9  10
HETATM   10  O   UNL     1     -11.133   9.326  67.284  1.00  0.00    -0.054 OA 
BRANCH  10  11
HETATM   11  C   UNL     1     -10.666  10.516  67.773  1.00  0.00    -0.272 C  
HETATM   12  O   UNL     1     -10.865  10.924  68.912  1.00  0.00    -0.189 OA 
HETATM   13  C   UNL     1      -9.885  11.292  66.650  1.00  0.00    -0.205 C  
HETATM   14  C   UNL     1      -8.435  11.516  67.127  1.00  0.00    -0.158 A  
HETATM   15  C   UNL     1     -10.632  12.642  66.355  1.00  0.00    -0.272 C  
HETATM   16  O   UNL     1      -9.840  10.507  65.449  1.00  0.00    -0.235 OA 
HETATM   17  H   UNL     1      -9.369  10.976  64.770  1.00  0.00     0.000 HD 
HETATM   18  C   UNL     1      -7.335  11.031  66.394  1.00  0.00    -0.128 A  
HETATM   19  C   UNL     1      -9.952  13.535  65.292  1.00  0.00    -0.206 C  
HETATM   20  C   UNL     1      -6.025  11.205  66.848  1.00  0.00    -0.103 A  
HETATM   21  C   UNL     1     -10.167  13.082  63.849  1.00  0.00    -0.032 C  
HETATM   22  C   UNL     1     -11.641  12.877  63.517  1.00  0.00    -0.528 C  
HETATM   23  C   UNL     1      -5.782  11.867  68.047  1.00  0.00    -0.048 A  
HETATM   24  C   UNL     1      -6.851  12.366  68.787  1.00  0.00    -0.092 A  
HETATM   25  C   UNL     1     -12.367  12.011  64.538  1.00  0.00    -0.300 C  
HETATM   26  C   UNL     1     -12.123  12.479  65.971  1.00  0.00    -0.390 C  
HETATM   27  C   UNL     1      -8.160  12.199  68.327  1.00  0.00    -0.166 A  
ENDBRANCH  10  11
ENDBRANCH   9  10
ENDBRANCH   8   9
ENDBRANCH   6   7
ENDBRANCH   3   6
ENDBRANCH   2   3
TORSDOF 7
ENDMDL
MODEL      230
REMARK 921   NORMALIZED FREE ENERGY PREDICTED BY IDOCK:   -2.98 KCAL/MOL
REMARK 922        TOTAL FREE ENERGY PREDICTED BY IDOCK:   -5.44 KCAL/MOL
REMARK 923 INTER-LIGAND FREE ENERGY PREDICTED BY IDOCK:   -4.72 KCAL/MOL
REMARK 924 INTRA-LIGAND FREE ENERGY PREDICTED BY IDOCK:   -0.72 KCAL/MOL
REMARK 927      BINDING AFFINITY PREDICTED BY RF-SCORE:    0.00 PKD
ROOT
HETATM    1  C   UNL     1      -9.552   1.786  63.745  1.00  0.00    -0.126 C  
HETATM    2  C   UNL     1      -8.969   2.863  64.658  1.00  0.00    -0.121 C  
ENDROOT
BRANCH   2   3
HETATM    3  N   UNL     1      -7.689   2.501  65.291  1.00  0.00    -0.076 NA 
BRANCH   3   4
HETATM    4  C   UNL     1      -6.617   2.186  64.333  1.00  0.00    -0.023 C  
HETATM    5  C   UNL     1      -5.435   3.148  64.289  1.00  0.00    -0.009 C  
ENDBRANCH   3   4
BRANCH   3   6
HETATM    6  C   UNL     1      -7.327   3.534  66.278  1.00  0.00    -0.076 C  
BRANCH   6   7
HETATM    7  C   UNL     1      -8.297   4.704  66.269  1.00  0.00    -0.110 C  
HETATM    8  C   UNL     1      -9.129   5.708  66.260  1.00  0.00    -0.153 C  
BRANCH   8   9
HETATM    9  C   UNL     1     -10.070   6.830  66.222  1.00  0.00     0.140 C  
BRANCH   9  10
HETATM   10  O   UNL     1     -10.596   7.093  67.531  1.00  0.00    -0.230 OA 
BRANCH  10  11
HETATM   11  C   UNL     1     -10.462   8.389  67.954  1.00  0.00    -0.193 C  
HETATM   12  O   UNL     1     -10.667   9.372  67.250  1.00  0.00    -0.267 OA 
HETATM   13  C   UNL     1      -9.966   8.421  69.444  1.00  0.00    -0.191 C  
HETATM   14  C   UNL     1     -11.019   9.161  70.296  1.00  0.00    -0.279 A  
HETATM   15  C   UNL     1      -8.559   9.120  69.495  1.00  0.00    -0.138 C  
HETATM   16  O   UNL     1      -9.845   7.084  69.954  1.00  0.00    -0.169 OA 
HETATM   17  H   UNL     1      -9.545   7.104  70.855  1.00  0.00     0.000 HD 
HETATM   18  C   UNL     1     -11.647   8.542  71.394  1.00  0.00    -0.344 A  
HETATM   19  C   UNL     1      -7.960   9.260  70.913  1.00  0.00    -0.161 C  
HETATM   20  C   UNL     1     -12.626   9.204  72.139  1.00  0.00    -0.451 A  
HETATM   21  C   UNL     1      -7.360   7.973  71.479  1.00  0.00    -0.073 C  
HETATM   22  C   UNL     1      -6.353   7.334  70.530  1.00  0.00    -0.038 C  
HETATM   23  C   UNL     1     -13.002  10.500  71.805  1.00  0.00    -0.582 A  
HETATM   24  C   UNL     1     -12.390  11.141  70.730  1.00  0.00    -0.504 A  
HETATM   25  C   UNL     1      -6.886   7.180  69.111  1.00  0.00    -0.061 C  
HETATM   26  C   UNL     1      -7.492   8.476  68.577  1.00  0.00    -0.094 C  
HETATM   27  C   UNL     1     -11.405  10.480  69.991  1.00  0.00    -0.392 A  
ENDBRANCH  10  11
ENDBRANCH   9  10
ENDBRANCH   8   9
ENDBRANCH   6   7
ENDBRANCH   3   6
ENDBRANCH   2   3
TORSDOF 7
ENDMDL
MODEL      231
REMARK 921   NORMALIZED FREE ENERGY PREDICTED BY IDOCK:   -2.98 KCAL/MOL
REMARK 922        TOTAL FREE ENERGY PREDICTED BY IDOCK:   -5.44 KCAL/MOL
REMARK 923 INTER-LIGAND FREE ENERGY PREDICTED BY IDOCK:   -4.96 KCAL/MOL
REMARK 924 INTRA-LIGAND FREE ENERGY PREDICTED BY IDOCK:   -0.48 KCAL/MOL
REMARK 927      BINDING AFFINITY PREDICTED BY RF-SCORE:    0.00 PKD
ROOT
HETATM    1  C   UNL     1      -8.108  17.885  67.126  1.00  0.00    -0.225 C  
HETATM    2  C   UNL     1      -8.510  16.649  66.323  1.00  0.00    -0.320 C  
ENDROOT
BRANCH   2   3
HETATM    3  N   UNL     1      -9.432  15.738  67.023  1.00  0.00    -0.218 NA 
BRANCH   3   4
HETATM    4  C   UNL     1     -10.546  16.420  67.702  1.00  0.00    -0.313 C  
HETATM    5  C   UNL     1     -11.358  15.589  68.689  1.00  0.00    -0.348 C  
ENDBRANCH   3   4
BRANCH   3   6
HETATM    6  C   UNL     1      -9.856  14.672  66.099  1.00  0.00    -0.312 C  
BRANCH   6   7
HETATM    7  C   UNL     1      -9.316  13.310  66.504  1.00  0.00    -0.221 C  
HETATM    8  C   UNL     1      -8.855  12.141  66.852  1.00  0.00    -0.202 C  
BRANCH   8   9
HETATM    9  C   UNL     1      -8.345  10.834  67.270  1.00  0.00    -0.124 C  
BRANCH   9  10
HETATM   10  O   UNL     1      -9.252  10.207  68.188  1.00  0.00    -0.134 OA 
BRANCH  10  11
HETATM   11  C   UNL     1      -9.791   9.028  67.748  1.00  0.00    -0.168 C  
HETATM   12  O   UNL     1     -10.690   8.944  66.918  1.00  0.00    -0.230 OA 
HETATM   13  C   UNL     1      -9.125   7.818  68.496  1.00  0.00    -0.132 C  
HETATM   14  C   UNL     1      -8.454   6.903  67.450  1.00  0.00    -0.121 A  
HETATM   15  C   UNL     1     -10.228   7.066  69.327  1.00  0.00    -0.193 C  
HETATM   16  O   UNL     1      -8.105   8.290  69.389  1.00  0.00    -0.111 OA 
HETATM   17  H   UNL     1      -7.702   7.559  69.842  1.00  0.00     0.000 HD 
HETATM   18  C   UNL     1      -7.078   6.613  67.498  1.00  0.00    -0.084 A  
HETATM   19  C   UNL     1      -9.722   5.820  70.090  1.00  0.00    -0.219 C  
HETATM   20  C   UNL     1      -6.469   5.814  66.527  1.00  0.00    -0.047 A  
HETATM   21  C   UNL     1      -8.946   6.130  71.369  1.00  0.00    -0.143 C  
HETATM   22  C   UNL     1      -9.711   7.059  72.304  1.00  0.00    -0.169 C  
HETATM   23  C   UNL     1      -7.221   5.285  65.483  1.00  0.00    -0.068 A  
HETATM   24  C   UNL     1      -8.587   5.547  65.416  1.00  0.00    -0.151 A  
HETATM   25  C   UNL     1     -10.243   8.302  71.603  1.00  0.00    -0.286 C  
HETATM   26  C   UNL     1     -11.002   7.965  70.322  1.00  0.00    -0.249 C  
HETATM   27  C   UNL     1      -9.196   6.341  66.393  1.00  0.00    -0.173 A  
ENDBRANCH  10  11
ENDBRANCH   9  10
ENDBRANCH   8   9
ENDBRANCH   6   7
ENDBRANCH   3   6
ENDBRANCH   2   3
TORSDOF 7
ENDMDL
MODEL      232
REMARK 921   NORMALIZED FREE ENERGY PREDICTED BY IDOCK:   -2.96 KCAL/MOL
REMARK 922        TOTAL FREE ENERGY PREDICTED BY IDOCK:   -5.41 KCAL/MOL
REMARK 923 INTER-LIGAND FREE ENERGY PREDICTED BY IDOCK:   -5.08 KCAL/MOL
REMARK 924 INTRA-LIGAND FREE ENERGY PREDICTED BY IDOCK:   -0.34 KCAL/MOL
REMARK 927      BINDING AFFINITY PREDICTED BY RF-SCORE:    0.00 PKD
ROOT
HETATM    1  C   UNL     1     -10.267  17.106  66.763  1.00  0.00    -0.311 C  
HETATM    2  C   UNL     1     -10.835  16.735  68.131  1.00  0.00    -0.353 C  
ENDROOT
BRANCH   2   3
HETATM    3  N   UNL     1     -10.333  15.463  68.678  1.00  0.00    -0.228 NA 
BRANCH   3   4
HETATM    4  C   UNL     1     -10.959  15.073  69.952  1.00  0.00    -0.261 C  
HETATM    5  C   UNL     1     -11.476  16.204  70.834  1.00  0.00    -0.421 C  
ENDBRANCH   3   4
BRANCH   3   6
HETATM    6  C   UNL     1     -10.401  14.425  67.634  1.00  0.00    -0.237 C  
BRANCH   6   7
HETATM    7  C   UNL     1      -9.944  13.068  68.141  1.00  0.00    -0.231 C  
HETATM    8  C   UNL     1      -9.554  11.902  68.576  1.00  0.00    -0.160 C  
BRANCH   8   9
HETATM    9  C   UNL     1      -9.124  10.601  69.092  1.00  0.00    -0.139 C  
BRANCH   9  10
HETATM   10  O   UNL     1     -10.092   9.588  68.780  1.00  0.00    -0.175 OA 
BRANCH  10  11
HETATM   11  C   UNL     1     -10.104   9.189  67.471  1.00  0.00    -0.228 C  
HETATM   12  O   UNL     1     -10.835   9.664  66.608  1.00  0.00    -0.088 OA 
HETATM   13  C   UNL     1      -9.085   8.012  67.257  1.00  0.00    -0.135 C  
HETATM   14  C   UNL     1      -8.037   8.454  66.214  1.00  0.00    -0.105 A  
HETATM   15  C   UNL     1      -9.877   6.733  66.802  1.00  0.00    -0.236 C  
HETATM   16  O   UNL     1      -8.396   7.726  68.483  1.00  0.00    -0.126 OA 
HETATM   17  H   UNL     1      -7.780   7.015  68.354  1.00  0.00     0.000 HD 
HETATM   18  C   UNL     1      -6.662   8.480  66.516  1.00  0.00    -0.067 A  
HETATM   19  C   UNL     1      -8.994   5.497  66.514  1.00  0.00    -0.123 C  
HETATM   20  C   UNL     1      -5.720   8.916  65.579  1.00  0.00    -0.047 A  
HETATM   21  C   UNL     1      -8.497   4.767  67.760  1.00  0.00    -0.103 C  
HETATM   22  C   UNL     1      -9.630   4.408  68.715  1.00  0.00    -0.224 C  
HETATM   23  C   UNL     1      -6.131   9.337  64.319  1.00  0.00    -0.076 A  
HETATM   24  C   UNL     1      -7.483   9.311  63.989  1.00  0.00    -0.110 A  
HETATM   25  C   UNL     1     -10.541   5.587  69.029  1.00  0.00    -0.271 C  
HETATM   26  C   UNL     1     -11.011   6.307  67.767  1.00  0.00    -0.427 C  
HETATM   27  C   UNL     1      -8.423   8.867  64.924  1.00  0.00    -0.195 A  
ENDBRANCH  10  11
ENDBRANCH   9  10
ENDBRANCH   8   9
ENDBRANCH   6   7
ENDBRANCH   3   6
ENDBRANCH   2   3
TORSDOF 7
ENDMDL
MODEL      233
REMARK 921   NORMALIZED FREE ENERGY PREDICTED BY IDOCK:   -2.93 KCAL/MOL
REMARK 922        TOTAL FREE ENERGY PREDICTED BY IDOCK:   -5.37 KCAL/MOL
REMARK 923 INTER-LIGAND FREE ENERGY PREDICTED BY IDOCK:   -4.30 KCAL/MOL
REMARK 924 INTRA-LIGAND FREE ENERGY PREDICTED BY IDOCK:   -1.07 KCAL/MOL
REMARK 927      BINDING AFFINITY PREDICTED BY RF-SCORE:    0.00 PKD
ROOT
HETATM    1  C   UNL     1      -9.118   8.057  72.582  1.00  0.00    -0.290 C  
HETATM    2  C   UNL     1     -10.481   7.514  73.005  1.00  0.00    -0.342 C  
ENDROOT
BRANCH   2   3
HETATM    3  N   UNL     1     -10.952   6.361  72.218  1.00  0.00    -0.241 NA 
BRANCH   3   4
HETATM    4  C   UNL     1     -11.315   5.190  73.032  1.00  0.00    -0.309 C  
HETATM    5  C   UNL     1     -10.499   4.959  74.299  1.00  0.00    -0.336 C  
ENDBRANCH   3   4
BRANCH   3   6
HETATM    6  C   UNL     1     -12.014   6.804  71.297  1.00  0.00    -0.365 C  
BRANCH   6   7
HETATM    7  C   UNL     1     -11.654   6.558  69.841  1.00  0.00    -0.433 C  
HETATM    8  C   UNL     1     -11.345   6.348  68.592  1.00  0.00    -0.214 C  
BRANCH   8   9
HETATM    9  C   UNL     1     -11.000   6.140  67.184  1.00  0.00    -0.331 C  
BRANCH   9  10
HETATM   10  O   UNL     1      -9.667   5.622  67.061  1.00  0.00    -0.127 OA 
BRANCH  10  11
HETATM   11  C   UNL     1      -8.747   6.514  66.580  1.00  0.00    -0.134 C  
HETATM   12  O   UNL     1      -8.671   6.868  65.408  1.00  0.00    -0.094 OA 
HETATM   13  C   UNL     1      -7.784   6.972  67.734  1.00  0.00    -0.112 C  
HETATM   14  C   UNL     1      -7.904   8.502  67.895  1.00  0.00    -0.103 A  
HETATM   15  C   UNL     1      -6.320   6.521  67.381  1.00  0.00    -0.037 C  
HETATM   16  O   UNL     1      -8.176   6.365  68.974  1.00  0.00    -0.113 OA 
HETATM   17  H   UNL     1      -7.594   6.641  69.672  1.00  0.00     0.000 HD 
HETATM   18  C   UNL     1      -8.290   9.087  69.116  1.00  0.00    -0.123 A  
HETATM   19  C   UNL     1      -5.250   6.941  68.416  1.00  0.00    -0.016 C  
HETATM   20  C   UNL     1      -8.432  10.471  69.246  1.00  0.00    -0.138 A  
HETATM   21  C   UNL     1      -5.225   6.089  69.684  1.00  0.00    -0.008 C  
HETATM   22  C   UNL     1      -5.126   4.598  69.382  1.00  0.00     0.000 C  
HETATM   23  C   UNL     1      -8.192  11.304  68.158  1.00  0.00    -0.140 A  
HETATM   24  C   UNL     1      -7.798  10.754  66.941  1.00  0.00    -0.130 A  
HETATM   25  C   UNL     1      -6.152   4.129  68.359  1.00  0.00    -0.031 C  
HETATM   26  C   UNL     1      -6.166   5.005  67.109  1.00  0.00    -0.035 C  
HETATM   27  C   UNL     1      -7.648   9.369  66.815  1.00  0.00    -0.097 A  
ENDBRANCH  10  11
ENDBRANCH   9  10
ENDBRANCH   8   9
ENDBRANCH   6   7
ENDBRANCH   3   6
ENDBRANCH   2   3
TORSDOF 7
ENDMDL
MODEL      234
REMARK 921   NORMALIZED FREE ENERGY PREDICTED BY IDOCK:   -2.92 KCAL/MOL
REMARK 922        TOTAL FREE ENERGY PREDICTED BY IDOCK:   -5.36 KCAL/MOL
REMARK 923 INTER-LIGAND FREE ENERGY PREDICTED BY IDOCK:   -4.65 KCAL/MOL
REMARK 924 INTRA-LIGAND FREE ENERGY PREDICTED BY IDOCK:   -0.71 KCAL/MOL
REMARK 927      BINDING AFFINITY PREDICTED BY RF-SCORE:    0.00 PKD
ROOT
HETATM    1  C   UNL     1      -8.107  16.242  66.132  1.00  0.00    -0.130 C  
HETATM    2  C   UNL     1      -7.821  17.669  66.593  1.00  0.00    -0.248 C  
ENDROOT
BRANCH   2   3
HETATM    3  N   UNL     1      -8.802  18.213  67.548  1.00  0.00    -0.255 NA 
BRANCH   3   4
HETATM    4  C   UNL     1     -10.174  18.285  67.019  1.00  0.00    -0.378 C  
HETATM    5  C   UNL     1     -10.866  19.641  67.095  1.00  0.00    -0.526 C  
ENDBRANCH   3   4
BRANCH   3   6
HETATM    6  C   UNL     1      -8.689  17.487  68.826  1.00  0.00    -0.214 C  
BRANCH   6   7
HETATM    7  C   UNL     1      -9.462  16.179  68.816  1.00  0.00    -0.230 C  
HETATM    8  C   UNL     1     -10.126  15.057  68.806  1.00  0.00    -0.231 C  
BRANCH   8   9
HETATM    9  C   UNL     1     -10.895  13.810  68.783  1.00  0.00    -0.259 C  
BRANCH   9  10
HETATM   10  O   UNL     1     -10.357  12.902  67.812  1.00  0.00    -0.215 OA 
BRANCH  10  11
HETATM   11  C   UNL     1      -9.815  11.758  68.334  1.00  0.00    -0.199 C  
HETATM   12  O   UNL     1     -10.304  11.119  69.260  1.00  0.00    -0.203 OA 
HETATM   13  C   UNL     1      -8.464  11.420  67.606  1.00  0.00    -0.130 C  
HETATM   14  C   UNL     1      -8.595  10.029  66.950  1.00  0.00    -0.128 A  
HETATM   15  C   UNL     1      -7.296  11.478  68.656  1.00  0.00    -0.106 C  
HETATM   16  O   UNL     1      -8.210  12.377  66.567  1.00  0.00    -0.394 OA 
HETATM   17  H   UNL     1      -7.394  12.173  66.127  1.00  0.00     0.000 HD 
HETATM   18  C   UNL     1      -8.421   9.848  65.565  1.00  0.00    -0.148 A  
HETATM   19  C   UNL     1      -5.902  11.126  68.087  1.00  0.00    -0.045 C  
HETATM   20  C   UNL     1      -8.576   8.593  64.970  1.00  0.00    -0.185 A  
HETATM   21  C   UNL     1      -5.248  12.241  67.272  1.00  0.00    -0.087 C  
HETATM   22  C   UNL     1      -5.202  13.564  68.028  1.00  0.00    -0.110 C  
HETATM   23  C   UNL     1      -8.910   7.488  65.746  1.00  0.00    -0.122 A  
HETATM   24  C   UNL     1      -9.078   7.636  67.120  1.00  0.00    -0.146 A  
HETATM   25  C   UNL     1      -6.549  13.958  68.621  1.00  0.00    -0.095 C  
HETATM   26  C   UNL     1      -7.186  12.821  69.417  1.00  0.00     0.272 C  
HETATM   27  C   UNL     1      -8.915   8.891  67.715  1.00  0.00    -0.140 A  
ENDBRANCH  10  11
ENDBRANCH   9  10
ENDBRANCH   8   9
ENDBRANCH   6   7
ENDBRANCH   3   6
ENDBRANCH   2   3
TORSDOF 7
ENDMDL
MODEL      235
REMARK 921   NORMALIZED FREE ENERGY PREDICTED BY IDOCK:   -2.92 KCAL/MOL
REMARK 922        TOTAL FREE ENERGY PREDICTED BY IDOCK:   -5.35 KCAL/MOL
REMARK 923 INTER-LIGAND FREE ENERGY PREDICTED BY IDOCK:   -4.58 KCAL/MOL
REMARK 924 INTRA-LIGAND FREE ENERGY PREDICTED BY IDOCK:   -0.77 KCAL/MOL
REMARK 927      BINDING AFFINITY PREDICTED BY RF-SCORE:    0.00 PKD
ROOT
HETATM    1  C   UNL     1     -11.079   6.364  67.539  1.00  0.00    -0.401 C  
HETATM    2  C   UNL     1     -10.307   5.404  66.638  1.00  0.00    -0.275 C  
ENDROOT
BRANCH   2   3
HETATM    3  N   UNL     1      -9.273   4.614  67.329  1.00  0.00    -0.123 NA 
BRANCH   3   4
HETATM    4  C   UNL     1      -9.417   3.159  67.153  1.00  0.00    -0.109 C  
HETATM    5  C   UNL     1      -8.156   2.321  67.328  1.00  0.00    -0.071 C  
ENDBRANCH   3   4
BRANCH   3   6
HETATM    6  C   UNL     1      -7.943   5.133  66.966  1.00  0.00    -0.100 C  
BRANCH   6   7
HETATM    7  C   UNL     1      -8.018   6.223  65.910  1.00  0.00    -0.116 C  
HETATM    8  C   UNL     1      -8.082   7.159  65.005  1.00  0.00    -0.119 C  
BRANCH   8   9
HETATM    9  C   UNL     1      -8.160   8.231  64.009  1.00  0.00    -0.128 C  
BRANCH   9  10
HETATM   10  O   UNL     1      -9.257   9.110  64.296  1.00  0.00    -0.059 OA 
BRANCH  10  11
HETATM   11  C   UNL     1      -8.927  10.437  64.364  1.00  0.00    -0.223 C  
HETATM   12  O   UNL     1      -8.384  11.064  63.461  1.00  0.00     0.037 OA 
HETATM   13  C   UNL     1      -9.301  11.013  65.777  1.00  0.00    -0.211 C  
HETATM   14  C   UNL     1     -10.313  12.162  65.585  1.00  0.00    -0.289 A  
HETATM   15  C   UNL     1      -7.986  11.490  66.494  1.00  0.00    -0.095 C  
HETATM   16  O   UNL     1      -9.930   9.998  66.575  1.00  0.00    -0.203 OA 
HETATM   17  H   UNL     1     -10.156  10.347  67.429  1.00  0.00     0.000 HD 
HETATM   18  C   UNL     1     -11.587  12.131  66.185  1.00  0.00    -0.418 A  
HETATM   19  C   UNL     1      -8.205  12.121  67.888  1.00  0.00    -0.155 C  
HETATM   20  C   UNL     1     -12.513  13.156  65.979  1.00  0.00    -0.330 A  
HETATM   21  C   UNL     1      -8.471  11.115  69.007  1.00  0.00    -0.044 C  
HETATM   22  C   UNL     1      -7.409  10.023  69.072  1.00  0.00    -0.083 C  
HETATM   23  C   UNL     1     -12.189  14.239  65.167  1.00  0.00    -0.422 A  
HETATM   24  C   UNL     1     -10.933  14.301  64.570  1.00  0.00    -0.311 A  
HETATM   25  C   UNL     1      -7.143   9.370  67.722  1.00  0.00    -0.082 C  
HETATM   26  C   UNL     1      -6.895  10.398  66.621  1.00  0.00    -0.099 C  
HETATM   27  C   UNL     1     -10.004  13.278  64.784  1.00  0.00    -0.150 A  
ENDBRANCH  10  11
ENDBRANCH   9  10
ENDBRANCH   8   9
ENDBRANCH   6   7
ENDBRANCH   3   6
ENDBRANCH   2   3
TORSDOF 7
ENDMDL
MODEL      236
REMARK 921   NORMALIZED FREE ENERGY PREDICTED BY IDOCK:   -2.91 KCAL/MOL
REMARK 922        TOTAL FREE ENERGY PREDICTED BY IDOCK:   -5.35 KCAL/MOL
REMARK 923 INTER-LIGAND FREE ENERGY PREDICTED BY IDOCK:   -5.08 KCAL/MOL
REMARK 924 INTRA-LIGAND FREE ENERGY PREDICTED BY IDOCK:   -0.27 KCAL/MOL
REMARK 927      BINDING AFFINITY PREDICTED BY RF-SCORE:    0.00 PKD
ROOT
HETATM    1  C   UNL     1     -10.570   2.360  63.127  1.00  0.00    -0.193 C  
HETATM    2  C   UNL     1      -9.816   2.889  64.345  1.00  0.00    -0.105 C  
ENDROOT
BRANCH   2   3
HETATM    3  N   UNL     1      -8.355   2.967  64.174  1.00  0.00    -0.086 NA 
BRANCH   3   4
HETATM    4  C   UNL     1      -7.933   3.744  62.996  1.00  0.00    -0.075 C  
HETATM    5  C   UNL     1      -6.495   4.249  62.990  1.00  0.00    -0.026 C  
ENDBRANCH   3   4
BRANCH   3   6
HETATM    6  C   UNL     1      -7.742   3.413  65.437  1.00  0.00    -0.081 C  
BRANCH   6   7
HETATM    7  C   UNL     1      -8.569   4.479  66.135  1.00  0.00    -0.113 C  
HETATM    8  C   UNL     1      -9.280   5.394  66.733  1.00  0.00    -0.128 C  
BRANCH   8   9
HETATM    9  C   UNL     1     -10.102   6.414  67.390  1.00  0.00    -0.158 C  
BRANCH   9  10
HETATM   10  O   UNL     1     -10.709   5.886  68.578  1.00  0.00    -0.242 OA 
BRANCH  10  11
HETATM   11  C   UNL     1      -9.998   6.098  69.728  1.00  0.00    -0.170 C  
HETATM   12  O   UNL     1      -9.240   5.278  70.236  1.00  0.00    -0.136 OA 
HETATM   13  C   UNL     1     -10.334   7.515  70.317  1.00  0.00    -0.213 C  
HETATM   14  C   UNL     1      -9.031   8.340  70.384  1.00  0.00    -0.146 A  
HETATM   15  C   UNL     1     -10.997   7.332  71.730  1.00  0.00    -0.256 C  
HETATM   16  O   UNL     1     -11.250   8.204  69.454  1.00  0.00    -0.440 OA 
HETATM   17  H   UNL     1     -11.454   9.061  69.810  1.00  0.00     0.000 HD 
HETATM   18  C   UNL     1      -8.903   9.571  69.712  1.00  0.00    -0.211 A  
HETATM   19  C   UNL     1     -11.349   8.653  72.453  1.00  0.00    -0.353 C  
HETATM   20  C   UNL     1      -7.709  10.297  69.745  1.00  0.00    -0.159 A  
HETATM   21  C   UNL     1     -12.607   9.347  71.933  1.00  0.00    -0.481 C  
HETATM   22  C   UNL     1     -13.813   8.414  71.899  1.00  0.00    -0.459 C  
HETATM   23  C   UNL     1      -6.614   9.809  70.451  1.00  0.00    -0.114 A  
HETATM   24  C   UNL     1      -6.716   8.600  71.134  1.00  0.00    -0.068 A  
HETATM   25  C   UNL     1     -13.522   7.089  71.206  1.00  0.00    -0.265 C  
HETATM   26  C   UNL     1     -12.253   6.426  71.735  1.00  0.00    -0.312 C  
HETATM   27  C   UNL     1      -7.914   7.879  71.106  1.00  0.00    -0.091 A  
ENDBRANCH  10  11
ENDBRANCH   9  10
ENDBRANCH   8   9
ENDBRANCH   6   7
ENDBRANCH   3   6
ENDBRANCH   2   3
TORSDOF 7
ENDMDL
MODEL      237
REMARK 921   NORMALIZED FREE ENERGY PREDICTED BY IDOCK:   -2.90 KCAL/MOL
REMARK 922        TOTAL FREE ENERGY PREDICTED BY IDOCK:   -5.34 KCAL/MOL
REMARK 923 INTER-LIGAND FREE ENERGY PREDICTED BY IDOCK:   -3.86 KCAL/MOL
REMARK 924 INTRA-LIGAND FREE ENERGY PREDICTED BY IDOCK:   -1.48 KCAL/MOL
REMARK 927      BINDING AFFINITY PREDICTED BY RF-SCORE:    0.00 PKD
ROOT
HETATM    1  C   UNL     1      -8.341  10.322  63.602  1.00  0.00    -0.169 C  
HETATM    2  C   UNL     1      -9.591  10.242  64.476  1.00  0.00    -0.316 C  
ENDROOT
BRANCH   2   3
HETATM    3  N   UNL     1      -9.693  11.299  65.497  1.00  0.00    -0.220 NA 
BRANCH   3   4
HETATM    4  C   UNL     1     -10.846  12.196  65.315  1.00  0.00    -0.293 C  
HETATM    5  C   UNL     1     -11.560  12.127  63.971  1.00  0.00    -0.504 C  
ENDBRANCH   3   4
BRANCH   3   6
HETATM    6  C   UNL     1      -9.613  10.689  66.836  1.00  0.00    -0.171 C  
BRANCH   6   7
HETATM    7  C   UNL     1     -10.107   9.251  66.845  1.00  0.00    -0.324 C  
HETATM    8  C   UNL     1     -10.530   8.018  66.851  1.00  0.00    -0.387 C  
BRANCH   8   9
HETATM    9  C   UNL     1     -11.021   6.639  66.834  1.00  0.00    -0.326 C  
BRANCH   9  10
HETATM   10  O   UNL     1     -10.019   5.738  67.328  1.00  0.00    -0.129 OA 
BRANCH  10  11
HETATM   11  C   UNL     1      -8.851   5.732  66.613  1.00  0.00    -0.121 C  
HETATM   12  O   UNL     1      -8.780   5.553  65.402  1.00  0.00    -0.152 OA 
HETATM   13  C   UNL     1      -7.628   5.938  67.577  1.00  0.00    -0.093 C  
HETATM   14  C   UNL     1      -6.875   7.215  67.148  1.00  0.00    -0.076 A  
HETATM   15  C   UNL     1      -6.716   4.660  67.519  1.00  0.00    -0.051 C  
HETATM   16  O   UNL     1      -8.087   6.127  68.924  1.00  0.00    -0.106 OA 
HETATM   17  H   UNL     1      -7.347   6.252  69.507  1.00  0.00     0.000 HD 
HETATM   18  C   UNL     1      -6.688   8.294  68.033  1.00  0.00    -0.065 A  
HETATM   19  C   UNL     1      -5.443   4.736  68.394  1.00  0.00    -0.015 C  
HETATM   20  C   UNL     1      -6.037   9.463  67.629  1.00  0.00    -0.053 A  
HETATM   21  C   UNL     1      -5.683   4.517  69.887  1.00  0.00    -0.016 C  
HETATM   22  C   UNL     1      -6.455   3.233  70.169  1.00  0.00    -0.032 C  
HETATM   23  C   UNL     1      -5.558   9.582  66.328  1.00  0.00    -0.052 A  
HETATM   24  C   UNL     1      -5.720   8.527  65.434  1.00  0.00    -0.044 A  
HETATM   25  C   UNL     1      -7.717   3.098  69.327  1.00  0.00    -0.048 C  
HETATM   26  C   UNL     1      -7.449   3.335  67.843  1.00  0.00    -0.054 C  
HETATM   27  C   UNL     1      -6.364   7.355  65.843  1.00  0.00    -0.041 A  
ENDBRANCH  10  11
ENDBRANCH   9  10
ENDBRANCH   8   9
ENDBRANCH   6   7
ENDBRANCH   3   6
ENDBRANCH   2   3
TORSDOF 7
ENDMDL
MODEL      238
REMARK 921   NORMALIZED FREE ENERGY PREDICTED BY IDOCK:   -2.90 KCAL/MOL
REMARK 922        TOTAL FREE ENERGY PREDICTED BY IDOCK:   -5.33 KCAL/MOL
REMARK 923 INTER-LIGAND FREE ENERGY PREDICTED BY IDOCK:   -4.92 KCAL/MOL
REMARK 924 INTRA-LIGAND FREE ENERGY PREDICTED BY IDOCK:   -0.41 KCAL/MOL
REMARK 927      BINDING AFFINITY PREDICTED BY RF-SCORE:    0.00 PKD
ROOT
HETATM    1  C   UNL     1      -9.472  11.125  62.747  1.00  0.00    -0.357 C  
HETATM    2  C   UNL     1     -10.469  11.777  63.702  1.00  0.00    -0.439 C  
ENDROOT
BRANCH   2   3
HETATM    3  N   UNL     1     -10.256  11.454  65.124  1.00  0.00    -0.263 NA 
BRANCH   3   4
HETATM    4  C   UNL     1     -11.394  11.799  65.992  1.00  0.00    -0.273 C  
HETATM    5  C   UNL     1     -11.973  13.200  65.835  1.00  0.00    -0.479 C  
ENDBRANCH   3   4
BRANCH   3   6
HETATM    6  C   UNL     1      -9.814  10.053  65.243  1.00  0.00    -0.318 C  
BRANCH   6   7
HETATM    7  C   UNL     1     -10.106   9.471  66.616  1.00  0.00    -0.321 C  
HETATM    8  C   UNL     1     -10.356   8.971  67.793  1.00  0.00    -0.304 C  
BRANCH   8   9
HETATM    9  C   UNL     1     -10.641   8.383  69.104  1.00  0.00    -0.163 C  
BRANCH   9  10
HETATM   10  O   UNL     1      -9.483   7.711  69.620  1.00  0.00    -0.157 OA 
BRANCH  10  11
HETATM   11  C   UNL     1      -9.736   6.827  70.634  1.00  0.00    -0.172 C  
HETATM   12  O   UNL     1     -10.833   6.668  71.158  1.00  0.00    -0.228 OA 
HETATM   13  C   UNL     1      -8.411   6.092  71.052  1.00  0.00    -0.128 C  
HETATM   14  C   UNL     1      -8.605   4.575  70.842  1.00  0.00    -0.115 A  
HETATM   15  C   UNL     1      -8.082   6.451  72.546  1.00  0.00    -0.102 C  
HETATM   16  O   UNL     1      -7.325   6.519  70.216  1.00  0.00    -0.083 OA 
HETATM   17  H   UNL     1      -6.524   6.075  70.468  1.00  0.00     0.000 HD 
HETATM   18  C   UNL     1      -7.762   3.835  69.991  1.00  0.00    -0.048 A  
HETATM   19  C   UNL     1      -6.818   5.763  73.110  1.00  0.00    -0.079 C  
HETATM   20  C   UNL     1      -7.964   2.469  69.776  1.00  0.00    -0.053 A  
HETATM   21  C   UNL     1      -5.499   6.384  72.653  1.00  0.00    -0.037 C  
HETATM   22  C   UNL     1      -5.448   7.888  72.898  1.00  0.00    -0.040 C  
HETATM   23  C   UNL     1      -9.014   1.810  70.406  1.00  0.00    -0.136 A  
HETATM   24  C   UNL     1      -9.857   2.515  71.261  1.00  0.00    -0.131 A  
HETATM   25  C   UNL     1      -6.676   8.619  72.371  1.00  0.00    -0.055 C  
HETATM   26  C   UNL     1      -7.979   7.969  72.831  1.00  0.00    -0.202 C  
HETATM   27  C   UNL     1      -9.648   3.880  71.481  1.00  0.00    -0.236 A  
ENDBRANCH  10  11
ENDBRANCH   9  10
ENDBRANCH   8   9
ENDBRANCH   6   7
ENDBRANCH   3   6
ENDBRANCH   2   3
TORSDOF 7
ENDMDL
MODEL      239
REMARK 921   NORMALIZED FREE ENERGY PREDICTED BY IDOCK:   -2.88 KCAL/MOL
REMARK 922        TOTAL FREE ENERGY PREDICTED BY IDOCK:   -5.30 KCAL/MOL
REMARK 923 INTER-LIGAND FREE ENERGY PREDICTED BY IDOCK:   -4.46 KCAL/MOL
REMARK 924 INTRA-LIGAND FREE ENERGY PREDICTED BY IDOCK:   -0.84 KCAL/MOL
REMARK 927      BINDING AFFINITY PREDICTED BY RF-SCORE:    0.00 PKD
ROOT
HETATM    1  C   UNL     1      -9.476  11.056  63.300  1.00  0.00    -0.346 C  
HETATM    2  C   UNL     1     -10.444  11.414  64.426  1.00  0.00    -0.330 C  
ENDROOT
BRANCH   2   3
HETATM    3  N   UNL     1     -11.179  12.675  64.223  1.00  0.00    -0.338 NA 
BRANCH   3   4
HETATM    4  C   UNL     1     -12.643  12.527  64.271  1.00  0.00    -0.396 C  
HETATM    5  C   UNL     1     -13.334  12.146  62.967  1.00  0.00     0.892 C  
ENDBRANCH   3   4
BRANCH   3   6
HETATM    6  C   UNL     1     -10.649  13.698  65.141  1.00  0.00    -0.361 C  
BRANCH   6   7
HETATM    7  C   UNL     1     -10.062  13.091  66.405  1.00  0.00    -0.279 C  
HETATM    8  C   UNL     1      -9.558  12.569  67.488  1.00  0.00    -0.187 C  
BRANCH   8   9
HETATM    9  C   UNL     1      -8.980  11.963  68.689  1.00  0.00    -0.041 C  
BRANCH   9  10
HETATM   10  O   UNL     1      -9.734  10.809  69.087  1.00  0.00    -0.207 OA 
BRANCH  10  11
HETATM   11  C   UNL     1      -8.992   9.799  69.638  1.00  0.00    -0.215 C  
HETATM   12  O   UNL     1      -8.053   9.970  70.410  1.00  0.00    -0.187 OA 
HETATM   13  C   UNL     1      -9.488   8.409  69.101  1.00  0.00    -0.155 C  
HETATM   14  C   UNL     1      -9.952   7.556  70.301  1.00  0.00    -0.192 A  
HETATM   15  C   UNL     1      -8.318   7.728  68.302  1.00  0.00    -0.125 C  
HETATM   16  O   UNL     1     -10.612   8.590  68.226  1.00  0.00    -0.341 OA 
HETATM   17  H   UNL     1     -10.912   7.750  67.901  1.00  0.00     0.000 HD 
HETATM   18  C   UNL     1     -11.265   7.054  70.385  1.00  0.00    -0.339 A  
HETATM   19  C   UNL     1      -8.651   6.325  67.744  1.00  0.00    -0.115 C  
HETATM   20  C   UNL     1     -11.691   6.314  71.490  1.00  0.00    -0.329 A  
HETATM   21  C   UNL     1      -9.526   6.330  66.491  1.00  0.00    -0.181 C  
HETATM   22  C   UNL     1      -8.965   7.228  65.393  1.00  0.00     0.164 C  
HETATM   23  C   UNL     1     -10.815   6.058  72.540  1.00  0.00    -0.286 A  
HETATM   24  C   UNL     1      -9.508   6.533  72.479  1.00  0.00    -0.148 A  
HETATM   25  C   UNL     1      -8.609   8.623  65.889  1.00  0.00    -0.177 C  
HETATM   26  C   UNL     1      -7.747   8.587  67.148  1.00  0.00    -0.097 C  
HETATM   27  C   UNL     1      -9.081   7.267  71.368  1.00  0.00    -0.144 A  
ENDBRANCH  10  11
ENDBRANCH   9  10
ENDBRANCH   8   9
ENDBRANCH   6   7
ENDBRANCH   3   6
ENDBRANCH   2   3
TORSDOF 7
ENDMDL
MODEL      240
REMARK 921   NORMALIZED FREE ENERGY PREDICTED BY IDOCK:   -2.86 KCAL/MOL
REMARK 922        TOTAL FREE ENERGY PREDICTED BY IDOCK:   -5.27 KCAL/MOL
REMARK 923 INTER-LIGAND FREE ENERGY PREDICTED BY IDOCK:   -4.30 KCAL/MOL
REMARK 924 INTRA-LIGAND FREE ENERGY PREDICTED BY IDOCK:   -0.97 KCAL/MOL
REMARK 927      BINDING AFFINITY PREDICTED BY RF-SCORE:    0.00 PKD
ROOT
HETATM    1  C   UNL     1      -9.103   2.427  70.370  1.00  0.00    -0.176 C  
HETATM    2  C   UNL     1      -9.520   3.668  71.155  1.00  0.00    -0.164 C  
ENDROOT
BRANCH   2   3
HETATM    3  N   UNL     1      -9.355   4.938  70.426  1.00  0.00    -0.140 NA 
BRANCH   3   4
HETATM    4  C   UNL     1      -8.178   4.971  69.543  1.00  0.00    -0.085 C  
HETATM    5  C   UNL     1      -6.902   5.568  70.126  1.00  0.00    -0.052 C  
ENDBRANCH   3   4
BRANCH   3   6
HETATM    6  C   UNL     1     -10.621   5.278  69.752  1.00  0.00    -0.213 C  
BRANCH   6   7
HETATM    7  C   UNL     1     -11.043   6.715  70.009  1.00  0.00    -0.394 C  
HETATM    8  C   UNL     1     -11.404   7.948  70.229  1.00  0.00    -0.158 C  
BRANCH   8   9
HETATM    9  C   UNL     1     -11.784   9.338  70.490  1.00  0.00    -0.176 C  
BRANCH   9  10
HETATM   10  O   UNL     1     -10.630  10.191  70.469  1.00  0.00    -0.290 OA 
BRANCH  10  11
HETATM   11  C   UNL     1     -10.677  11.197  69.541  1.00  0.00    -0.143 C  
HETATM   12  O   UNL     1     -11.583  12.019  69.455  1.00  0.00    -0.293 OA 
HETATM   13  C   UNL     1      -9.433  11.108  68.585  1.00  0.00    -0.193 C  
HETATM   14  C   UNL     1      -8.632  12.422  68.700  1.00  0.00     0.032 A  
HETATM   15  C   UNL     1      -9.938  10.842  67.121  1.00  0.00    -0.221 C  
HETATM   16  O   UNL     1      -8.576  10.030  68.990  1.00  0.00    -0.132 OA 
HETATM   17  H   UNL     1      -7.824   9.976  68.412  1.00  0.00     0.000 HD 
HETATM   18  C   UNL     1      -7.280  12.428  69.094  1.00  0.00     0.060 A  
HETATM   19  C   UNL     1      -8.818  10.770  66.057  1.00  0.00    -0.192 C  
HETATM   20  C   UNL     1      -6.569  13.623  69.231  1.00  0.00    -0.110 A  
HETATM   21  C   UNL     1      -8.038   9.456  66.044  1.00  0.00    -0.111 C  
HETATM   22  C   UNL     1      -8.950   8.238  65.950  1.00  0.00    -0.208 C  
HETATM   23  C   UNL     1      -7.192  14.841  68.979  1.00  0.00    -0.135 A  
HETATM   24  C   UNL     1      -8.525  14.863  68.578  1.00  0.00    -0.163 A  
HETATM   25  C   UNL     1     -10.081   8.260  66.970  1.00  0.00    -0.353 C  
HETATM   26  C   UNL     1     -10.834   9.589  66.970  1.00  0.00    -0.125 C  
HETATM   27  C   UNL     1      -9.233  13.667  68.433  1.00  0.00    -0.169 A  
ENDBRANCH  10  11
ENDBRANCH   9  10
ENDBRANCH   8   9
ENDBRANCH   6   7
ENDBRANCH   3   6
ENDBRANCH   2   3
TORSDOF 7
ENDMDL
MODEL      241
REMARK 921   NORMALIZED FREE ENERGY PREDICTED BY IDOCK:   -2.84 KCAL/MOL
REMARK 922        TOTAL FREE ENERGY PREDICTED BY IDOCK:   -5.24 KCAL/MOL
REMARK 923 INTER-LIGAND FREE ENERGY PREDICTED BY IDOCK:   -4.32 KCAL/MOL
REMARK 924 INTRA-LIGAND FREE ENERGY PREDICTED BY IDOCK:   -0.92 KCAL/MOL
REMARK 927      BINDING AFFINITY PREDICTED BY RF-SCORE:    0.00 PKD
ROOT
HETATM    1  C   UNL     1     -13.056  10.291  71.946  1.00  0.00    -0.568 C  
HETATM    2  C   UNL     1     -12.666   9.055  71.137  1.00  0.00    -0.192 C  
ENDROOT
BRANCH   2   3
HETATM    3  N   UNL     1     -11.236   8.708  71.203  1.00  0.00    -0.259 NA 
BRANCH   3   4
HETATM    4  C   UNL     1     -10.914   7.390  70.630  1.00  0.00    -0.256 C  
HETATM    5  C   UNL     1     -11.175   6.178  71.516  1.00  0.00    -0.346 C  
ENDBRANCH   3   4
BRANCH   3   6
HETATM    6  C   UNL     1     -10.441   9.816  70.643  1.00  0.00    -0.289 C  
BRANCH   6   7
HETATM    7  C   UNL     1      -9.043   9.376  70.242  1.00  0.00    -0.283 C  
HETATM    8  C   UNL     1      -7.843   9.000  69.897  1.00  0.00    -0.090 C  
BRANCH   8   9
HETATM    9  C   UNL     1      -6.505   8.574  69.482  1.00  0.00    -0.040 C  
BRANCH   9  10
HETATM   10  O   UNL     1      -6.308   8.817  68.082  1.00  0.00    -0.054 OA 
BRANCH  10  11
HETATM   11  C   UNL     1      -6.234   7.690  67.308  1.00  0.00    -0.053 C  
HETATM   12  O   UNL     1      -5.396   6.806  67.448  1.00  0.00    -0.008 OA 
HETATM   13  C   UNL     1      -7.344   7.726  66.196  1.00  0.00    -0.078 C  
HETATM   14  C   UNL     1      -8.260   6.498  66.377  1.00  0.00    -0.116 A  
HETATM   15  C   UNL     1      -6.649   7.750  64.787  1.00  0.00    -0.044 C  
HETATM   16  O   UNL     1      -8.151   8.905  66.341  1.00  0.00    -0.107 OA 
HETATM   17  H   UNL     1      -8.822   8.927  65.669  1.00  0.00     0.000 HD 
HETATM   18  C   UNL     1      -9.645   6.636  66.590  1.00  0.00    -0.207 A  
HETATM   19  C   UNL     1      -7.624   7.747  63.587  1.00  0.00    -0.126 C  
HETATM   20  C   UNL     1     -10.465   5.521  66.790  1.00  0.00    -0.355 A  
HETATM   21  C   UNL     1      -8.286   9.095  63.302  1.00  0.00    -0.177 C  
HETATM   22  C   UNL     1      -7.270  10.224  63.167  1.00  0.00    -0.112 C  
HETATM   23  C   UNL     1      -9.919   4.242  66.782  1.00  0.00    -0.191 A  
HETATM   24  C   UNL     1      -8.554   4.075  66.563  1.00  0.00    -0.110 A  
HETATM   25  C   UNL     1      -6.274  10.270  64.319  1.00  0.00    -0.109 C  
HETATM   26  C   UNL     1      -5.640   8.908  64.590  1.00  0.00    -0.062 C  
HETATM   27  C   UNL     1      -7.737   5.191  66.355  1.00  0.00    -0.092 A  
ENDBRANCH  10  11
ENDBRANCH   9  10
ENDBRANCH   8   9
ENDBRANCH   6   7
ENDBRANCH   3   6
ENDBRANCH   2   3
TORSDOF 7
ENDMDL
MODEL      242
REMARK 921   NORMALIZED FREE ENERGY PREDICTED BY IDOCK:   -2.82 KCAL/MOL
REMARK 922        TOTAL FREE ENERGY PREDICTED BY IDOCK:   -5.21 KCAL/MOL
REMARK 923 INTER-LIGAND FREE ENERGY PREDICTED BY IDOCK:   -4.35 KCAL/MOL
REMARK 924 INTRA-LIGAND FREE ENERGY PREDICTED BY IDOCK:   -0.86 KCAL/MOL
REMARK 927      BINDING AFFINITY PREDICTED BY RF-SCORE:    0.00 PKD
ROOT
HETATM    1  C   UNL     1     -12.034  13.083  65.132  1.00  0.00    -0.440 C  
HETATM    2  C   UNL     1     -11.196  11.845  64.824  1.00  0.00    -0.297 C  
ENDROOT
BRANCH   2   3
HETATM    3  N   UNL     1     -10.401  11.345  65.959  1.00  0.00    -0.242 NA 
BRANCH   3   4
HETATM    4  C   UNL     1     -10.875  11.815  67.272  1.00  0.00    -0.253 C  
HETATM    5  C   UNL     1     -11.646  10.809  68.120  1.00  0.00    -0.276 C  
ENDBRANCH   3   4
BRANCH   3   6
HETATM    6  C   UNL     1     -10.274   9.881  65.856  1.00  0.00    -0.194 C  
BRANCH   6   7
HETATM    7  C   UNL     1      -9.043   9.357  66.578  1.00  0.00    -0.188 C  
HETATM    8  C   UNL     1      -7.988   8.909  67.198  1.00  0.00    -0.096 C  
BRANCH   8   9
HETATM    9  C   UNL     1      -6.801   8.430  67.909  1.00  0.00    -0.067 C  
BRANCH   9  10
HETATM   10  O   UNL     1      -7.162   7.880  69.184  1.00  0.00    -0.077 OA 
BRANCH  10  11
HETATM   11  C   UNL     1      -7.379   6.528  69.187  1.00  0.00    -0.093 C  
HETATM   12  O   UNL     1      -7.035   5.769  68.286  1.00  0.00    -0.064 OA 
HETATM   13  C   UNL     1      -8.168   6.111  70.480  1.00  0.00    -0.114 C  
HETATM   14  C   UNL     1      -7.310   5.103  71.274  1.00  0.00    -0.078 A  
HETATM   15  C   UNL     1      -9.556   5.508  70.054  1.00  0.00    -0.218 C  
HETATM   16  O   UNL     1      -8.391   7.257  71.315  1.00  0.00    -0.110 OA 
HETATM   17  H   UNL     1      -8.868   7.005  72.096  1.00  0.00     0.000 HD 
HETATM   18  C   UNL     1      -6.919   5.355  72.603  1.00  0.00    -0.082 A  
HETATM   19  C   UNL     1     -10.430   5.013  71.229  1.00  0.00    -0.213 C  
HETATM   20  C   UNL     1      -6.112   4.456  73.306  1.00  0.00    -0.020 A  
HETATM   21  C   UNL     1     -11.134   6.123  72.009  1.00  0.00    -0.322 C  
HETATM   22  C   UNL     1     -11.927   7.058  71.103  1.00  0.00    -0.398 C  
HETATM   23  C   UNL     1      -5.675   3.285  72.696  1.00  0.00    -0.008 A  
HETATM   24  C   UNL     1      -6.055   3.006  71.386  1.00  0.00    -0.014 A  
HETATM   25  C   UNL     1     -11.117   7.570  69.919  1.00  0.00    -0.185 C  
HETATM   26  C   UNL     1     -10.414   6.442  69.167  1.00  0.00    -0.274 C  
HETATM   27  C   UNL     1      -6.869   3.902  70.687  1.00  0.00    -0.033 A  
ENDBRANCH  10  11
ENDBRANCH   9  10
ENDBRANCH   8   9
ENDBRANCH   6   7
ENDBRANCH   3   6
ENDBRANCH   2   3
TORSDOF 7
ENDMDL
MODEL      243
REMARK 921   NORMALIZED FREE ENERGY PREDICTED BY IDOCK:   -2.81 KCAL/MOL
REMARK 922        TOTAL FREE ENERGY PREDICTED BY IDOCK:   -5.21 KCAL/MOL
REMARK 923 INTER-LIGAND FREE ENERGY PREDICTED BY IDOCK:   -4.49 KCAL/MOL
REMARK 924 INTRA-LIGAND FREE ENERGY PREDICTED BY IDOCK:   -0.72 KCAL/MOL
REMARK 927      BINDING AFFINITY PREDICTED BY RF-SCORE:    0.00 PKD
ROOT
HETATM    1  C   UNL     1     -10.766   4.498  73.793  1.00  0.00    -0.348 C  
HETATM    2  C   UNL     1      -9.499   5.000  73.105  1.00  0.00    -0.134 C  
ENDROOT
BRANCH   2   3
HETATM    3  N   UNL     1      -8.929   6.226  73.691  1.00  0.00    -0.124 NA 
BRANCH   3   4
HETATM    4  C   UNL     1      -7.852   6.827  72.886  1.00  0.00    -0.098 C  
HETATM    5  C   UNL     1      -6.621   7.310  73.644  1.00  0.00    -0.065 C  
ENDBRANCH   3   4
BRANCH   3   6
HETATM    6  C   UNL     1     -10.021   7.158  74.023  1.00  0.00    -0.272 C  
BRANCH   6   7
HETATM    7  C   UNL     1     -10.323   8.121  72.887  1.00  0.00    -0.333 C  
HETATM    8  C   UNL     1     -10.581   8.946  71.912  1.00  0.00    -0.419 C  
BRANCH   8   9
HETATM    9  C   UNL     1     -10.847   9.889  70.823  1.00  0.00    -0.317 C  
BRANCH   9  10
HETATM   10  O   UNL     1     -11.066   9.189  69.590  1.00  0.00    -0.196 OA 
BRANCH  10  11
HETATM   11  C   UNL     1     -10.399   9.704  68.511  1.00  0.00    -0.205 C  
HETATM   12  O   UNL     1     -10.832  10.596  67.788  1.00  0.00    -0.240 OA 
HETATM   13  C   UNL     1      -9.033   8.953  68.313  1.00  0.00    -0.137 C  
HETATM   14  C   UNL     1      -7.888   9.983  68.421  1.00  0.00    -0.089 A  
HETATM   15  C   UNL     1      -9.052   8.225  66.921  1.00  0.00    -0.181 C  
HETATM   16  O   UNL     1      -8.850   7.978  69.351  1.00  0.00    -0.142 OA 
HETATM   17  H   UNL     1      -8.025   7.525  69.232  1.00  0.00     0.000 HD 
HETATM   18  C   UNL     1      -6.866   9.851  69.381  1.00  0.00    -0.060 A  
HETATM   19  C   UNL     1      -7.747   7.472  66.570  1.00  0.00    -0.097 C  
HETATM   20  C   UNL     1      -5.852  10.805  69.499  1.00  0.00    -0.043 A  
HETATM   21  C   UNL     1      -7.574   6.134  67.287  1.00  0.00    -0.093 C  
HETATM   22  C   UNL     1      -8.784   5.222  67.118  1.00  0.00    -0.107 C  
HETATM   23  C   UNL     1      -5.835  11.915  68.660  1.00  0.00    -0.049 A  
HETATM   24  C   UNL     1      -6.827  12.064  67.694  1.00  0.00    -0.115 A  
HETATM   25  C   UNL     1     -10.102   5.915  67.440  1.00  0.00    -0.201 C  
HETATM   26  C   UNL     1     -10.242   7.255  66.722  1.00  0.00    -0.305 C  
HETATM   27  C   UNL     1      -7.836  11.105  67.572  1.00  0.00    -0.117 A  
ENDBRANCH  10  11
ENDBRANCH   9  10
ENDBRANCH   8   9
ENDBRANCH   6   7
ENDBRANCH   3   6
ENDBRANCH   2   3
TORSDOF 7
ENDMDL
MODEL      244
REMARK 921   NORMALIZED FREE ENERGY PREDICTED BY IDOCK:   -2.81 KCAL/MOL
REMARK 922        TOTAL FREE ENERGY PREDICTED BY IDOCK:   -5.20 KCAL/MOL
REMARK 923 INTER-LIGAND FREE ENERGY PREDICTED BY IDOCK:   -4.57 KCAL/MOL
REMARK 924 INTRA-LIGAND FREE ENERGY PREDICTED BY IDOCK:   -0.62 KCAL/MOL
REMARK 927      BINDING AFFINITY PREDICTED BY RF-SCORE:    0.00 PKD
ROOT
HETATM    1  C   UNL     1     -10.329  11.719  65.791  1.00  0.00    -0.293 C  
HETATM    2  C   UNL     1      -9.931  12.915  64.930  1.00  0.00    -0.130 C  
ENDROOT
BRANCH   2   3
HETATM    3  N   UNL     1     -10.777  13.122  63.742  1.00  0.00    -0.204 NA 
BRANCH   3   4
HETATM    4  C   UNL     1     -11.388  11.888  63.221  1.00  0.00    -0.283 C  
HETATM    5  C   UNL     1     -12.860  11.965  62.832  1.00  0.00     0.316 C  
ENDBRANCH   3   4
BRANCH   3   6
HETATM    6  C   UNL     1     -11.744  14.201  64.016  1.00  0.00    -0.207 C  
BRANCH   6   7
HETATM    7  C   UNL     1     -11.115  15.358  64.774  1.00  0.00    -0.416 C  
HETATM    8  C   UNL     1     -10.576  16.352  65.424  1.00  0.00    -0.338 C  
BRANCH   8   9
HETATM    9  C   UNL     1      -9.998  17.480  66.158  1.00  0.00    -0.270 C  
BRANCH   9  10
HETATM   10  O   UNL     1      -8.795  17.081  66.832  1.00  0.00    -0.212 OA 
BRANCH  10  11
HETATM   11  C   UNL     1      -8.957  16.757  68.152  1.00  0.00    -0.224 C  
HETATM   12  O   UNL     1      -9.188  17.568  69.042  1.00  0.00    -0.201 OA 
HETATM   13  C   UNL     1      -8.756  15.212  68.357  1.00  0.00    -0.169 C  
HETATM   14  C   UNL     1     -10.056  14.622  68.944  1.00  0.00    -0.234 A  
HETATM   15  C   UNL     1      -7.518  14.982  69.297  1.00  0.00    -0.188 C  
HETATM   16  O   UNL     1      -8.512  14.574  67.094  1.00  0.00    -0.200 OA 
HETATM   17  H   UNL     1      -8.390  13.640  67.217  1.00  0.00     0.000 HD 
HETATM   18  C   UNL     1     -10.764  13.598  68.286  1.00  0.00    -0.266 A  
HETATM   19  C   UNL     1      -7.222  13.500  69.621  1.00  0.00     0.376 C  
HETATM   20  C   UNL     1     -11.959  13.092  68.804  1.00  0.00    -0.302 A  
HETATM   21  C   UNL     1      -6.532  12.729  68.496  1.00  0.00    -0.082 C  
HETATM   22  C   UNL     1      -5.276  13.432  67.995  1.00  0.00    -0.111 C  
HETATM   23  C   UNL     1     -12.476  13.598  69.992  1.00  0.00    -0.267 A  
HETATM   24  C   UNL     1     -11.791  14.604  70.669  1.00  0.00    -0.367 A  
HETATM   25  C   UNL     1      -5.505  14.901  67.668  1.00  0.00     0.025 C  
HETATM   26  C   UNL     1      -6.208  15.643  68.802  1.00  0.00    -0.103 C  
HETATM   27  C   UNL     1     -10.591  15.103  70.154  1.00  0.00    -0.227 A  
ENDBRANCH  10  11
ENDBRANCH   9  10
ENDBRANCH   8   9
ENDBRANCH   6   7
ENDBRANCH   3   6
ENDBRANCH   2   3
TORSDOF 7
ENDMDL
MODEL      245
REMARK 921   NORMALIZED FREE ENERGY PREDICTED BY IDOCK:   -2.79 KCAL/MOL
REMARK 922        TOTAL FREE ENERGY PREDICTED BY IDOCK:   -5.18 KCAL/MOL
REMARK 923 INTER-LIGAND FREE ENERGY PREDICTED BY IDOCK:   -4.93 KCAL/MOL
REMARK 924 INTRA-LIGAND FREE ENERGY PREDICTED BY IDOCK:   -0.25 KCAL/MOL
REMARK 927      BINDING AFFINITY PREDICTED BY RF-SCORE:    0.00 PKD
ROOT
HETATM    1  C   UNL     1      -5.710   2.530  65.015  1.00  0.00    -0.017 C  
HETATM    2  C   UNL     1      -7.019   2.246  65.749  1.00  0.00    -0.047 C  
ENDROOT
BRANCH   2   3
HETATM    3  N   UNL     1      -7.924   3.403  65.857  1.00  0.00    -0.091 NA 
BRANCH   3   4
HETATM    4  C   UNL     1      -8.537   3.803  64.580  1.00  0.00    -0.105 C  
HETATM    5  C   UNL     1      -9.377   2.750  63.866  1.00  0.00    -0.112 C  
ENDBRANCH   3   4
BRANCH   3   6
HETATM    6  C   UNL     1      -8.895   3.161  66.939  1.00  0.00    -0.143 C  
BRANCH   6   7
HETATM    7  C   UNL     1      -9.708   4.400  67.272  1.00  0.00    -0.222 C  
HETATM    8  C   UNL     1     -10.406   5.464  67.559  1.00  0.00    -0.246 C  
BRANCH   8   9
HETATM    9  C   UNL     1     -11.213   6.641  67.887  1.00  0.00    -0.128 C  
BRANCH   9  10
HETATM   10  O   UNL     1     -10.373   7.779  68.129  1.00  0.00    -0.197 OA 
BRANCH  10  11
HETATM   11  C   UNL     1      -9.798   8.316  67.008  1.00  0.00    -0.232 C  
HETATM   12  O   UNL     1      -9.570   7.691  65.978  1.00  0.00    -0.070 OA 
HETATM   13  C   UNL     1      -9.434   9.824  67.259  1.00  0.00    -0.153 C  
HETATM   14  C   UNL     1     -10.196  10.689  66.232  1.00  0.00    -0.304 A  
HETATM   15  C   UNL     1      -7.876   9.996  67.146  1.00  0.00    -0.099 C  
HETATM   16  O   UNL     1      -9.856  10.222  68.572  1.00  0.00    -0.155 OA 
HETATM   17  H   UNL     1      -9.637  11.134  68.724  1.00  0.00     0.000 HD 
HETATM   18  C   UNL     1     -11.086  11.702  66.637  1.00  0.00    -0.364 A  
HETATM   19  C   UNL     1      -7.373  11.446  67.331  1.00  0.00    -0.119 C  
HETATM   20  C   UNL     1     -11.800  12.458  65.704  1.00  0.00    -0.468 A  
HETATM   21  C   UNL     1      -7.336  11.925  68.782  1.00  0.00    -0.105 C  
HETATM   22  C   UNL     1      -6.573  10.969  69.692  1.00  0.00    -0.132 C  
HETATM   23  C   UNL     1     -11.642  12.220  64.343  1.00  0.00    -0.428 A  
HETATM   24  C   UNL     1     -10.760  11.232  63.914  1.00  0.00    -0.451 A  
HETATM   25  C   UNL     1      -7.021   9.521  69.544  1.00  0.00    -0.059 C  
HETATM   26  C   UNL     1      -7.061   9.073  68.085  1.00  0.00    -0.078 C  
HETATM   27  C   UNL     1     -10.040  10.482  64.848  1.00  0.00    -0.403 A  
ENDBRANCH  10  11
ENDBRANCH   9  10
ENDBRANCH   8   9
ENDBRANCH   6   7
ENDBRANCH   3   6
ENDBRANCH   2   3
TORSDOF 7
ENDMDL
MODEL      246
REMARK 921   NORMALIZED FREE ENERGY PREDICTED BY IDOCK:   -2.76 KCAL/MOL
REMARK 922        TOTAL FREE ENERGY PREDICTED BY IDOCK:   -5.13 KCAL/MOL
REMARK 923 INTER-LIGAND FREE ENERGY PREDICTED BY IDOCK:   -4.83 KCAL/MOL
REMARK 924 INTRA-LIGAND FREE ENERGY PREDICTED BY IDOCK:   -0.30 KCAL/MOL
REMARK 927      BINDING AFFINITY PREDICTED BY RF-SCORE:    0.00 PKD
ROOT
HETATM    1  C   UNL     1     -11.519  11.340  67.463  1.00  0.00    -0.324 C  
HETATM    2  C   UNL     1     -11.013  12.422  68.415  1.00  0.00    -0.241 C  
ENDROOT
BRANCH   2   3
HETATM    3  N   UNL     1     -10.668  13.698  67.764  1.00  0.00    -0.243 NA 
BRANCH   3   4
HETATM    4  C   UNL     1     -10.601  14.841  68.689  1.00  0.00    -0.255 C  
HETATM    5  C   UNL     1     -11.803  15.052  69.604  1.00  0.00    -0.358 C  
ENDBRANCH   3   4
BRANCH   3   6
HETATM    6  C   UNL     1      -9.455  13.514  66.949  1.00  0.00    -0.258 C  
BRANCH   6   7
HETATM    7  C   UNL     1      -8.477  12.538  67.583  1.00  0.00    -0.171 C  
HETATM    8  C   UNL     1      -7.639  11.701  68.127  1.00  0.00    -0.115 C  
BRANCH   8   9
HETATM    9  C   UNL     1      -6.719  10.751  68.757  1.00  0.00    -0.060 C  
BRANCH   9  10
HETATM   10  O   UNL     1      -7.440   9.800  69.554  1.00  0.00    -0.079 OA 
BRANCH  10  11
HETATM   11  C   UNL     1      -8.036   8.792  68.845  1.00  0.00    -0.105 C  
HETATM   12  O   UNL     1      -8.191   8.796  67.629  1.00  0.00    -0.109 OA 
HETATM   13  C   UNL     1      -8.527   7.664  69.823  1.00  0.00    -0.134 C  
HETATM   14  C   UNL     1      -7.821   6.345  69.445  1.00  0.00    -0.105 A  
HETATM   15  C   UNL     1     -10.092   7.553  69.723  1.00  0.00    -0.194 C  
HETATM   16  O   UNL     1      -8.165   7.988  71.174  1.00  0.00    -0.098 OA 
HETATM   17  H   UNL     1      -8.462   7.307  71.765  1.00  0.00     0.000 HD 
HETATM   18  C   UNL     1      -7.025   5.643  70.370  1.00  0.00    -0.058 A  
HETATM   19  C   UNL     1     -10.717   6.449  70.606  1.00  0.00    -0.310 C  
HETATM   20  C   UNL     1      -6.358   4.468  70.012  1.00  0.00    -0.027 A  
HETATM   21  C   UNL     1     -10.821   6.804  72.089  1.00  0.00    -0.257 C  
HETATM   22  C   UNL     1     -11.520   8.139  72.320  1.00  0.00    -0.435 C  
HETATM   23  C   UNL     1      -6.469   3.967  68.719  1.00  0.00    -0.037 A  
HETATM   24  C   UNL     1      -7.259   4.635  67.787  1.00  0.00    -0.066 A  
HETATM   25  C   UNL     1     -10.951   9.265  71.467  1.00  0.00    -0.446 C  
HETATM   26  C   UNL     1     -10.846   8.878  69.993  1.00  0.00    -0.239 C  
HETATM   27  C   UNL     1      -7.932   5.806  68.149  1.00  0.00    -0.104 A  
ENDBRANCH  10  11
ENDBRANCH   9  10
ENDBRANCH   8   9
ENDBRANCH   6   7
ENDBRANCH   3   6
ENDBRANCH   2   3
TORSDOF 7
ENDMDL
MODEL      247
REMARK 921   NORMALIZED FREE ENERGY PREDICTED BY IDOCK:   -2.75 KCAL/MOL
REMARK 922        TOTAL FREE ENERGY PREDICTED BY IDOCK:   -5.12 KCAL/MOL
REMARK 923 INTER-LIGAND FREE ENERGY PREDICTED BY IDOCK:   -4.86 KCAL/MOL
REMARK 924 INTRA-LIGAND FREE ENERGY PREDICTED BY IDOCK:   -0.26 KCAL/MOL
REMARK 927      BINDING AFFINITY PREDICTED BY RF-SCORE:    0.00 PKD
ROOT
HETATM    1  C   UNL     1     -10.576   6.027  72.098  1.00  0.00    -0.256 C  
HETATM    2  C   UNL     1      -9.465   6.707  72.896  1.00  0.00    -0.138 C  
ENDROOT
BRANCH   2   3
HETATM    3  N   UNL     1      -8.664   7.676  72.127  1.00  0.00    -0.117 NA 
BRANCH   3   4
HETATM    4  C   UNL     1      -7.357   7.157  71.691  1.00  0.00    -0.085 C  
HETATM    5  C   UNL     1      -6.134   7.991  72.058  1.00  0.00    -0.043 C  
ENDBRANCH   3   4
BRANCH   3   6
HETATM    6  C   UNL     1      -9.486   8.227  71.035  1.00  0.00    -0.161 C  
BRANCH   6   7
HETATM    7  C   UNL     1      -8.767   9.328  70.273  1.00  0.00    -0.246 C  
HETATM    8  C   UNL     1      -8.150  10.272  69.619  1.00  0.00    -0.157 C  
BRANCH   8   9
HETATM    9  C   UNL     1      -7.432  11.324  68.896  1.00  0.00    -0.123 C  
BRANCH   9  10
HETATM   10  O   UNL     1      -8.122  11.668  67.686  1.00  0.00    -0.128 OA 
BRANCH  10  11
HETATM   11  C   UNL     1      -9.358  11.097  67.548  1.00  0.00    -0.168 C  
HETATM   12  O   UNL     1      -9.550   9.918  67.268  1.00  0.00    -0.153 OA 
HETATM   13  C   UNL     1     -10.478  12.179  67.752  1.00  0.00    -0.205 C  
HETATM   14  C   UNL     1     -11.365  11.750  68.940  1.00  0.00    -0.326 A  
HETATM   15  C   UNL     1     -11.296  12.320  66.417  1.00  0.00    -0.405 C  
HETATM   16  O   UNL     1      -9.887  13.447  68.076  1.00  0.00    -0.216 OA 
HETATM   17  H   UNL     1     -10.564  14.101  68.199  1.00  0.00     0.000 HD 
HETATM   18  C   UNL     1     -11.530  12.571  70.071  1.00  0.00    -0.095 A  
HETATM   19  C   UNL     1     -12.466  13.329  66.481  1.00  0.00    -0.184 C  
HETATM   20  C   UNL     1     -12.305  12.162  71.160  1.00  0.00    -0.265 A  
HETATM   21  C   UNL     1     -12.045  14.796  66.398  1.00  0.00    -0.121 C  
HETATM   22  C   UNL     1     -11.156  15.078  65.192  1.00  0.00    -0.408 C  
HETATM   23  C   UNL     1     -12.933  10.921  71.144  1.00  0.00    -0.449 A  
HETATM   24  C   UNL     1     -12.796  10.093  70.033  1.00  0.00     0.151 A  
HETATM   25  C   UNL     1      -9.989  14.106  65.071  1.00  0.00    -0.216 C  
HETATM   26  C   UNL     1     -10.437  12.650  65.172  1.00  0.00    -0.319 C  
HETATM   27  C   UNL     1     -12.027  10.507  68.942  1.00  0.00    -0.030 A  
ENDBRANCH  10  11
ENDBRANCH   9  10
ENDBRANCH   8   9
ENDBRANCH   6   7
ENDBRANCH   3   6
ENDBRANCH   2   3
TORSDOF 7
ENDMDL
MODEL      248
REMARK 921   NORMALIZED FREE ENERGY PREDICTED BY IDOCK:   -2.75 KCAL/MOL
REMARK 922        TOTAL FREE ENERGY PREDICTED BY IDOCK:   -5.12 KCAL/MOL
REMARK 923 INTER-LIGAND FREE ENERGY PREDICTED BY IDOCK:   -4.60 KCAL/MOL
REMARK 924 INTRA-LIGAND FREE ENERGY PREDICTED BY IDOCK:   -0.52 KCAL/MOL
REMARK 927      BINDING AFFINITY PREDICTED BY RF-SCORE:    0.00 PKD
ROOT
HETATM    1  C   UNL     1     -10.129   4.784  73.558  1.00  0.00    -0.198 C  
HETATM    2  C   UNL     1     -10.223   5.668  72.317  1.00  0.00    -0.199 C  
ENDROOT
BRANCH   2   3
HETATM    3  N   UNL     1     -10.502   7.088  72.595  1.00  0.00    -0.213 NA 
BRANCH   3   4
HETATM    4  C   UNL     1      -9.300   7.937  72.632  1.00  0.00    -0.213 C  
HETATM    5  C   UNL     1      -8.475   7.899  73.913  1.00  0.00    -0.316 C  
ENDBRANCH   3   4
BRANCH   3   6
HETATM    6  C   UNL     1     -11.547   7.566  71.674  1.00  0.00    -0.268 C  
BRANCH   6   7
HETATM    7  C   UNL     1     -11.205   7.287  70.220  1.00  0.00    -0.287 C  
HETATM    8  C   UNL     1     -10.911   7.046  68.973  1.00  0.00    -0.212 C  
BRANCH   8   9
HETATM    9  C   UNL     1     -10.552   6.778  67.578  1.00  0.00    -0.279 C  
BRANCH   9  10
HETATM   10  O   UNL     1     -10.751   7.947  66.771  1.00  0.00    -0.304 OA 
BRANCH  10  11
HETATM   11  C   UNL     1     -10.082   9.062  67.201  1.00  0.00    -0.243 C  
HETATM   12  O   UNL     1     -10.601   9.990  67.812  1.00  0.00    -0.224 OA 
HETATM   13  C   UNL     1      -8.577   8.993  66.756  1.00  0.00    -0.123 C  
HETATM   14  C   UNL     1      -7.689   9.030  68.018  1.00  0.00    -0.097 A  
HETATM   15  C   UNL     1      -8.281  10.191  65.783  1.00  0.00    -0.144 C  
HETATM   16  O   UNL     1      -8.320   7.757  66.071  1.00  0.00    -0.118 OA 
HETATM   17  H   UNL     1      -7.410   7.715  65.801  1.00  0.00     0.000 HD 
HETATM   18  C   UNL     1      -6.783   7.994  68.313  1.00  0.00    -0.067 A  
HETATM   19  C   UNL     1      -6.817  10.275  65.291  1.00  0.00    -0.131 C  
HETATM   20  C   UNL     1      -6.008   8.014  69.475  1.00  0.00    -0.033 A  
HETATM   21  C   UNL     1      -6.457   9.274  64.194  1.00  0.00    -0.090 C  
HETATM   22  C   UNL     1      -7.424   9.327  63.017  1.00  0.00    -0.105 C  
HETATM   23  C   UNL     1      -6.122   9.071  70.373  1.00  0.00    -0.037 A  
HETATM   24  C   UNL     1      -7.003  10.115  70.101  1.00  0.00    -0.157 A  
HETATM   25  C   UNL     1      -8.885   9.258  63.443  1.00  0.00    -0.150 C  
HETATM   26  C   UNL     1      -9.213  10.258  64.549  1.00  0.00    -0.295 C  
HETATM   27  C   UNL     1      -7.771  10.097  68.933  1.00  0.00    -0.093 A  
ENDBRANCH  10  11
ENDBRANCH   9  10
ENDBRANCH   8   9
ENDBRANCH   6   7
ENDBRANCH   3   6
ENDBRANCH   2   3
TORSDOF 7
ENDMDL
MODEL      249
REMARK 921   NORMALIZED FREE ENERGY PREDICTED BY IDOCK:   -2.74 KCAL/MOL
REMARK 922        TOTAL FREE ENERGY PREDICTED BY IDOCK:   -5.11 KCAL/MOL
REMARK 923 INTER-LIGAND FREE ENERGY PREDICTED BY IDOCK:   -4.60 KCAL/MOL
REMARK 924 INTRA-LIGAND FREE ENERGY PREDICTED BY IDOCK:   -0.51 KCAL/MOL
REMARK 927      BINDING AFFINITY PREDICTED BY RF-SCORE:    0.00 PKD
ROOT
HETATM    1  C   UNL     1     -11.160  15.106  69.033  1.00  0.00    -0.260 C  
HETATM    2  C   UNL     1     -10.709  13.683  68.712  1.00  0.00    -0.244 C  
ENDROOT
BRANCH   2   3
HETATM    3  N   UNL     1     -11.796  12.772  68.312  1.00  0.00    -0.330 NA 
BRANCH   3   4
HETATM    4  C   UNL     1     -11.999  12.689  66.856  1.00  0.00    -0.275 C  
HETATM    5  C   UNL     1     -11.817  13.979  66.065  1.00  0.00    -0.401 C  
ENDBRANCH   3   4
BRANCH   3   6
HETATM    6  C   UNL     1     -11.601  11.467  68.966  1.00  0.00    -0.317 C  
BRANCH   6   7
HETATM    7  C   UNL     1     -10.628  10.580  68.206  1.00  0.00    -0.240 C  
HETATM    8  C   UNL     1      -9.794   9.820  67.553  1.00  0.00    -0.209 C  
BRANCH   8   9
HETATM    9  C   UNL     1      -8.880   8.951  66.808  1.00  0.00    -0.124 C  
BRANCH   9  10
HETATM   10  O   UNL     1      -8.359   7.919  67.658  1.00  0.00    -0.122 OA 
BRANCH  10  11
HETATM   11  C   UNL     1      -9.070   6.750  67.644  1.00  0.00    -0.117 C  
HETATM   12  O   UNL     1      -9.961   6.490  66.842  1.00  0.00    -0.154 OA 
HETATM   13  C   UNL     1      -8.609   5.824  68.826  1.00  0.00    -0.109 C  
HETATM   14  C   UNL     1      -8.077   4.501  68.235  1.00  0.00    -0.083 A  
HETATM   15  C   UNL     1      -9.825   5.598  69.796  1.00  0.00    -0.245 C  
HETATM   16  O   UNL     1      -7.538   6.446  69.553  1.00  0.00    -0.090 OA 
HETATM   17  H   UNL     1      -7.260   5.886  70.268  1.00  0.00     0.000 HD 
HETATM   18  C   UNL     1      -6.763   4.059  68.481  1.00  0.00    -0.046 A  
HETATM   19  C   UNL     1      -9.529   4.667  70.995  1.00  0.00    -0.227 C  
HETATM   20  C   UNL     1      -6.275   2.879  67.914  1.00  0.00    -0.032 A  
HETATM   21  C   UNL     1      -8.729   5.318  72.122  1.00  0.00    -0.131 C  
HETATM   22  C   UNL     1      -9.351   6.626  72.597  1.00  0.00    -0.149 C  
HETATM   23  C   UNL     1      -7.088   2.112  67.086  1.00  0.00    -0.047 A  
HETATM   24  C   UNL     1      -8.396   2.520  66.835  1.00  0.00    -0.089 A  
HETATM   25  C   UNL     1      -9.675   7.581  71.456  1.00  0.00    -0.184 C  
HETATM   26  C   UNL     1     -10.462   6.901  70.338  1.00  0.00    -0.229 C  
HETATM   27  C   UNL     1      -8.885   3.696  67.410  1.00  0.00    -0.144 A  
ENDBRANCH  10  11
ENDBRANCH   9  10
ENDBRANCH   8   9
ENDBRANCH   6   7
ENDBRANCH   3   6
ENDBRANCH   2   3
TORSDOF 7
ENDMDL
MODEL      250
REMARK 921   NORMALIZED FREE ENERGY PREDICTED BY IDOCK:   -2.71 KCAL/MOL
REMARK 922        TOTAL FREE ENERGY PREDICTED BY IDOCK:   -5.06 KCAL/MOL
REMARK 923 INTER-LIGAND FREE ENERGY PREDICTED BY IDOCK:   -4.84 KCAL/MOL
REMARK 924 INTRA-LIGAND FREE ENERGY PREDICTED BY IDOCK:   -0.21 KCAL/MOL
REMARK 927      BINDING AFFINITY PREDICTED BY RF-SCORE:    0.00 PKD
ROOT
HETATM    1  C   UNL     1     -12.530  15.409  64.311  1.00  0.00     0.048 C  
HETATM    2  C   UNL     1     -11.384  14.579  64.883  1.00  0.00    -0.394 C  
ENDROOT
BRANCH   2   3
HETATM    3  N   UNL     1     -10.189  15.358  65.254  1.00  0.00    -0.366 NA 
BRANCH   3   4
HETATM    4  C   UNL     1     -10.492  16.692  65.798  1.00  0.00    -0.311 C  
HETATM    5  C   UNL     1     -10.572  16.808  67.316  1.00  0.00    -0.275 C  
ENDBRANCH   3   4
BRANCH   3   6
HETATM    6  C   UNL     1      -9.325  14.538  66.121  1.00  0.00    -0.209 C  
BRANCH   6   7
HETATM    7  C   UNL     1     -10.070  13.363  66.732  1.00  0.00    -0.260 C  
HETATM    8  C   UNL     1     -10.711  12.356  67.256  1.00  0.00    -0.259 C  
BRANCH   8   9
HETATM    9  C   UNL     1     -11.455  11.236  67.837  1.00  0.00    -0.288 C  
BRANCH   9  10
HETATM   10  O   UNL     1     -10.828   9.988  67.510  1.00  0.00    -0.277 OA 
BRANCH  10  11
HETATM   11  C   UNL     1      -9.493   9.920  67.808  1.00  0.00    -0.140 C  
HETATM   12  O   UNL     1      -8.912  10.690  68.566  1.00  0.00    -0.141 OA 
HETATM   13  C   UNL     1      -8.820   8.750  67.004  1.00  0.00    -0.127 C  
HETATM   14  C   UNL     1      -8.213   7.750  68.010  1.00  0.00    -0.123 A  
HETATM   15  C   UNL     1      -7.738   9.357  66.038  1.00  0.00    -0.099 C  
HETATM   16  O   UNL     1      -9.805   8.053  66.226  1.00  0.00    -0.406 OA 
HETATM   17  H   UNL     1      -9.398   7.347  65.740  1.00  0.00     0.000 HD 
HETATM   18  C   UNL     1      -8.601   6.397  68.029  1.00  0.00    -0.117 A  
HETATM   19  C   UNL     1      -6.960   8.312  65.206  1.00  0.00    -0.066 C  
HETATM   20  C   UNL     1      -8.076   5.502  68.966  1.00  0.00    -0.095 A  
HETATM   21  C   UNL     1      -7.731   7.747  64.013  1.00  0.00    -0.126 C  
HETATM   22  C   UNL     1      -8.295   8.841  63.114  1.00  0.00    -0.167 C  
HETATM   23  C   UNL     1      -7.149   5.940  69.906  1.00  0.00    -0.068 A  
HETATM   24  C   UNL     1      -6.738   7.270  69.903  1.00  0.00    -0.051 A  
HETATM   25  C   UNL     1      -9.065   9.907  63.883  1.00  0.00    -0.298 C  
HETATM   26  C   UNL     1      -8.277  10.443  65.075  1.00  0.00    -0.152 C  
HETATM   27  C   UNL     1      -7.259   8.161  68.960  1.00  0.00    -0.074 A  
ENDBRANCH  10  11
ENDBRANCH   9  10
ENDBRANCH   8   9
ENDBRANCH   6   7
ENDBRANCH   3   6
ENDBRANCH   2   3
TORSDOF 7
ENDMDL
MODEL      251
REMARK 921   NORMALIZED FREE ENERGY PREDICTED BY IDOCK:   -2.71 KCAL/MOL
REMARK 922        TOTAL FREE ENERGY PREDICTED BY IDOCK:   -5.06 KCAL/MOL
REMARK 923 INTER-LIGAND FREE ENERGY PREDICTED BY IDOCK:   -3.98 KCAL/MOL
REMARK 924 INTRA-LIGAND FREE ENERGY PREDICTED BY IDOCK:   -1.08 KCAL/MOL
REMARK 927      BINDING AFFINITY PREDICTED BY RF-SCORE:    0.00 PKD
ROOT
HETATM    1  C   UNL     1      -9.943  11.068  63.831  1.00  0.00    -0.396 C  
HETATM    2  C   UNL     1     -10.208  11.363  65.305  1.00  0.00    -0.270 C  
ENDROOT
BRANCH   2   3
HETATM    3  N   UNL     1      -9.792  12.707  65.744  1.00  0.00    -0.255 NA 
BRANCH   3   4
HETATM    4  C   UNL     1     -10.889  13.688  65.784  1.00  0.00    -0.273 C  
HETATM    5  C   UNL     1     -11.713  13.741  67.065  1.00  0.00    -0.420 C  
ENDBRANCH   3   4
BRANCH   3   6
HETATM    6  C   UNL     1      -9.043  12.593  67.008  1.00  0.00    -0.215 C  
BRANCH   6   7
HETATM    7  C   UNL     1      -7.993  11.495  66.959  1.00  0.00    -0.161 C  
HETATM    8  C   UNL     1      -7.094  10.553  66.918  1.00  0.00    -0.101 C  
BRANCH   8   9
HETATM    9  C   UNL     1      -6.085   9.491  66.900  1.00  0.00    -0.064 C  
BRANCH   9  10
HETATM   10  O   UNL     1      -6.100   8.758  68.134  1.00  0.00    -0.049 OA 
BRANCH  10  11
HETATM   11  C   UNL     1      -6.787   7.575  68.090  1.00  0.00    -0.063 C  
HETATM   12  O   UNL     1      -6.903   6.877  67.089  1.00  0.00    -0.067 OA 
HETATM   13  C   UNL     1      -7.438   7.278  69.490  1.00  0.00    -0.091 C  
HETATM   14  C   UNL     1      -6.879   5.938  70.015  1.00  0.00    -0.057 A  
HETATM   15  C   UNL     1      -9.000   7.250  69.326  1.00  0.00    -0.135 C  
HETATM   16  O   UNL     1      -7.082   8.304  70.428  1.00  0.00    -0.037 OA 
HETATM   17  H   UNL     1      -7.475   8.124  71.274  1.00  0.00     0.000 HD 
HETATM   18  C   UNL     1      -6.200   5.855  71.246  1.00  0.00    -0.039 A  
HETATM   19  C   UNL     1      -9.778   6.926  70.623  1.00  0.00    -0.180 C  
HETATM   20  C   UNL     1      -5.664   4.647  71.700  1.00  0.00    -0.012 A  
HETATM   21  C   UNL     1      -9.885   8.090  71.607  1.00  0.00    -0.223 C  
HETATM   22  C   UNL     1     -10.430   9.355  70.954  1.00  0.00    -0.381 C  
HETATM   23  C   UNL     1      -5.793   3.493  70.935  1.00  0.00    -0.014 A  
HETATM   24  C   UNL     1      -6.469   3.544  69.718  1.00  0.00    -0.033 A  
HETATM   25  C   UNL     1      -9.707   9.719  69.664  1.00  0.00    -0.242 C  
HETATM   26  C   UNL     1      -9.602   8.534  68.706  1.00  0.00    -0.150 C  
HETATM   27  C   UNL     1      -7.012   4.752  69.269  1.00  0.00    -0.051 A  
ENDBRANCH  10  11
ENDBRANCH   9  10
ENDBRANCH   8   9
ENDBRANCH   6   7
ENDBRANCH   3   6
ENDBRANCH   2   3
TORSDOF 7
ENDMDL
MODEL      252
REMARK 921   NORMALIZED FREE ENERGY PREDICTED BY IDOCK:   -2.63 KCAL/MOL
REMARK 922        TOTAL FREE ENERGY PREDICTED BY IDOCK:   -4.95 KCAL/MOL
REMARK 923 INTER-LIGAND FREE ENERGY PREDICTED BY IDOCK:   -5.42 KCAL/MOL
REMARK 924 INTRA-LIGAND FREE ENERGY PREDICTED BY IDOCK:    0.47 KCAL/MOL
REMARK 927      BINDING AFFINITY PREDICTED BY RF-SCORE:    0.00 PKD
ROOT
HETATM    1  C   UNL     1      -9.089   8.718  65.025  1.00  0.00    -0.047 C  
HETATM    2  C   UNL     1      -7.760   8.253  65.617  1.00  0.00    -0.092 C  
ENDROOT
BRANCH   2   3
HETATM    3  N   UNL     1      -6.994   9.308  66.304  1.00  0.00    -0.085 NA 
BRANCH   3   4
HETATM    4  C   UNL     1      -6.383  10.291  65.395  1.00  0.00    -0.124 C  
HETATM    5  C   UNL     1      -5.590   9.734  64.218  1.00  0.00    -0.083 C  
ENDBRANCH   3   4
BRANCH   3   6
HETATM    6  C   UNL     1      -7.831   9.905  67.360  1.00  0.00    -0.098 C  
BRANCH   6   7
HETATM    7  C   UNL     1      -8.653  11.077  66.849  1.00  0.00    -0.143 C  
HETATM    8  C   UNL     1      -9.358  12.083  66.412  1.00  0.00    -0.232 C  
BRANCH   8   9
HETATM    9  C   UNL     1     -10.151  13.223  65.947  1.00  0.00    -0.291 C  
BRANCH   9  10
HETATM   10  O   UNL     1     -10.822  13.854  67.048  1.00  0.00    -0.282 OA 
BRANCH  10  11
HETATM   11  C   UNL     1      -9.995  14.464  67.952  1.00  0.00    -0.228 C  
HETATM   12  O   UNL     1      -8.799  14.222  68.070  1.00  0.00    -0.164 OA 
HETATM   13  C   UNL     1     -10.813  15.474  68.836  1.00  0.00    -0.254 C  
HETATM   14  C   UNL     1     -10.221  16.886  68.643  1.00  0.00    -0.301 A  
HETATM   15  C   UNL     1     -10.753  15.000  70.333  1.00  0.00    -0.134 C  
HETATM   16  O   UNL     1     -12.183  15.506  68.408  1.00  0.00    -0.510 OA 
HETATM   17  H   UNL     1     -12.678  16.116  68.942  1.00  0.00     0.000 HD 
HETATM   18  C   UNL     1     -11.005  17.956  68.171  1.00  0.00    -0.014 A  
HETATM   19  C   UNL     1     -11.486  15.926  71.331  1.00  0.00    -0.484 C  
HETATM   20  C   UNL     1     -10.455  19.224  67.964  1.00  0.00    -0.488 A  
HETATM   21  C   UNL     1     -13.007  15.783  71.330  1.00  0.00    -0.478 C  
HETATM   22  C   UNL     1     -13.457  14.337  71.507  1.00  0.00    -0.426 C  
HETATM   23  C   UNL     1      -9.107  19.452  68.222  1.00  0.00    -0.397 A  
HETATM   24  C   UNL     1      -8.311  18.415  68.699  1.00  0.00    -0.319 A  
HETATM   25  C   UNL     1     -12.758  13.376  70.554  1.00  0.00    -0.194 C  
HETATM   26  C   UNL     1     -11.241  13.550  70.565  1.00  0.00     0.636 C  
HETATM   27  C   UNL     1      -8.864  17.149  68.914  1.00  0.00    -0.186 A  
ENDBRANCH  10  11
ENDBRANCH   9  10
ENDBRANCH   8   9
ENDBRANCH   6   7
ENDBRANCH   3   6
ENDBRANCH   2   3
TORSDOF 7
ENDMDL
MODEL      253
REMARK 921   NORMALIZED FREE ENERGY PREDICTED BY IDOCK:   -2.62 KCAL/MOL
REMARK 922        TOTAL FREE ENERGY PREDICTED BY IDOCK:   -4.94 KCAL/MOL
REMARK 923 INTER-LIGAND FREE ENERGY PREDICTED BY IDOCK:   -4.41 KCAL/MOL
REMARK 924 INTRA-LIGAND FREE ENERGY PREDICTED BY IDOCK:   -0.53 KCAL/MOL
REMARK 927      BINDING AFFINITY PREDICTED BY RF-SCORE:    0.00 PKD
ROOT
HETATM    1  C   UNL     1      -9.408   3.031  70.716  1.00  0.00    -0.223 C  
HETATM    2  C   UNL     1      -8.730   4.196  69.999  1.00  0.00    -0.070 C  
ENDROOT
BRANCH   2   3
HETATM    3  N   UNL     1      -9.032   4.289  68.560  1.00  0.00    -0.107 NA 
BRANCH   3   4
HETATM    4  C   UNL     1      -8.698   3.074  67.800  1.00  0.00    -0.116 C  
HETATM    5  C   UNL     1      -7.949   3.273  66.488  1.00  0.00    -0.081 C  
ENDBRANCH   3   4
BRANCH   3   6
HETATM    6  C   UNL     1     -10.423   4.743  68.385  1.00  0.00     0.230 C  
BRANCH   6   7
HETATM    7  C   UNL     1     -10.509   6.224  68.056  1.00  0.00    -0.278 C  
HETATM    8  C   UNL     1     -10.582   7.494  67.772  1.00  0.00    -0.274 C  
BRANCH   8   9
HETATM    9  C   UNL     1     -10.637   8.926  67.467  1.00  0.00    -0.237 C  
BRANCH   9  10
HETATM   10  O   UNL     1      -9.346   9.529  67.633  1.00  0.00    -0.124 OA 
BRANCH  10  11
HETATM   11  C   UNL     1      -8.991  10.407  66.644  1.00  0.00    -0.141 C  
HETATM   12  O   UNL     1      -8.808  10.095  65.472  1.00  0.00    -0.154 OA 
HETATM   13  C   UNL     1      -8.809  11.848  67.243  1.00  0.00    -0.179 C  
HETATM   14  C   UNL     1      -9.801  12.800  66.541  1.00  0.00    -0.258 A  
HETATM   15  C   UNL     1      -7.314  12.293  67.047  1.00  0.00    -0.052 C  
HETATM   16  O   UNL     1      -9.117  11.843  68.645  1.00  0.00    -0.317 OA 
HETATM   17  H   UNL     1      -9.007  12.714  69.007  1.00  0.00     0.000 HD 
HETATM   18  C   UNL     1     -10.765  13.526  67.267  1.00  0.00    -0.272 A  
HETATM   19  C   UNL     1      -6.995  13.718  67.557  1.00  0.00    -0.161 C  
HETATM   20  C   UNL     1     -11.684  14.358  66.623  1.00  0.00    -0.410 A  
HETATM   21  C   UNL     1      -6.847  13.832  69.073  1.00  0.00    -0.111 C  
HETATM   22  C   UNL     1      -5.855  12.822  69.639  1.00  0.00    -0.113 C  
HETATM   23  C   UNL     1     -11.663  14.485  65.238  1.00  0.00    -0.361 A  
HETATM   24  C   UNL     1     -10.714  13.787  64.496  1.00  0.00    -0.405 A  
HETATM   25  C   UNL     1      -6.116  11.399  69.162  1.00  0.00    -0.055 C  
HETATM   26  C   UNL     1      -6.273  11.317  67.645  1.00  0.00    -0.055 C  
HETATM   27  C   UNL     1      -9.789  12.961  65.143  1.00  0.00    -0.087 A  
ENDBRANCH  10  11
ENDBRANCH   9  10
ENDBRANCH   8   9
ENDBRANCH   6   7
ENDBRANCH   3   6
ENDBRANCH   2   3
TORSDOF 7
ENDMDL
MODEL      254
REMARK 921   NORMALIZED FREE ENERGY PREDICTED BY IDOCK:   -2.62 KCAL/MOL
REMARK 922        TOTAL FREE ENERGY PREDICTED BY IDOCK:   -4.94 KCAL/MOL
REMARK 923 INTER-LIGAND FREE ENERGY PREDICTED BY IDOCK:   -4.44 KCAL/MOL
REMARK 924 INTRA-LIGAND FREE ENERGY PREDICTED BY IDOCK:   -0.49 KCAL/MOL
REMARK 927      BINDING AFFINITY PREDICTED BY RF-SCORE:    0.00 PKD
ROOT
HETATM    1  C   UNL     1      -9.214   9.247  71.057  1.00  0.00    -0.273 C  
HETATM    2  C   UNL     1     -10.516   8.549  70.671  1.00  0.00    -0.201 C  
ENDROOT
BRANCH   2   3
HETATM    3  N   UNL     1     -11.540   8.535  71.730  1.00  0.00    -0.290 NA 
BRANCH   3   4
HETATM    4  C   UNL     1     -12.656   9.466  71.494  1.00  0.00    -0.362 C  
HETATM    5  C   UNL     1     -13.812   9.413  72.486  1.00  0.00    -0.385 C  
ENDBRANCH   3   4
BRANCH   3   6
HETATM    6  C   UNL     1     -11.961   7.145  71.979  1.00  0.00    -0.295 C  
BRANCH   6   7
HETATM    7  C   UNL     1     -11.124   6.141  71.204  1.00  0.00    -0.360 C  
HETATM    8  C   UNL     1     -10.406   5.280  70.539  1.00  0.00    -0.336 C  
BRANCH   8   9
HETATM    9  C   UNL     1      -9.575   4.319  69.810  1.00  0.00    -0.209 C  
BRANCH   9  10
HETATM   10  O   UNL     1     -10.087   4.111  68.485  1.00  0.00     0.008 OA 
BRANCH  10  11
HETATM   11  C   UNL     1     -10.222   5.250  67.737  1.00  0.00    -0.156 C  
HETATM   12  O   UNL     1     -11.226   5.954  67.722  1.00  0.00    -0.146 OA 
HETATM   13  C   UNL     1      -8.929   5.486  66.876  1.00  0.00    -0.111 C  
HETATM   14  C   UNL     1      -8.321   6.850  67.268  1.00  0.00    -0.121 A  
HETATM   15  C   UNL     1      -9.315   5.419  65.354  1.00  0.00    -0.003 C  
HETATM   16  O   UNL     1      -7.955   4.470  67.159  1.00  0.00    -0.100 OA 
HETATM   17  H   UNL     1      -7.173   4.613  66.639  1.00  0.00     0.000 HD 
HETATM   18  C   UNL     1      -7.006   6.957  67.758  1.00  0.00    -0.083 A  
HETATM   19  C   UNL     1      -8.141   5.675  64.381  1.00  0.00    -0.128 C  
HETATM   20  C   UNL     1      -6.473   8.189  68.145  1.00  0.00    -0.056 A  
HETATM   21  C   UNL     1      -7.189   4.492  64.208  1.00  0.00    -0.058 C  
HETATM   22  C   UNL     1      -7.920   3.205  63.844  1.00  0.00    -0.082 C  
HETATM   23  C   UNL     1      -7.243   9.344  68.053  1.00  0.00    -0.078 A  
HETATM   24  C   UNL     1      -8.543   9.269  67.562  1.00  0.00    -0.116 A  
HETATM   25  C   UNL     1      -9.096   2.906  64.766  1.00  0.00    -0.136 C  
HETATM   26  C   UNL     1     -10.022   4.109  64.930  1.00  0.00    -0.208 C  
HETATM   27  C   UNL     1      -9.072   8.036  67.167  1.00  0.00    -0.159 A  
ENDBRANCH  10  11
ENDBRANCH   9  10
ENDBRANCH   8   9
ENDBRANCH   6   7
ENDBRANCH   3   6
ENDBRANCH   2   3
TORSDOF 7
ENDMDL
MODEL      255
REMARK 921   NORMALIZED FREE ENERGY PREDICTED BY IDOCK:   -2.61 KCAL/MOL
REMARK 922        TOTAL FREE ENERGY PREDICTED BY IDOCK:   -4.93 KCAL/MOL
REMARK 923 INTER-LIGAND FREE ENERGY PREDICTED BY IDOCK:   -4.57 KCAL/MOL
REMARK 924 INTRA-LIGAND FREE ENERGY PREDICTED BY IDOCK:   -0.36 KCAL/MOL
REMARK 927      BINDING AFFINITY PREDICTED BY RF-SCORE:    0.00 PKD
ROOT
HETATM    1  C   UNL     1      -7.590  12.057  66.641  1.00  0.00     0.095 C  
HETATM    2  C   UNL     1      -8.923  12.766  66.867  1.00  0.00    -0.213 C  
ENDROOT
BRANCH   2   3
HETATM    3  N   UNL     1     -10.041  12.238  66.065  1.00  0.00    -0.243 NA 
BRANCH   3   4
HETATM    4  C   UNL     1     -10.389  13.072  64.903  1.00  0.00    -0.324 C  
HETATM    5  C   UNL     1     -10.374  14.582  65.117  1.00  0.00    -0.438 C  
ENDBRANCH   3   4
BRANCH   3   6
HETATM    6  C   UNL     1      -9.775  10.827  65.733  1.00  0.00    -0.228 C  
BRANCH   6   7
HETATM    7  C   UNL     1     -10.176   9.885  66.856  1.00  0.00    -0.302 C  
HETATM    8  C   UNL     1     -10.519   9.077  67.820  1.00  0.00    -0.305 C  
BRANCH   8   9
HETATM    9  C   UNL     1     -10.880   8.155  68.899  1.00  0.00     0.035 C  
BRANCH   9  10
HETATM   10  O   UNL     1     -10.199   6.901  68.742  1.00  0.00    -0.161 OA 
BRANCH  10  11
HETATM   11  C   UNL     1      -9.006   6.809  69.407  1.00  0.00    -0.137 C  
HETATM   12  O   UNL     1      -8.026   7.508  69.173  1.00  0.00    -0.116 OA 
HETATM   13  C   UNL     1      -9.069   5.652  70.469  1.00  0.00    -0.145 C  
HETATM   14  C   UNL     1      -8.814   6.255  71.866  1.00  0.00    -0.139 A  
HETATM   15  C   UNL     1      -8.007   4.557  70.088  1.00  0.00    -0.063 C  
HETATM   16  O   UNL     1     -10.375   5.058  70.475  1.00  0.00    -0.254 OA 
HETATM   17  H   UNL     1     -10.414   4.358  71.116  1.00  0.00     0.000 HD 
HETATM   18  C   UNL     1      -9.757   6.132  72.905  1.00  0.00    -0.162 A  
HETATM   19  C   UNL     1      -7.927   3.368  71.074  1.00  0.00    -0.058 C  
HETATM   20  C   UNL     1      -9.537   6.710  74.158  1.00  0.00    -0.281 A  
HETATM   21  C   UNL     1      -9.055   2.348  70.931  1.00  0.00    -0.180 C  
HETATM   22  C   UNL     1      -9.213   1.851  69.498  1.00  0.00    -0.173 C  
HETATM   23  C   UNL     1      -8.371   7.428  74.403  1.00  0.00    -0.244 A  
HETATM   24  C   UNL     1      -7.417   7.557  73.397  1.00  0.00    -0.120 A  
HETATM   25  C   UNL     1      -9.287   2.981  68.480  1.00  0.00    -0.243 C  
HETATM   26  C   UNL     1      -8.157   3.992  68.655  1.00  0.00    -0.078 C  
HETATM   27  C   UNL     1      -7.634   6.970  72.146  1.00  0.00    -0.091 A  
ENDBRANCH  10  11
ENDBRANCH   9  10
ENDBRANCH   8   9
ENDBRANCH   6   7
ENDBRANCH   3   6
ENDBRANCH   2   3
TORSDOF 7
ENDMDL
MODEL      256
REMARK 921   NORMALIZED FREE ENERGY PREDICTED BY IDOCK:   -2.59 KCAL/MOL
REMARK 922        TOTAL FREE ENERGY PREDICTED BY IDOCK:   -4.90 KCAL/MOL
REMARK 923 INTER-LIGAND FREE ENERGY PREDICTED BY IDOCK:   -4.30 KCAL/MOL
REMARK 924 INTRA-LIGAND FREE ENERGY PREDICTED BY IDOCK:   -0.60 KCAL/MOL
REMARK 927      BINDING AFFINITY PREDICTED BY RF-SCORE:    0.00 PKD
ROOT
HETATM    1  C   UNL     1      -5.777   2.690  65.058  1.00  0.00    -0.017 C  
HETATM    2  C   UNL     1      -7.250   2.307  64.930  1.00  0.00    -0.057 C  
ENDROOT
BRANCH   2   3
HETATM    3  N   UNL     1      -8.173   3.451  64.827  1.00  0.00    -0.090 NA 
BRANCH   3   4
HETATM    4  C   UNL     1      -8.578   3.769  63.448  1.00  0.00    -0.093 C  
HETATM    5  C   UNL     1      -9.912   3.201  62.979  1.00  0.00    -0.114 C  
ENDBRANCH   3   4
BRANCH   3   6
HETATM    6  C   UNL     1      -9.301   3.249  65.752  1.00  0.00    -0.123 C  
BRANCH   6   7
HETATM    7  C   UNL     1      -9.936   4.561  66.182  1.00  0.00    -0.267 C  
HETATM    8  C   UNL     1     -10.481   5.686  66.552  1.00  0.00    -0.309 C  
BRANCH   8   9
HETATM    9  C   UNL     1     -11.119   6.937  66.969  1.00  0.00    -0.245 C  
BRANCH   9  10
HETATM   10  O   UNL     1     -10.162   8.006  67.004  1.00  0.00    -0.246 OA 
BRANCH  10  11
HETATM   11  C   UNL     1     -10.299   8.865  68.061  1.00  0.00    -0.219 C  
HETATM   12  O   UNL     1     -11.216   9.671  68.185  1.00  0.00    -0.116 OA 
HETATM   13  C   UNL     1      -9.092   8.697  69.053  1.00  0.00    -0.145 C  
HETATM   14  C   UNL     1      -9.645   8.282  70.432  1.00  0.00    -0.174 A  
HETATM   15  C   UNL     1      -8.293  10.049  69.112  1.00  0.00    -0.146 C  
HETATM   16  O   UNL     1      -8.218   7.655  68.595  1.00  0.00    -0.125 OA 
HETATM   17  H   UNL     1      -7.488   7.553  69.194  1.00  0.00     0.000 HD 
HETATM   18  C   UNL     1      -9.244   7.086  71.058  1.00  0.00    -0.155 A  
HETATM   19  C   UNL     1      -7.092  10.045  70.085  1.00  0.00    -0.157 C  
HETATM   20  C   UNL     1      -9.775   6.697  72.291  1.00  0.00    -0.155 A  
HETATM   21  C   UNL     1      -5.854   9.318  69.564  1.00  0.00    -0.033 C  
HETATM   22  C   UNL     1      -5.428   9.808  68.185  1.00  0.00    -0.039 C  
HETATM   23  C   UNL     1     -10.721   7.494  72.928  1.00  0.00    -0.411 A  
HETATM   24  C   UNL     1     -11.127   8.687  72.337  1.00  0.00    -0.328 A  
HETATM   25  C   UNL     1      -6.576   9.843  67.184  1.00  0.00    -0.070 C  
HETATM   26  C   UNL     1      -7.803  10.563  67.736  1.00  0.00    -0.104 C  
HETATM   27  C   UNL     1     -10.589   9.079  71.108  1.00  0.00    -0.361 A  
ENDBRANCH  10  11
ENDBRANCH   9  10
ENDBRANCH   8   9
ENDBRANCH   6   7
ENDBRANCH   3   6
ENDBRANCH   2   3
TORSDOF 7
ENDMDL
MODEL      257
REMARK 921   NORMALIZED FREE ENERGY PREDICTED BY IDOCK:   -2.56 KCAL/MOL
REMARK 922        TOTAL FREE ENERGY PREDICTED BY IDOCK:   -4.86 KCAL/MOL
REMARK 923 INTER-LIGAND FREE ENERGY PREDICTED BY IDOCK:   -4.71 KCAL/MOL
REMARK 924 INTRA-LIGAND FREE ENERGY PREDICTED BY IDOCK:   -0.14 KCAL/MOL
REMARK 927      BINDING AFFINITY PREDICTED BY RF-SCORE:    0.00 PKD
ROOT
HETATM    1  C   UNL     1      -9.675  18.899  68.385  1.00  0.00    -0.432 C  
HETATM    2  C   UNL     1      -8.195  18.956  68.012  1.00  0.00    -0.293 C  
ENDROOT
BRANCH   2   3
HETATM    3  N   UNL     1      -7.912  18.704  66.588  1.00  0.00    -0.256 NA 
BRANCH   3   4
HETATM    4  C   UNL     1      -7.380  19.874  65.869  1.00  0.00    -0.320 C  
HETATM    5  C   UNL     1      -6.709  20.949  66.715  1.00  0.00    -0.367 C  
ENDBRANCH   3   4
BRANCH   3   6
HETATM    6  C   UNL     1      -7.080  17.494  66.465  1.00  0.00    -0.254 C  
BRANCH   6   7
HETATM    7  C   UNL     1      -7.848  16.230  66.815  1.00  0.00    -0.300 C  
HETATM    8  C   UNL     1      -8.507  15.146  67.115  1.00  0.00    -0.238 C  
BRANCH   8   9
HETATM    9  C   UNL     1      -9.249  13.937  67.480  1.00  0.00    -0.205 C  
BRANCH   9  10
HETATM   10  O   UNL     1      -8.726  13.369  68.690  1.00  0.00    -0.110 OA 
BRANCH  10  11
HETATM   11  C   UNL     1      -7.681  12.502  68.512  1.00  0.00    -0.113 C  
HETATM   12  O   UNL     1      -6.506  12.841  68.425  1.00  0.00    -0.069 OA 
HETATM   13  C   UNL     1      -8.217  11.029  68.392  1.00  0.00    -0.137 C  
HETATM   14  C   UNL     1      -7.596  10.187  69.526  1.00  0.00    -0.139 A  
HETATM   15  C   UNL     1      -7.853  10.473  66.967  1.00  0.00    -0.114 C  
HETATM   16  O   UNL     1      -9.643  11.008  68.554  1.00  0.00    -0.174 OA 
HETATM   17  H   UNL     1      -9.967  10.118  68.481  1.00  0.00     0.000 HD 
HETATM   18  C   UNL     1      -8.398   9.515  70.469  1.00  0.00    -0.203 A  
HETATM   19  C   UNL     1      -8.286   9.010  66.718  1.00  0.00    -0.115 C  
HETATM   20  C   UNL     1      -7.830   8.783  71.515  1.00  0.00    -0.147 A  
HETATM   21  C   UNL     1      -9.775   8.829  66.426  1.00  0.00    -0.335 C  
HETATM   22  C   UNL     1     -10.262   9.734  65.301  1.00  0.00     0.033 C  
HETATM   23  C   UNL     1      -6.448   8.706  71.646  1.00  0.00    -0.072 A  
HETATM   24  C   UNL     1      -5.631   9.353  70.722  1.00  0.00    -0.046 A  
HETATM   25  C   UNL     1      -9.856  11.190  65.489  1.00  0.00    -0.281 C  
HETATM   26  C   UNL     1      -8.367  11.340  65.792  1.00  0.00     0.023 C  
HETATM   27  C   UNL     1      -6.200  10.077  69.670  1.00  0.00    -0.049 A  
ENDBRANCH  10  11
ENDBRANCH   9  10
ENDBRANCH   8   9
ENDBRANCH   6   7
ENDBRANCH   3   6
ENDBRANCH   2   3
TORSDOF 7
ENDMDL
MODEL      258
REMARK 921   NORMALIZED FREE ENERGY PREDICTED BY IDOCK:   -2.53 KCAL/MOL
REMARK 922        TOTAL FREE ENERGY PREDICTED BY IDOCK:   -4.80 KCAL/MOL
REMARK 923 INTER-LIGAND FREE ENERGY PREDICTED BY IDOCK:   -4.52 KCAL/MOL
REMARK 924 INTRA-LIGAND FREE ENERGY PREDICTED BY IDOCK:   -0.28 KCAL/MOL
REMARK 927      BINDING AFFINITY PREDICTED BY RF-SCORE:    0.00 PKD
ROOT
HETATM    1  C   UNL     1     -11.372  12.043  63.562  1.00  0.00    -0.528 C  
HETATM    2  C   UNL     1     -11.985  12.516  64.878  1.00  0.00    -0.412 C  
ENDROOT
BRANCH   2   3
HETATM    3  N   UNL     1     -11.034  13.161  65.800  1.00  0.00    -0.276 NA 
BRANCH   3   4
HETATM    4  C   UNL     1     -11.629  13.569  67.083  1.00  0.00    -0.357 C  
HETATM    5  C   UNL     1     -10.661  13.858  68.225  1.00  0.00    -0.263 C  
ENDBRANCH   3   4
BRANCH   3   6
HETATM    6  C   UNL     1      -9.838  12.311  65.936  1.00  0.00    -0.251 C  
BRANCH   6   7
HETATM    7  C   UNL     1     -10.183  10.896  66.368  1.00  0.00    -0.289 C  
HETATM    8  C   UNL     1     -10.480   9.682  66.739  1.00  0.00    -0.257 C  
BRANCH   8   9
HETATM    9  C   UNL     1     -10.804   8.324  67.182  1.00  0.00    -0.024 C  
BRANCH   9  10
HETATM   10  O   UNL     1      -9.710   7.432  66.921  1.00  0.00    -0.178 OA 
BRANCH  10  11
HETATM   11  C   UNL     1     -10.072   6.134  66.683  1.00  0.00    -0.162 C  
HETATM   12  O   UNL     1     -11.188   5.781  66.316  1.00  0.00     0.003 OA 
HETATM   13  C   UNL     1      -8.869   5.172  66.994  1.00  0.00    -0.109 C  
HETATM   14  C   UNL     1      -8.511   4.402  65.705  1.00  0.00    -0.114 A  
HETATM   15  C   UNL     1      -9.278   4.213  68.169  1.00  0.00    -0.194 C  
HETATM   16  O   UNL     1      -7.718   5.934  67.388  1.00  0.00    -0.095 OA 
HETATM   17  H   UNL     1      -6.990   5.353  67.576  1.00  0.00     0.000 HD 
HETATM   18  C   UNL     1      -7.224   4.472  65.138  1.00  0.00    -0.068 A  
HETATM   19  C   UNL     1      -8.198   3.177  68.560  1.00  0.00    -0.079 C  
HETATM   20  C   UNL     1      -6.915   3.802  63.951  1.00  0.00    -0.045 A  
HETATM   21  C   UNL     1      -7.051   3.740  69.397  1.00  0.00    -0.046 C  
HETATM   22  C   UNL     1      -7.544   4.495  70.627  1.00  0.00    -0.053 C  
HETATM   23  C   UNL     1      -7.886   3.046  63.302  1.00  0.00    -0.069 A  
HETATM   24  C   UNL     1      -9.164   2.950  63.846  1.00  0.00    -0.106 A  
HETATM   25  C   UNL     1      -8.619   5.524  70.303  1.00  0.00    -0.126 C  
HETATM   26  C   UNL     1      -9.744   4.938  69.454  1.00  0.00    -0.261 C  
HETATM   27  C   UNL     1      -9.469   3.615  65.038  1.00  0.00    -0.161 A  
ENDBRANCH  10  11
ENDBRANCH   9  10
ENDBRANCH   8   9
ENDBRANCH   6   7
ENDBRANCH   3   6
ENDBRANCH   2   3
TORSDOF 7
ENDMDL
MODEL      259
REMARK 921   NORMALIZED FREE ENERGY PREDICTED BY IDOCK:   -2.52 KCAL/MOL
REMARK 922        TOTAL FREE ENERGY PREDICTED BY IDOCK:   -4.80 KCAL/MOL
REMARK 923 INTER-LIGAND FREE ENERGY PREDICTED BY IDOCK:   -4.01 KCAL/MOL
REMARK 924 INTRA-LIGAND FREE ENERGY PREDICTED BY IDOCK:   -0.79 KCAL/MOL
REMARK 927      BINDING AFFINITY PREDICTED BY RF-SCORE:    0.00 PKD
ROOT
HETATM    1  C   UNL     1      -9.162   3.137  62.625  1.00  0.00    -0.090 C  
HETATM    2  C   UNL     1      -8.681   4.293  63.499  1.00  0.00    -0.121 C  
ENDROOT
BRANCH   2   3
HETATM    3  N   UNL     1      -7.273   4.195  63.923  1.00  0.00    -0.050 NA 
BRANCH   3   4
HETATM    4  C   UNL     1      -6.658   5.491  64.253  1.00  0.00    -0.041 C  
HETATM    5  C   UNL     1      -7.608   6.661  64.483  1.00  0.00    -0.103 C  
ENDBRANCH   3   4
BRANCH   3   6
HETATM    6  C   UNL     1      -7.158   3.186  64.991  1.00  0.00    -0.058 C  
BRANCH   6   7
HETATM    7  C   UNL     1      -8.084   3.476  66.160  1.00  0.00    -0.093 C  
HETATM    8  C   UNL     1      -8.879   3.724  67.163  1.00  0.00    -0.135 C  
BRANCH   8   9
HETATM    9  C   UNL     1      -9.754   3.989  68.308  1.00  0.00    -0.066 C  
BRANCH   9  10
HETATM   10  O   UNL     1      -8.981   4.170  69.503  1.00  0.00    -0.087 OA 
BRANCH  10  11
HETATM   11  C   UNL     1      -8.233   5.316  69.535  1.00  0.00    -0.095 C  
HETATM   12  O   UNL     1      -7.029   5.365  69.304  1.00  0.00    -0.052 OA 
HETATM   13  C   UNL     1      -9.131   6.535  69.956  1.00  0.00    -0.150 C  
HETATM   14  C   UNL     1      -9.107   7.578  68.819  1.00  0.00    -0.135 A  
HETATM   15  C   UNL     1      -8.591   7.117  71.312  1.00  0.00    -0.124 C  
HETATM   16  O   UNL     1     -10.490   6.108  70.136  1.00  0.00    -0.198 OA 
HETATM   17  H   UNL     1     -11.033   6.844  70.390  1.00  0.00     0.000 HD 
HETATM   18  C   UNL     1     -10.288   7.998  68.179  1.00  0.00    -0.250 A  
HETATM   19  C   UNL     1      -9.359   8.355  71.832  1.00  0.00    -0.313 C  
HETATM   20  C   UNL     1     -10.257   8.916  67.125  1.00  0.00    -0.339 A  
HETATM   21  C   UNL     1     -10.705   8.040  72.484  1.00  0.00    -0.407 C  
HETATM   22  C   UNL     1     -10.590   6.980  73.574  1.00  0.00    -0.405 C  
HETATM   23  C   UNL     1      -9.044   9.435  66.685  1.00  0.00    -0.181 A  
HETATM   24  C   UNL     1      -7.861   9.044  67.307  1.00  0.00    -0.099 A  
HETATM   25  C   UNL     1      -9.832   5.739  73.120  1.00  0.00    -0.178 C  
HETATM   26  C   UNL     1      -8.499   6.084  72.461  1.00  0.00    -0.119 C  
HETATM   27  C   UNL     1      -7.894   8.132  68.366  1.00  0.00    -0.118 A  
ENDBRANCH  10  11
ENDBRANCH   9  10
ENDBRANCH   8   9
ENDBRANCH   6   7
ENDBRANCH   3   6
ENDBRANCH   2   3
TORSDOF 7
ENDMDL
MODEL      260
REMARK 921   NORMALIZED FREE ENERGY PREDICTED BY IDOCK:   -2.49 KCAL/MOL
REMARK 922        TOTAL FREE ENERGY PREDICTED BY IDOCK:   -4.76 KCAL/MOL
REMARK 923 INTER-LIGAND FREE ENERGY PREDICTED BY IDOCK:   -4.62 KCAL/MOL
REMARK 924 INTRA-LIGAND FREE ENERGY PREDICTED BY IDOCK:   -0.13 KCAL/MOL
REMARK 927      BINDING AFFINITY PREDICTED BY RF-SCORE:    0.00 PKD
ROOT
HETATM    1  C   UNL     1      -5.505   5.423  69.385  1.00  0.00    -0.007 C  
HETATM    2  C   UNL     1      -6.867   5.293  68.707  1.00  0.00    -0.055 C  
ENDROOT
BRANCH   2   3
HETATM    3  N   UNL     1      -7.934   4.763  69.574  1.00  0.00    -0.066 NA 
BRANCH   3   4
HETATM    4  C   UNL     1      -7.780   3.337  69.906  1.00  0.00    -0.043 C  
HETATM    5  C   UNL     1      -8.266   2.900  71.283  1.00  0.00    -0.076 C  
ENDBRANCH   3   4
BRANCH   3   6
HETATM    6  C   UNL     1      -8.085   5.640  70.748  1.00  0.00    -0.117 C  
BRANCH   6   7
HETATM    7  C   UNL     1      -9.030   6.800  70.483  1.00  0.00    -0.152 C  
HETATM    8  C   UNL     1      -9.841   7.795  70.256  1.00  0.00    -0.184 C  
BRANCH   8   9
HETATM    9  C   UNL     1     -10.773   8.894  69.991  1.00  0.00    -0.228 C  
BRANCH   9  10
HETATM   10  O   UNL     1     -10.123  10.161  70.167  1.00  0.00    -0.246 OA 
BRANCH  10  11
HETATM   11  C   UNL     1      -9.116  10.419  69.275  1.00  0.00    -0.175 C  
HETATM   12  O   UNL     1      -7.965  10.700  69.591  1.00  0.00    -0.121 OA 
HETATM   13  C   UNL     1      -9.667  10.349  67.805  1.00  0.00    -0.160 C  
HETATM   14  C   UNL     1      -8.891   9.253  67.043  1.00  0.00    -0.135 A  
HETATM   15  C   UNL     1      -9.512  11.763  67.138  1.00  0.00    -0.180 C  
HETATM   16  O   UNL     1     -11.055   9.983  67.815  1.00  0.00    -0.401 OA 
HETATM   17  H   UNL     1     -11.388   9.941  66.926  1.00  0.00     0.000 HD 
HETATM   18  C   UNL     1      -9.551   8.157  66.455  1.00  0.00    -0.286 A  
HETATM   19  C   UNL     1      -9.979  11.836  65.666  1.00  0.00    -0.271 C  
HETATM   20  C   UNL     1      -8.841   7.149  65.797  1.00  0.00    -0.090 A  
HETATM   21  C   UNL     1     -11.495  11.897  65.483  1.00  0.00    -0.311 C  
HETATM   22  C   UNL     1     -12.137  13.007  66.307  1.00  0.00    -0.453 C  
HETATM   23  C   UNL     1      -7.454   7.212  65.712  1.00  0.00    -0.081 A  
HETATM   24  C   UNL     1      -6.777   8.290  66.276  1.00  0.00    -0.057 A  
HETATM   25  C   UNL     1     -11.704  12.992  67.767  1.00  0.00    -0.405 C  
HETATM   26  C   UNL     1     -10.187  12.916  67.920  1.00  0.00    -0.233 C  
HETATM   27  C   UNL     1      -7.489   9.302  66.926  1.00  0.00    -0.091 A  
ENDBRANCH  10  11
ENDBRANCH   9  10
ENDBRANCH   8   9
ENDBRANCH   6   7
ENDBRANCH   3   6
ENDBRANCH   2   3
TORSDOF 7
ENDMDL
MODEL      261
REMARK 921   NORMALIZED FREE ENERGY PREDICTED BY IDOCK:   -2.48 KCAL/MOL
REMARK 922        TOTAL FREE ENERGY PREDICTED BY IDOCK:   -4.73 KCAL/MOL
REMARK 923 INTER-LIGAND FREE ENERGY PREDICTED BY IDOCK:   -4.27 KCAL/MOL
REMARK 924 INTRA-LIGAND FREE ENERGY PREDICTED BY IDOCK:   -0.46 KCAL/MOL
REMARK 927      BINDING AFFINITY PREDICTED BY RF-SCORE:    0.00 PKD
ROOT
HETATM    1  C   UNL     1     -11.442  15.307  68.055  1.00  0.00    -0.351 C  
HETATM    2  C   UNL     1     -10.926  13.875  68.176  1.00  0.00    -0.249 C  
ENDROOT
BRANCH   2   3
HETATM    3  N   UNL     1     -11.848  12.847  67.662  1.00  0.00    -0.362 NA 
BRANCH   3   4
HETATM    4  C   UNL     1     -11.400  12.216  66.409  1.00  0.00    -0.356 C  
HETATM    5  C   UNL     1     -11.396  13.095  65.164  1.00  0.00    -0.322 C  
ENDBRANCH   3   4
BRANCH   3   6
HETATM    6  C   UNL     1     -12.157  11.890  68.739  1.00  0.00    -0.124 C  
BRANCH   6   7
HETATM    7  C   UNL     1     -10.926  11.134  69.209  1.00  0.00    -0.300 C  
HETATM    8  C   UNL     1      -9.869  10.485  69.611  1.00  0.00    -0.117 C  
BRANCH   8   9
HETATM    9  C   UNL     1      -8.684   9.738  70.040  1.00  0.00    -0.209 C  
BRANCH   9  10
HETATM   10  O   UNL     1      -9.064   8.511  70.678  1.00  0.00    -0.144 OA 
BRANCH  10  11
HETATM   11  C   UNL     1      -9.103   7.421  69.851  1.00  0.00    -0.141 C  
HETATM   12  O   UNL     1      -9.230   7.480  68.632  1.00  0.00    -0.144 OA 
HETATM   13  C   UNL     1      -9.011   6.099  70.694  1.00  0.00    -0.147 C  
HETATM   14  C   UNL     1      -7.759   5.316  70.244  1.00  0.00    -0.072 A  
HETATM   15  C   UNL     1     -10.335   5.276  70.493  1.00  0.00    -0.336 C  
HETATM   16  O   UNL     1      -8.859   6.412  72.088  1.00  0.00    -0.136 OA 
HETATM   17  H   UNL     1      -8.803   5.613  72.598  1.00  0.00     0.000 HD 
HETATM   18  C   UNL     1      -6.735   4.978  71.149  1.00  0.00    -0.039 A  
HETATM   19  C   UNL     1     -10.370   3.922  71.238  1.00  0.00     0.187 C  
HETATM   20  C   UNL     1      -5.588   4.301  70.729  1.00  0.00    -0.012 A  
HETATM   21  C   UNL     1     -10.645   4.028  72.738  1.00  0.00    -0.218 C  
HETATM   22  C   UNL     1     -11.895   4.844  73.044  1.00  0.00    -0.127 C  
HETATM   23  C   UNL     1      -5.435   3.945  69.393  1.00  0.00    -0.016 A  
HETATM   24  C   UNL     1      -6.437   4.257  68.478  1.00  0.00    -0.037 A  
HETATM   25  C   UNL     1     -11.920   6.188  72.328  1.00  0.00    -0.285 C  
HETATM   26  C   UNL     1     -11.629   6.054  70.835  1.00  0.00    -0.147 C  
HETATM   27  C   UNL     1      -7.589   4.927  68.901  1.00  0.00    -0.069 A  
ENDBRANCH  10  11
ENDBRANCH   9  10
ENDBRANCH   8   9
ENDBRANCH   6   7
ENDBRANCH   3   6
ENDBRANCH   2   3
TORSDOF 7
ENDMDL
MODEL      262
REMARK 921   NORMALIZED FREE ENERGY PREDICTED BY IDOCK:   -2.47 KCAL/MOL
REMARK 922        TOTAL FREE ENERGY PREDICTED BY IDOCK:   -4.72 KCAL/MOL
REMARK 923 INTER-LIGAND FREE ENERGY PREDICTED BY IDOCK:   -3.83 KCAL/MOL
REMARK 924 INTRA-LIGAND FREE ENERGY PREDICTED BY IDOCK:   -0.88 KCAL/MOL
REMARK 927      BINDING AFFINITY PREDICTED BY RF-SCORE:    0.00 PKD
ROOT
HETATM    1  C   UNL     1     -13.454  10.809  72.079  1.00  0.00    -0.296 C  
HETATM    2  C   UNL     1     -13.032   9.863  70.957  1.00  0.00    -0.331 C  
ENDROOT
BRANCH   2   3
HETATM    3  N   UNL     1     -11.650   9.363  71.065  1.00  0.00    -0.305 NA 
BRANCH   3   4
HETATM    4  C   UNL     1     -11.481   7.972  70.614  1.00  0.00    -0.232 C  
HETATM    5  C   UNL     1     -12.677   7.044  70.799  1.00  0.00    -0.133 C  
ENDBRANCH   3   4
BRANCH   3   6
HETATM    6  C   UNL     1     -10.736  10.320  70.416  1.00  0.00    -0.205 C  
BRANCH   6   7
HETATM    7  C   UNL     1      -9.554   9.629  69.756  1.00  0.00    -0.242 C  
HETATM    8  C   UNL     1      -8.540   9.038  69.189  1.00  0.00    -0.133 C  
BRANCH   8   9
HETATM    9  C   UNL     1      -7.417   8.369  68.528  1.00  0.00    -0.094 C  
BRANCH   9  10
HETATM   10  O   UNL     1      -7.468   6.953  68.753  1.00  0.00    -0.094 OA 
BRANCH  10  11
HETATM   11  C   UNL     1      -6.713   6.512  69.806  1.00  0.00    -0.050 C  
HETATM   12  O   UNL     1      -5.486   6.522  69.832  1.00  0.00    -0.014 OA 
HETATM   13  C   UNL     1      -7.644   5.953  70.941  1.00  0.00    -0.096 C  
HETATM   14  C   UNL     1      -7.398   6.772  72.226  1.00  0.00    -0.088 A  
HETATM   15  C   UNL     1      -7.339   4.424  71.140  1.00  0.00    -0.048 C  
HETATM   16  O   UNL     1      -9.023   6.113  70.573  1.00  0.00    -0.144 OA 
HETATM   17  H   UNL     1      -9.586   5.775  71.259  1.00  0.00     0.000 HD 
HETATM   18  C   UNL     1      -8.439   7.472  72.865  1.00  0.00    -0.163 A  
HETATM   19  C   UNL     1      -8.159   3.744  72.261  1.00  0.00    -0.077 C  
HETATM   20  C   UNL     1      -8.203   8.242  74.008  1.00  0.00    -0.271 A  
HETATM   21  C   UNL     1      -9.605   3.424  71.886  1.00  0.00    -0.220 C  
HETATM   22  C   UNL     1      -9.707   2.631  70.588  1.00  0.00    -0.080 C  
HETATM   23  C   UNL     1      -6.920   8.331  74.538  1.00  0.00    -0.206 A  
HETATM   24  C   UNL     1      -5.874   7.641  73.932  1.00  0.00    -0.063 A  
HETATM   25  C   UNL     1      -8.909   3.250  69.447  1.00  0.00    -0.153 C  
HETATM   26  C   UNL     1      -7.473   3.572  69.855  1.00  0.00    -0.045 C  
HETATM   27  C   UNL     1      -6.113   6.865  72.794  1.00  0.00    -0.052 A  
ENDBRANCH  10  11
ENDBRANCH   9  10
ENDBRANCH   8   9
ENDBRANCH   6   7
ENDBRANCH   3   6
ENDBRANCH   2   3
TORSDOF 7
ENDMDL
MODEL      263
REMARK 921   NORMALIZED FREE ENERGY PREDICTED BY IDOCK:   -2.46 KCAL/MOL
REMARK 922        TOTAL FREE ENERGY PREDICTED BY IDOCK:   -4.71 KCAL/MOL
REMARK 923 INTER-LIGAND FREE ENERGY PREDICTED BY IDOCK:   -4.62 KCAL/MOL
REMARK 924 INTRA-LIGAND FREE ENERGY PREDICTED BY IDOCK:   -0.10 KCAL/MOL
REMARK 927      BINDING AFFINITY PREDICTED BY RF-SCORE:    0.00 PKD
ROOT
HETATM    1  C   UNL     1      -8.633  10.388  62.890  1.00  0.00    -0.197 C  
HETATM    2  C   UNL     1      -9.785  10.323  63.891  1.00  0.00    -0.261 C  
ENDROOT
BRANCH   2   3
HETATM    3  N   UNL     1      -9.981  11.551  64.680  1.00  0.00    -0.251 NA 
BRANCH   3   4
HETATM    4  C   UNL     1     -11.306  12.168  64.505  1.00  0.00    -0.334 C  
HETATM    5  C   UNL     1     -11.409  13.661  64.797  1.00  0.00    -0.365 C  
ENDBRANCH   3   4
BRANCH   3   6
HETATM    6  C   UNL     1      -9.622  11.288  66.084  1.00  0.00    -0.214 C  
BRANCH   6   7
HETATM    7  C   UNL     1     -10.090   9.920  66.552  1.00  0.00    -0.298 C  
HETATM    8  C   UNL     1     -10.491   8.746  66.951  1.00  0.00    -0.319 C  
BRANCH   8   9
HETATM    9  C   UNL     1     -10.961   7.426  67.379  1.00  0.00    -0.144 C  
BRANCH   9  10
HETATM   10  O   UNL     1     -10.943   7.322  68.810  1.00  0.00    -0.130 OA 
BRANCH  10  11
HETATM   11  C   UNL     1      -9.699   7.161  69.359  1.00  0.00    -0.160 C  
HETATM   12  O   UNL     1      -8.935   8.082  69.627  1.00  0.00    -0.143 OA 
HETATM   13  C   UNL     1      -9.385   5.632  69.544  1.00  0.00    -0.133 C  
HETATM   14  C   UNL     1      -9.135   5.361  71.042  1.00  0.00    -0.167 A  
HETATM   15  C   UNL     1      -8.145   5.259  68.654  1.00  0.00    -0.090 C  
HETATM   16  O   UNL     1     -10.513   4.843  69.134  1.00  0.00    -0.126 OA 
HETATM   17  H   UNL     1     -10.323   3.920  69.246  1.00  0.00     0.000 HD 
HETATM   18  C   UNL     1      -9.912   4.435  71.764  1.00  0.00    -0.257 A  
HETATM   19  C   UNL     1      -7.694   3.784  68.765  1.00  0.00    -0.053 C  
HETATM   20  C   UNL     1      -9.705   4.220  73.129  1.00  0.00    -0.159 A  
HETATM   21  C   UNL     1      -8.565   2.792  67.996  1.00  0.00    -0.116 C  
HETATM   22  C   UNL     1      -8.750   3.190  66.536  1.00  0.00    -0.133 C  
HETATM   23  C   UNL     1      -8.716   4.926  73.806  1.00  0.00    -0.105 A  
HETATM   24  C   UNL     1      -7.925   5.840  73.115  1.00  0.00    -0.110 A  
HETATM   25  C   UNL     1      -9.186   4.639  66.364  1.00  0.00    -0.133 C  
HETATM   26  C   UNL     1      -8.307   5.606  67.154  1.00  0.00    -0.104 C  
HETATM   27  C   UNL     1      -8.128   6.048  71.748  1.00  0.00    -0.114 A  
ENDBRANCH  10  11
ENDBRANCH   9  10
ENDBRANCH   8   9
ENDBRANCH   6   7
ENDBRANCH   3   6
ENDBRANCH   2   3
TORSDOF 7
ENDMDL
MODEL      264
REMARK 921   NORMALIZED FREE ENERGY PREDICTED BY IDOCK:   -2.46 KCAL/MOL
REMARK 922        TOTAL FREE ENERGY PREDICTED BY IDOCK:   -4.71 KCAL/MOL
REMARK 923 INTER-LIGAND FREE ENERGY PREDICTED BY IDOCK:   -4.22 KCAL/MOL
REMARK 924 INTRA-LIGAND FREE ENERGY PREDICTED BY IDOCK:   -0.49 KCAL/MOL
REMARK 927      BINDING AFFINITY PREDICTED BY RF-SCORE:    0.00 PKD
ROOT
HETATM    1  C   UNL     1     -11.073  16.466  64.505  1.00  0.00    -0.107 C  
HETATM    2  C   UNL     1     -11.876  15.300  65.078  1.00  0.00    -0.100 C  
ENDROOT
BRANCH   2   3
HETATM    3  N   UNL     1     -11.086  14.347  65.876  1.00  0.00    -0.313 NA 
BRANCH   3   4
HETATM    4  C   UNL     1     -10.383  14.960  67.015  1.00  0.00    -0.264 C  
HETATM    5  C   UNL     1      -8.866  14.812  67.042  1.00  0.00    -0.258 C  
ENDBRANCH   3   4
BRANCH   3   6
HETATM    6  C   UNL     1     -11.936  13.200  66.242  1.00  0.00    -0.415 C  
BRANCH   6   7
HETATM    7  C   UNL     1     -11.187  11.880  66.164  1.00  0.00    -0.387 C  
HETATM    8  C   UNL     1     -10.544  10.748  66.097  1.00  0.00    -0.241 C  
BRANCH   8   9
HETATM    9  C   UNL     1      -9.830   9.473  65.993  1.00  0.00    -0.283 C  
BRANCH   9  10
HETATM   10  O   UNL     1     -10.045   8.676  67.167  1.00  0.00    -0.211 OA 
BRANCH  10  11
HETATM   11  C   UNL     1      -9.929   7.325  66.973  1.00  0.00    -0.224 C  
HETATM   12  O   UNL     1     -10.755   6.635  66.385  1.00  0.00    -0.065 OA 
HETATM   13  C   UNL     1      -8.615   6.795  67.653  1.00  0.00    -0.121 C  
HETATM   14  C   UNL     1      -7.725   6.155  66.567  1.00  0.00    -0.103 A  
HETATM   15  C   UNL     1      -9.006   5.774  68.782  1.00  0.00    -0.116 C  
HETATM   16  O   UNL     1      -7.886   7.884  68.237  1.00  0.00    -0.115 OA 
HETATM   17  H   UNL     1      -7.092   7.564  68.648  1.00  0.00     0.000 HD 
HETATM   18  C   UNL     1      -6.417   6.615  66.320  1.00  0.00    -0.043 A  
HETATM   19  C   UNL     1      -7.805   5.134  69.516  1.00  0.00    -0.076 C  
HETATM   20  C   UNL     1      -5.628   6.057  65.311  1.00  0.00    -0.017 A  
HETATM   21  C   UNL     1      -7.134   6.042  70.547  1.00  0.00    -0.071 C  
HETATM   22  C   UNL     1      -8.128   6.623  71.545  1.00  0.00    -0.111 C  
HETATM   23  C   UNL     1      -6.127   5.025  64.523  1.00  0.00    -0.022 A  
HETATM   24  C   UNL     1      -7.414   4.543  64.752  1.00  0.00    -0.072 A  
HETATM   25  C   UNL     1      -9.341   7.259  70.877  1.00  0.00    -0.159 C  
HETATM   26  C   UNL     1      -9.982   6.337  69.844  1.00  0.00    -0.206 C  
HETATM   27  C   UNL     1      -8.199   5.097  65.768  1.00  0.00    -0.117 A  
ENDBRANCH  10  11
ENDBRANCH   9  10
ENDBRANCH   8   9
ENDBRANCH   6   7
ENDBRANCH   3   6
ENDBRANCH   2   3
TORSDOF 7
ENDMDL
MODEL      265
REMARK 921   NORMALIZED FREE ENERGY PREDICTED BY IDOCK:   -2.45 KCAL/MOL
REMARK 922        TOTAL FREE ENERGY PREDICTED BY IDOCK:   -4.69 KCAL/MOL
REMARK 923 INTER-LIGAND FREE ENERGY PREDICTED BY IDOCK:   -3.51 KCAL/MOL
REMARK 924 INTRA-LIGAND FREE ENERGY PREDICTED BY IDOCK:   -1.18 KCAL/MOL
REMARK 927      BINDING AFFINITY PREDICTED BY RF-SCORE:    0.00 PKD
ROOT
HETATM    1  C   UNL     1      -7.987   3.789  62.506  1.00  0.00    -0.063 C  
HETATM    2  C   UNL     1      -7.526   4.578  63.729  1.00  0.00    -0.055 C  
ENDROOT
BRANCH   2   3
HETATM    3  N   UNL     1      -6.131   4.328  64.130  1.00  0.00    -0.018 NA 
BRANCH   3   4
HETATM    4  C   UNL     1      -5.369   5.550  64.436  1.00  0.00    -0.013 C  
HETATM    5  C   UNL     1      -6.097   6.875  64.243  1.00  0.00    -0.036 C  
ENDBRANCH   3   4
BRANCH   3   6
HETATM    6  C   UNL     1      -6.108   3.321  65.206  1.00  0.00    -0.023 C  
BRANCH   6   7
HETATM    7  C   UNL     1      -7.353   3.380  66.076  1.00  0.00    -0.072 C  
HETATM    8  C   UNL     1      -8.420   3.431  66.823  1.00  0.00    -0.108 C  
BRANCH   8   9
HETATM    9  C   UNL     1      -9.604   3.475  67.685  1.00  0.00    -0.127 C  
BRANCH   9  10
HETATM   10  O   UNL     1      -9.373   4.325  68.818  1.00  0.00    -0.131 OA 
BRANCH  10  11
HETATM   11  C   UNL     1      -9.918   5.577  68.717  1.00  0.00    -0.172 C  
HETATM   12  O   UNL     1     -10.888   5.857  68.021  1.00  0.00    -0.269 OA 
HETATM   13  C   UNL     1      -9.092   6.596  69.582  1.00  0.00    -0.142 C  
HETATM   14  C   UNL     1     -10.029   7.213  70.641  1.00  0.00    -0.195 A  
HETATM   15  C   UNL     1      -8.470   7.681  68.629  1.00  0.00    -0.129 C  
HETATM   16  O   UNL     1      -8.033   5.914  70.271  1.00  0.00    -0.101 OA 
HETATM   17  H   UNL     1      -7.534   6.530  70.794  1.00  0.00     0.000 HD 
HETATM   18  C   UNL     1      -9.758   7.105  72.018  1.00  0.00    -0.173 A  
HETATM   19  C   UNL     1      -7.657   8.780  69.350  1.00  0.00    -0.088 C  
HETATM   20  C   UNL     1     -10.628   7.635  72.975  1.00  0.00    -0.433 A  
HETATM   21  C   UNL     1      -6.261   8.349  69.797  1.00  0.00    -0.032 C  
HETATM   22  C   UNL     1      -5.450   7.737  68.661  1.00  0.00    -0.027 C  
HETATM   23  C   UNL     1     -11.792   8.285  72.577  1.00  0.00    -0.439 A  
HETATM   24  C   UNL     1     -12.080   8.415  71.221  1.00  0.00    -0.315 A  
HETATM   25  C   UNL     1      -6.206   6.651  67.906  1.00  0.00    -0.036 C  
HETATM   26  C   UNL     1      -7.602   7.105  67.485  1.00  0.00    -0.110 C  
HETATM   27  C   UNL     1     -11.204   7.892  70.266  1.00  0.00    -0.206 A  
ENDBRANCH  10  11
ENDBRANCH   9  10
ENDBRANCH   8   9
ENDBRANCH   6   7
ENDBRANCH   3   6
ENDBRANCH   2   3
TORSDOF 7
ENDMDL
MODEL      266
REMARK 921   NORMALIZED FREE ENERGY PREDICTED BY IDOCK:   -2.36 KCAL/MOL
REMARK 922        TOTAL FREE ENERGY PREDICTED BY IDOCK:   -4.57 KCAL/MOL
REMARK 923 INTER-LIGAND FREE ENERGY PREDICTED BY IDOCK:   -4.16 KCAL/MOL
REMARK 924 INTRA-LIGAND FREE ENERGY PREDICTED BY IDOCK:   -0.40 KCAL/MOL
REMARK 927      BINDING AFFINITY PREDICTED BY RF-SCORE:    0.00 PKD
ROOT
HETATM    1  C   UNL     1      -5.212  19.579  69.276  1.00  0.00    -0.197 C  
HETATM    2  C   UNL     1      -6.491  19.301  68.490  1.00  0.00    -0.248 C  
ENDROOT
BRANCH   2   3
HETATM    3  N   UNL     1      -6.810  20.309  67.464  1.00  0.00    -0.251 NA 
BRANCH   3   4
HETATM    4  C   UNL     1      -5.719  20.551  66.506  1.00  0.00    -0.181 C  
HETATM    5  C   UNL     1      -5.903  19.985  65.102  1.00  0.00    -0.237 C  
ENDBRANCH   3   4
BRANCH   3   6
HETATM    6  C   UNL     1      -8.098  19.968  66.833  1.00  0.00    -0.321 C  
BRANCH   6   7
HETATM    7  C   UNL     1      -8.998  19.166  67.758  1.00  0.00    -0.338 C  
HETATM    8  C   UNL     1      -9.770  18.476  68.550  1.00  0.00    -0.399 C  
BRANCH   8   9
HETATM    9  C   UNL     1     -10.657  17.699  69.419  1.00  0.00     0.195 C  
BRANCH   9  10
HETATM   10  O   UNL     1     -10.304  16.309  69.388  1.00  0.00    -0.245 OA 
BRANCH  10  11
HETATM   11  C   UNL     1     -11.074  15.539  68.557  1.00  0.00    -0.307 C  
HETATM   12  O   UNL     1     -11.610  15.948  67.533  1.00  0.00    -0.103 OA 
HETATM   13  C   UNL     1     -11.202  14.084  69.135  1.00  0.00    -0.269 C  
HETATM   14  C   UNL     1     -10.625  13.093  68.102  1.00  0.00    -0.257 A  
HETATM   15  C   UNL     1     -12.713  13.798  69.458  1.00  0.00     0.286 C  
HETATM   16  O   UNL     1     -10.433  13.962  70.342  1.00  0.00     0.348 OA 
HETATM   17  H   UNL     1     -10.511  13.082  70.691  1.00  0.00     0.000 HD 
HETATM   18  C   UNL     1      -9.560  12.230  68.422  1.00  0.00    -0.183 A  
HETATM   19  C   UNL     1     -12.999  12.379  70.000  1.00  0.00     0.718 C  
HETATM   20  C   UNL     1      -9.018  11.360  67.472  1.00  0.00    -0.150 A  
HETATM   21  C   UNL     1     -12.630  12.174  71.469  1.00  0.00    -0.267 C  
HETATM   22  C   UNL     1     -13.246  13.232  72.377  1.00  0.00    -0.539 C  
HETATM   23  C   UNL     1      -9.527  11.333  66.178  1.00  0.00    -0.232 A  
HETATM   24  C   UNL     1     -10.587  12.169  65.836  1.00  0.00    -0.293 A  
HETATM   25  C   UNL     1     -13.005  14.653  71.885  1.00  0.00    -0.406 C  
HETATM   26  C   UNL     1     -13.369  14.825  70.413  1.00  0.00     0.026 C  
HETATM   27  C   UNL     1     -11.134  13.032  66.790  1.00  0.00    -0.316 A  
ENDBRANCH  10  11
ENDBRANCH   9  10
ENDBRANCH   8   9
ENDBRANCH   6   7
ENDBRANCH   3   6
ENDBRANCH   2   3
TORSDOF 7
ENDMDL
MODEL      267
REMARK 921   NORMALIZED FREE ENERGY PREDICTED BY IDOCK:   -2.36 KCAL/MOL
REMARK 922        TOTAL FREE ENERGY PREDICTED BY IDOCK:   -4.56 KCAL/MOL
REMARK 923 INTER-LIGAND FREE ENERGY PREDICTED BY IDOCK:   -3.97 KCAL/MOL
REMARK 924 INTRA-LIGAND FREE ENERGY PREDICTED BY IDOCK:   -0.60 KCAL/MOL
REMARK 927      BINDING AFFINITY PREDICTED BY RF-SCORE:    0.00 PKD
ROOT
HETATM    1  C   UNL     1      -8.333   5.455  73.634  1.00  0.00    -0.112 C  
HETATM    2  C   UNL     1      -8.740   5.120  72.201  1.00  0.00    -0.129 C  
ENDROOT
BRANCH   2   3
HETATM    3  N   UNL     1      -8.191   3.852  71.689  1.00  0.00    -0.076 NA 
BRANCH   3   4
HETATM    4  C   UNL     1      -9.197   2.968  71.079  1.00  0.00    -0.130 C  
HETATM    5  C   UNL     1      -9.884   1.972  72.007  1.00  0.00    -0.216 C  
ENDBRANCH   3   4
BRANCH   3   6
HETATM    6  C   UNL     1      -7.038   4.140  70.817  1.00  0.00    -0.033 C  
BRANCH   6   7
HETATM    7  C   UNL     1      -7.441   4.894  69.560  1.00  0.00    -0.056 C  
HETATM    8  C   UNL     1      -7.787   5.541  68.483  1.00  0.00    -0.088 C  
BRANCH   8   9
HETATM    9  C   UNL     1      -8.204   6.258  67.275  1.00  0.00    -0.109 C  
BRANCH   9  10
HETATM   10  O   UNL     1      -8.381   7.655  67.553  1.00  0.00    -0.119 OA 
BRANCH  10  11
HETATM   11  C   UNL     1      -9.274   8.294  66.735  1.00  0.00    -0.169 C  
HETATM   12  O   UNL     1     -10.454   7.980  66.618  1.00  0.00    -0.303 OA 
HETATM   13  C   UNL     1      -8.553   9.445  65.945  1.00  0.00    -0.141 C  
HETATM   14  C   UNL     1      -9.236  10.784  66.297  1.00  0.00    -0.195 A  
HETATM   15  C   UNL     1      -8.623   9.125  64.408  1.00  0.00    -0.204 C  
HETATM   16  O   UNL     1      -7.177   9.532  66.345  1.00  0.00    -0.087 OA 
HETATM   17  H   UNL     1      -6.741  10.228  65.867  1.00  0.00     0.000 HD 
HETATM   18  C   UNL     1      -8.515  11.853  66.861  1.00  0.00    -0.174 A  
HETATM   19  C   UNL     1      -7.985  10.199  63.497  1.00  0.00    -0.161 C  
HETATM   20  C   UNL     1      -9.145  13.050  67.212  1.00  0.00    -0.209 A  
HETATM   21  C   UNL     1      -6.458  10.167  63.451  1.00  0.00    -0.136 C  
HETATM   22  C   UNL     1      -5.915   8.783  63.114  1.00  0.00    -0.085 C  
HETATM   23  C   UNL     1     -10.512  13.207  67.008  1.00  0.00    -0.248 A  
HETATM   24  C   UNL     1     -11.248  12.169  66.441  1.00  0.00    -0.380 A  
HETATM   25  C   UNL     1      -6.517   7.680  63.976  1.00  0.00    -0.053 C  
HETATM   26  C   UNL     1      -8.042   7.745  64.015  1.00  0.00    -0.062 C  
HETATM   27  C   UNL     1     -10.615  10.975  66.084  1.00  0.00    -0.288 A  
ENDBRANCH  10  11
ENDBRANCH   9  10
ENDBRANCH   8   9
ENDBRANCH   6   7
ENDBRANCH   3   6
ENDBRANCH   2   3
TORSDOF 7
ENDMDL
MODEL      268
REMARK 921   NORMALIZED FREE ENERGY PREDICTED BY IDOCK:   -2.28 KCAL/MOL
REMARK 922        TOTAL FREE ENERGY PREDICTED BY IDOCK:   -4.45 KCAL/MOL
REMARK 923 INTER-LIGAND FREE ENERGY PREDICTED BY IDOCK:   -4.05 KCAL/MOL
REMARK 924 INTRA-LIGAND FREE ENERGY PREDICTED BY IDOCK:   -0.40 KCAL/MOL
REMARK 927      BINDING AFFINITY PREDICTED BY RF-SCORE:    0.00 PKD
ROOT
HETATM    1  C   UNL     1      -5.273   7.593  70.850  1.00  0.00    -0.026 C  
HETATM    2  C   UNL     1      -5.633   6.674  69.686  1.00  0.00    -0.015 C  
ENDROOT
BRANCH   2   3
HETATM    3  N   UNL     1      -6.805   7.106  68.905  1.00  0.00    -0.066 NA 
BRANCH   3   4
HETATM    4  C   UNL     1      -8.087   6.598  69.422  1.00  0.00    -0.119 C  
HETATM    5  C   UNL     1      -8.106   5.152  69.904  1.00  0.00    -0.082 C  
ENDBRANCH   3   4
BRANCH   3   6
HETATM    6  C   UNL     1      -6.763   8.569  68.736  1.00  0.00    -0.058 C  
BRANCH   6   7
HETATM    7  C   UNL     1      -7.927   9.087  67.906  1.00  0.00    -0.102 C  
HETATM    8  C   UNL     1      -8.925   9.530  67.195  1.00  0.00    -0.148 C  
BRANCH   8   9
HETATM    9  C   UNL     1     -10.052  10.001  66.386  1.00  0.00    -0.241 C  
BRANCH   9  10
HETATM   10  O   UNL     1      -9.888  11.385  66.048  1.00  0.00    -0.207 OA 
BRANCH  10  11
HETATM   11  C   UNL     1     -10.074  12.256  67.088  1.00  0.00    -0.208 C  
HETATM   12  O   UNL     1     -10.461  11.930  68.205  1.00  0.00    -0.192 OA 
HETATM   13  C   UNL     1      -9.766  13.725  66.623  1.00  0.00    -0.289 C  
HETATM   14  C   UNL     1      -8.619  14.285  67.491  1.00  0.00    -0.203 A  
HETATM   15  C   UNL     1     -11.079  14.581  66.744  1.00  0.00    -0.325 C  
HETATM   16  O   UNL     1      -9.328  13.729  65.255  1.00  0.00    -0.373 OA 
HETATM   17  H   UNL     1      -9.142  14.617  64.974  1.00  0.00     0.000 HD 
HETATM   18  C   UNL     1      -7.416  14.740  66.919  1.00  0.00     0.310 A  
HETATM   19  C   UNL     1     -10.916  16.068  66.355  1.00  0.00    -0.070 C  
HETATM   20  C   UNL     1      -6.367  15.212  67.712  1.00  0.00    -0.181 A  
HETATM   21  C   UNL     1     -10.865  16.330  64.850  1.00  0.00    -0.315 C  
HETATM   22  C   UNL     1     -12.043  15.705  64.111  1.00  0.00    -0.002 C  
HETATM   23  C   UNL     1      -6.494  15.239  69.097  1.00  0.00    -0.122 A  
HETATM   24  C   UNL     1      -7.678  14.805  69.689  1.00  0.00    -0.011 A  
HETATM   25  C   UNL     1     -12.258  14.239  64.464  1.00  0.00    -0.476 C  
HETATM   26  C   UNL     1     -12.291  14.005  65.972  1.00  0.00    -0.504 C  
HETATM   27  C   UNL     1      -8.730  14.341  68.894  1.00  0.00    -0.027 A  
ENDBRANCH  10  11
ENDBRANCH   9  10
ENDBRANCH   8   9
ENDBRANCH   6   7
ENDBRANCH   3   6
ENDBRANCH   2   3
TORSDOF 7
ENDMDL
MODEL      269
REMARK 921   NORMALIZED FREE ENERGY PREDICTED BY IDOCK:   -2.21 KCAL/MOL
REMARK 922        TOTAL FREE ENERGY PREDICTED BY IDOCK:   -4.36 KCAL/MOL
REMARK 923 INTER-LIGAND FREE ENERGY PREDICTED BY IDOCK:   -3.66 KCAL/MOL
REMARK 924 INTRA-LIGAND FREE ENERGY PREDICTED BY IDOCK:   -0.70 KCAL/MOL
REMARK 927      BINDING AFFINITY PREDICTED BY RF-SCORE:    0.00 PKD
ROOT
HETATM    1  C   UNL     1      -5.959   1.720  64.511  1.00  0.00    -0.013 C  
HETATM    2  C   UNL     1      -7.233   1.978  63.709  1.00  0.00    -0.051 C  
ENDROOT
BRANCH   2   3
HETATM    3  N   UNL     1      -7.949   3.212  64.077  1.00  0.00    -0.081 NA 
BRANCH   3   4
HETATM    4  C   UNL     1      -8.275   4.078  62.932  1.00  0.00    -0.081 C  
HETATM    5  C   UNL     1      -9.684   3.955  62.362  1.00  0.00    -0.120 C  
ENDBRANCH   3   4
BRANCH   3   6
HETATM    6  C   UNL     1      -9.109   2.866  64.918  1.00  0.00    -0.141 C  
BRANCH   6   7
HETATM    7  C   UNL     1      -9.680   4.076  65.638  1.00  0.00    -0.192 C  
HETATM    8  C   UNL     1     -10.169   5.114  66.257  1.00  0.00    -0.289 C  
BRANCH   8   9
HETATM    9  C   UNL     1     -10.726   6.263  66.974  1.00  0.00    -0.362 C  
BRANCH   9  10
HETATM   10  O   UNL     1     -10.686   6.043  68.392  1.00  0.00    -0.240 OA 
BRANCH  10  11
HETATM   11  C   UNL     1     -10.225   7.103  69.125  1.00  0.00    -0.194 C  
HETATM   12  O   UNL     1     -10.803   8.181  69.225  1.00  0.00    -0.172 OA 
HETATM   13  C   UNL     1      -8.837   6.750  69.771  1.00  0.00    -0.141 C  
HETATM   14  C   UNL     1      -8.969   6.856  71.305  1.00  0.00    -0.142 A  
HETATM   15  C   UNL     1      -7.747   7.725  69.195  1.00  0.00    -0.101 C  
HETATM   16  O   UNL     1      -8.473   5.398  69.451  1.00  0.00    -0.098 OA 
HETATM   17  H   UNL     1      -7.635   5.184  69.842  1.00  0.00     0.000 HD 
HETATM   18  C   UNL     1      -8.699   5.760  72.146  1.00  0.00    -0.133 A  
HETATM   19  C   UNL     1      -6.329   7.519  69.775  1.00  0.00    -0.031 C  
HETATM   20  C   UNL     1      -8.855   5.852  73.532  1.00  0.00    -0.125 A  
HETATM   21  C   UNL     1      -5.577   6.317  69.205  1.00  0.00    -0.016 C  
HETATM   22  C   UNL     1      -5.541   6.323  67.681  1.00  0.00    -0.005 C  
HETATM   23  C   UNL     1      -9.284   7.042  74.110  1.00  0.00    -0.267 A  
HETATM   24  C   UNL     1      -9.548   8.145  73.303  1.00  0.00    -0.261 A  
HETATM   25  C   UNL     1      -6.913   6.532  67.053  1.00  0.00    -0.068 C  
HETATM   26  C   UNL     1      -7.646   7.731  67.651  1.00  0.00    -0.113 C  
HETATM   27  C   UNL     1      -9.384   8.054  71.918  1.00  0.00    -0.225 A  
ENDBRANCH  10  11
ENDBRANCH   9  10
ENDBRANCH   8   9
ENDBRANCH   6   7
ENDBRANCH   3   6
ENDBRANCH   2   3
TORSDOF 7
ENDMDL
MODEL      270
REMARK 921   NORMALIZED FREE ENERGY PREDICTED BY IDOCK:   -2.08 KCAL/MOL
REMARK 922        TOTAL FREE ENERGY PREDICTED BY IDOCK:   -4.18 KCAL/MOL
REMARK 923 INTER-LIGAND FREE ENERGY PREDICTED BY IDOCK:   -3.87 KCAL/MOL
REMARK 924 INTRA-LIGAND FREE ENERGY PREDICTED BY IDOCK:   -0.31 KCAL/MOL
REMARK 927      BINDING AFFINITY PREDICTED BY RF-SCORE:    0.00 PKD
ROOT
HETATM    1  C   UNL     1     -12.095  14.279  69.499  1.00  0.00    -0.376 C  
HETATM    2  C   UNL     1     -12.842  13.017  69.925  1.00  0.00     0.549 C  
ENDROOT
BRANCH   2   3
HETATM    3  N   UNL     1     -12.943  12.828  71.383  1.00  0.00    -0.329 NA 
BRANCH   3   4
HETATM    4  C   UNL     1     -13.762  13.846  72.061  1.00  0.00    -0.486 C  
HETATM    5  C   UNL     1     -13.160  14.493  73.303  1.00  0.00    -0.440 C  
ENDBRANCH   3   4
BRANCH   3   6
HETATM    6  C   UNL     1     -13.353  11.442  71.666  1.00  0.00    -0.187 C  
BRANCH   6   7
HETATM    7  C   UNL     1     -12.430  10.424  71.017  1.00  0.00    -0.488 C  
HETATM    8  C   UNL     1     -11.638   9.552  70.459  1.00  0.00    -0.316 C  
BRANCH   8   9
HETATM    9  C   UNL     1     -10.746   8.588  69.809  1.00  0.00    -0.213 C  
BRANCH   9  10
HETATM   10  O   UNL     1     -10.108   7.751  70.785  1.00  0.00    -0.192 OA 
BRANCH  10  11
HETATM   11  C   UNL     1      -8.821   8.104  71.089  1.00  0.00    -0.146 C  
HETATM   12  O   UNL     1      -8.512   9.004  71.863  1.00  0.00    -0.363 OA 
HETATM   13  C   UNL     1      -7.812   7.222  70.268  1.00  0.00    -0.096 C  
HETATM   14  C   UNL     1      -6.919   6.446  71.260  1.00  0.00    -0.075 A  
HETATM   15  C   UNL     1      -6.978   8.156  69.319  1.00  0.00    -0.055 C  
HETATM   16  O   UNL     1      -8.527   6.263  69.473  1.00  0.00    -0.125 OA 
HETATM   17  H   UNL     1      -7.917   5.730  68.977  1.00  0.00     0.000 HD 
HETATM   18  C   UNL     1      -6.860   5.039  71.254  1.00  0.00    -0.040 A  
HETATM   19  C   UNL     1      -5.909   7.426  68.473  1.00  0.00    -0.023 C  
HETATM   20  C   UNL     1      -6.078   4.340  72.177  1.00  0.00    -0.020 A  
HETATM   21  C   UNL     1      -6.463   6.668  67.267  1.00  0.00    -0.045 C  
HETATM   22  C   UNL     1      -7.344   7.544  66.383  1.00  0.00    -0.083 C  
HETATM   23  C   UNL     1      -5.337   5.031  73.131  1.00  0.00    -0.013 A  
HETATM   24  C   UNL     1      -5.368   6.423  73.153  1.00  0.00    -0.037 A  
HETATM   25  C   UNL     1      -8.411   8.298  67.166  1.00  0.00    -0.123 C  
HETATM   26  C   UNL     1      -7.832   9.034  68.372  1.00  0.00    -0.103 C  
HETATM   27  C   UNL     1      -6.144   7.121  72.223  1.00  0.00    -0.041 A  
ENDBRANCH  10  11
ENDBRANCH   9  10
ENDBRANCH   8   9
ENDBRANCH   6   7
ENDBRANCH   3   6
ENDBRANCH   2   3
TORSDOF 7
ENDMDL
MODEL      271
REMARK 921   NORMALIZED FREE ENERGY PREDICTED BY IDOCK:   -2.06 KCAL/MOL
REMARK 922        TOTAL FREE ENERGY PREDICTED BY IDOCK:   -4.14 KCAL/MOL
REMARK 923 INTER-LIGAND FREE ENERGY PREDICTED BY IDOCK:   -3.29 KCAL/MOL
REMARK 924 INTRA-LIGAND FREE ENERGY PREDICTED BY IDOCK:   -0.85 KCAL/MOL
REMARK 927      BINDING AFFINITY PREDICTED BY RF-SCORE:    0.00 PKD
ROOT
HETATM    1  C   UNL     1      -6.018   2.641  65.201  1.00  0.00    -0.019 C  
HETATM    2  C   UNL     1      -7.282   2.005  65.776  1.00  0.00    -0.056 C  
ENDROOT
BRANCH   2   3
HETATM    3  N   UNL     1      -8.261   2.966  66.312  1.00  0.00    -0.086 NA 
BRANCH   3   4
HETATM    4  C   UNL     1      -9.422   3.188  65.434  1.00  0.00    -0.091 C  
HETATM    5  C   UNL     1      -9.321   4.345  64.446  1.00  0.00    -0.134 C  
ENDBRANCH   3   4
BRANCH   3   6
HETATM    6  C   UNL     1      -8.616   2.580  67.689  1.00  0.00    -0.101 C  
BRANCH   6   7
HETATM    7  C   UNL     1      -9.437   3.648  68.393  1.00  0.00    -0.214 C  
HETATM    8  C   UNL     1     -10.140   4.563  68.998  1.00  0.00    -0.057 C  
BRANCH   8   9
HETATM    9  C   UNL     1     -10.945   5.571  69.693  1.00  0.00    -0.085 C  
BRANCH   9  10
HETATM   10  O   UNL     1     -10.612   6.889  69.233  1.00  0.00    -0.208 OA 
BRANCH  10  11
HETATM   11  C   UNL     1     -10.231   7.761  70.217  1.00  0.00    -0.199 C  
HETATM   12  O   UNL     1     -10.909   8.036  71.201  1.00  0.00    -0.232 OA 
HETATM   13  C   UNL     1      -8.830   8.384  69.871  1.00  0.00    -0.137 C  
HETATM   14  C   UNL     1      -7.842   8.027  71.002  1.00  0.00    -0.090 A  
HETATM   15  C   UNL     1      -8.997   9.937  69.693  1.00  0.00    -0.232 C  
HETATM   16  O   UNL     1      -8.327   7.822  68.650  1.00  0.00    -0.126 OA 
HETATM   17  H   UNL     1      -7.481   8.199  68.441  1.00  0.00     0.000 HD 
HETATM   18  C   UNL     1      -6.656   7.313  70.746  1.00  0.00    -0.044 A  
HETATM   19  C   UNL     1      -7.684  10.695  69.387  1.00  0.00    -0.132 C  
HETATM   20  C   UNL     1      -5.783   6.961  71.778  1.00  0.00    -0.037 A  
HETATM   21  C   UNL     1      -7.197  10.564  67.944  1.00  0.00    -0.084 C  
HETATM   22  C   UNL     1      -8.276  10.926  66.930  1.00  0.00    -0.135 C  
HETATM   23  C   UNL     1      -6.074   7.312  73.092  1.00  0.00    -0.056 A  
HETATM   24  C   UNL     1      -7.236   8.028  73.373  1.00  0.00    -0.161 A  
HETATM   25  C   UNL     1      -9.598  10.215  67.188  1.00  0.00    -0.202 C  
HETATM   26  C   UNL     1     -10.054  10.350  68.639  1.00  0.00    -0.188 C  
HETATM   27  C   UNL     1      -8.104   8.387  72.338  1.00  0.00    -0.185 A  
ENDBRANCH  10  11
ENDBRANCH   9  10
ENDBRANCH   8   9
ENDBRANCH   6   7
ENDBRANCH   3   6
ENDBRANCH   2   3
TORSDOF 7
ENDMDL
MODEL      272
REMARK 921   NORMALIZED FREE ENERGY PREDICTED BY IDOCK:   -2.04 KCAL/MOL
REMARK 922        TOTAL FREE ENERGY PREDICTED BY IDOCK:   -4.11 KCAL/MOL
REMARK 923 INTER-LIGAND FREE ENERGY PREDICTED BY IDOCK:   -3.85 KCAL/MOL
REMARK 924 INTRA-LIGAND FREE ENERGY PREDICTED BY IDOCK:   -0.27 KCAL/MOL
REMARK 927      BINDING AFFINITY PREDICTED BY RF-SCORE:    0.00 PKD
ROOT
HETATM    1  C   UNL     1      -7.511  12.103  66.524  1.00  0.00     0.307 C  
HETATM    2  C   UNL     1      -8.844  12.801  66.783  1.00  0.00    -0.159 C  
ENDROOT
BRANCH   2   3
HETATM    3  N   UNL     1      -9.906  12.472  65.816  1.00  0.00    -0.256 NA 
BRANCH   3   4
HETATM    4  C   UNL     1     -10.295  13.598  64.951  1.00  0.00    -0.388 C  
HETATM    5  C   UNL     1     -10.424  14.962  65.620  1.00  0.00    -0.366 C  
ENDBRANCH   3   4
BRANCH   3   6
HETATM    6  C   UNL     1      -9.531  11.252  65.081  1.00  0.00    -0.215 C  
BRANCH   6   7
HETATM    7  C   UNL     1     -10.000   9.989  65.784  1.00  0.00    -0.346 C  
HETATM    8  C   UNL     1     -10.401   8.905  66.387  1.00  0.00    -0.189 C  
BRANCH   8   9
HETATM    9  C   UNL     1     -10.827   7.675  67.059  1.00  0.00    -0.149 C  
BRANCH   9  10
HETATM   10  O   UNL     1     -10.139   6.539  66.517  1.00  0.00    -0.158 OA 
BRANCH  10  11
HETATM   11  C   UNL     1      -8.977   6.210  67.161  1.00  0.00    -0.111 C  
HETATM   12  O   UNL     1      -8.037   6.979  67.331  1.00  0.00    -0.113 OA 
HETATM   13  C   UNL     1      -9.011   4.702  67.600  1.00  0.00    -0.113 C  
HETATM   14  C   UNL     1      -8.868   4.635  69.135  1.00  0.00    -0.126 A  
HETATM   15  C   UNL     1      -7.859   3.932  66.858  1.00  0.00    -0.088 C  
HETATM   16  O   UNL     1     -10.272   4.113  67.247  1.00  0.00    -0.136 OA 
HETATM   17  H   UNL     1     -10.294   3.202  67.513  1.00  0.00     0.000 HD 
HETATM   18  C   UNL     1      -9.849   4.027  69.941  1.00  0.00    -0.185 A  
HETATM   19  C   UNL     1      -7.746   2.434  67.226  1.00  0.00    -0.065 C  
HETATM   20  C   UNL     1      -9.732   4.001  71.334  1.00  0.00    -0.253 A  
HETATM   21  C   UNL     1      -8.792   1.537  66.566  1.00  0.00    -0.120 C  
HETATM   22  C   UNL     1      -8.844   1.718  65.054  1.00  0.00    -0.117 C  
HETATM   23  C   UNL     1      -8.631   4.583  71.954  1.00  0.00    -0.121 A  
HETATM   24  C   UNL     1      -7.640   5.181  71.180  1.00  0.00    -0.095 A  
HETATM   25  C   UNL     1      -8.947   3.178  64.632  1.00  0.00    -0.124 C  
HETATM   26  C   UNL     1      -7.899   4.053  65.316  1.00  0.00    -0.089 C  
HETATM   27  C   UNL     1      -7.755   5.199  69.787  1.00  0.00    -0.071 A  
ENDBRANCH  10  11
ENDBRANCH   9  10
ENDBRANCH   8   9
ENDBRANCH   6   7
ENDBRANCH   3   6
ENDBRANCH   2   3
TORSDOF 7
ENDMDL
MODEL      273
REMARK 921   NORMALIZED FREE ENERGY PREDICTED BY IDOCK:   -2.03 KCAL/MOL
REMARK 922        TOTAL FREE ENERGY PREDICTED BY IDOCK:   -4.10 KCAL/MOL
REMARK 923 INTER-LIGAND FREE ENERGY PREDICTED BY IDOCK:   -3.65 KCAL/MOL
REMARK 924 INTRA-LIGAND FREE ENERGY PREDICTED BY IDOCK:   -0.45 KCAL/MOL
REMARK 927      BINDING AFFINITY PREDICTED BY RF-SCORE:    0.00 PKD
ROOT
HETATM    1  C   UNL     1      -8.063   8.734  64.649  1.00  0.00    -0.157 C  
HETATM    2  C   UNL     1      -9.093   9.281  65.635  1.00  0.00    -0.216 C  
ENDROOT
BRANCH   2   3
HETATM    3  N   UNL     1      -8.522  10.040  66.760  1.00  0.00    -0.125 NA 
BRANCH   3   4
HETATM    4  C   UNL     1      -9.260  11.271  67.087  1.00  0.00    -0.163 C  
HETATM    5  C   UNL     1     -10.013  11.286  68.412  1.00  0.00    -0.201 C  
ENDBRANCH   3   4
BRANCH   3   6
HETATM    6  C   UNL     1      -8.327   9.136  67.907  1.00  0.00    -0.117 C  
BRANCH   6   7
HETATM    7  C   UNL     1      -9.027   7.801  67.713  1.00  0.00    -0.128 C  
HETATM    8  C   UNL     1      -9.628   6.656  67.546  1.00  0.00    -0.142 C  
BRANCH   8   9
HETATM    9  C   UNL     1     -10.323   5.383  67.340  1.00  0.00    -0.204 C  
BRANCH   9  10
HETATM   10  O   UNL     1     -10.019   4.465  68.400  1.00  0.00    -0.105 OA 
BRANCH  10  11
HETATM   11  C   UNL     1      -8.879   4.753  69.100  1.00  0.00    -0.092 C  
HETATM   12  O   UNL     1      -7.755   4.793  68.610  1.00  0.00    -0.075 OA 
HETATM   13  C   UNL     1      -9.219   4.975  70.618  1.00  0.00    -0.147 C  
HETATM   14  C   UNL     1      -8.791   6.404  71.013  1.00  0.00    -0.139 A  
HETATM   15  C   UNL     1      -8.486   3.875  71.468  1.00  0.00    -0.102 C  
HETATM   16  O   UNL     1     -10.635   4.864  70.828  1.00  0.00    -0.153 OA 
HETATM   17  H   UNL     1     -10.841   4.998  71.745  1.00  0.00     0.000 HD 
HETATM   18  C   UNL     1      -9.713   7.334  71.530  1.00  0.00    -0.168 A  
HETATM   19  C   UNL     1      -8.698   3.993  72.995  1.00  0.00    -0.100 C  
HETATM   20  C   UNL     1      -9.328   8.638  71.852  1.00  0.00    -0.357 A  
HETATM   21  C   UNL     1     -10.055   3.493  73.488  1.00  0.00    -0.193 C  
HETATM   22  C   UNL     1     -10.363   2.078  73.009  1.00  0.00    -0.214 C  
HETATM   23  C   UNL     1      -8.010   9.045  71.664  1.00  0.00     0.018 A  
HETATM   24  C   UNL     1      -7.075   8.142  71.165  1.00  0.00    -0.058 A  
HETATM   25  C   UNL     1     -10.161   1.900  71.510  1.00  0.00    -0.091 C  
HETATM   26  C   UNL     1      -8.804   2.421  71.043  1.00  0.00    -0.132 C  
HETATM   27  C   UNL     1      -7.460   6.836  70.851  1.00  0.00    -0.083 A  
ENDBRANCH  10  11
ENDBRANCH   9  10
ENDBRANCH   8   9
ENDBRANCH   6   7
ENDBRANCH   3   6
ENDBRANCH   2   3
TORSDOF 7
ENDMDL
MODEL      274
REMARK 921   NORMALIZED FREE ENERGY PREDICTED BY IDOCK:   -2.01 KCAL/MOL
REMARK 922        TOTAL FREE ENERGY PREDICTED BY IDOCK:   -4.08 KCAL/MOL
REMARK 923 INTER-LIGAND FREE ENERGY PREDICTED BY IDOCK:   -4.32 KCAL/MOL
REMARK 924 INTRA-LIGAND FREE ENERGY PREDICTED BY IDOCK:    0.24 KCAL/MOL
REMARK 927      BINDING AFFINITY PREDICTED BY RF-SCORE:    0.00 PKD
ROOT
HETATM    1  C   UNL     1      -8.339   8.072  71.937  1.00  0.00    -0.167 C  
HETATM    2  C   UNL     1      -9.222   6.992  71.317  1.00  0.00    -0.152 C  
ENDROOT
BRANCH   2   3
HETATM    3  N   UNL     1     -10.460   6.709  72.064  1.00  0.00    -0.202 NA 
BRANCH   3   4
HETATM    4  C   UNL     1     -10.241   6.000  73.336  1.00  0.00    -0.216 C  
HETATM    5  C   UNL     1      -9.395   6.718  74.382  1.00  0.00    -0.259 C  
ENDBRANCH   3   4
BRANCH   3   6
HETATM    6  C   UNL     1     -11.241   7.952  72.197  1.00  0.00    -0.307 C  
BRANCH   6   7
HETATM    7  C   UNL     1     -11.156   8.821  70.954  1.00  0.00    -0.320 C  
HETATM    8  C   UNL     1     -11.084   9.568  69.887  1.00  0.00    -0.244 C  
BRANCH   8   9
HETATM    9  C   UNL     1     -11.032  10.411  68.690  1.00  0.00    -0.243 C  
BRANCH   9  10
HETATM   10  O   UNL     1      -9.814  10.185  67.966  1.00  0.00    -0.145 OA 
BRANCH  10  11
HETATM   11  C   UNL     1      -9.983   9.725  66.688  1.00  0.00    -0.229 C  
HETATM   12  O   UNL     1     -10.826  10.149  65.904  1.00  0.00     0.047 OA 
HETATM   13  C   UNL     1      -8.976   8.554  66.399  1.00  0.00    -0.165 C  
HETATM   14  C   UNL     1      -8.078   8.961  65.212  1.00  0.00    -0.126 A  
HETATM   15  C   UNL     1      -9.794   7.244  66.106  1.00  0.00     0.095 C  
HETATM   16  O   UNL     1      -8.132   8.335  67.539  1.00  0.00    -0.118 OA 
HETATM   17  H   UNL     1      -7.524   7.627  67.364  1.00  0.00     0.000 HD 
HETATM   18  C   UNL     1      -6.676   9.021  65.335  1.00  0.00    -0.072 A  
HETATM   19  C   UNL     1      -8.930   6.008  65.763  1.00  0.00    -0.116 C  
HETATM   20  C   UNL     1      -5.869   9.425  64.268  1.00  0.00    -0.076 A  
HETATM   21  C   UNL     1      -8.265   5.344  66.968  1.00  0.00    -0.104 C  
HETATM   22  C   UNL     1      -9.261   5.014  68.074  1.00  0.00    -0.139 C  
HETATM   23  C   UNL     1      -6.444   9.780  63.052  1.00  0.00    -0.113 A  
HETATM   24  C   UNL     1      -7.827   9.720  62.899  1.00  0.00    -0.131 A  
HETATM   25  C   UNL     1     -10.148   6.195  68.448  1.00  0.00    -0.186 C  
HETATM   26  C   UNL     1     -10.788   6.847  67.225  1.00  0.00    -0.426 C  
HETATM   27  C   UNL     1      -8.632   9.308  63.965  1.00  0.00    -0.204 A  
ENDBRANCH  10  11
ENDBRANCH   9  10
ENDBRANCH   8   9
ENDBRANCH   6   7
ENDBRANCH   3   6
ENDBRANCH   2   3
TORSDOF 7
ENDMDL
MODEL      275
REMARK 921   NORMALIZED FREE ENERGY PREDICTED BY IDOCK:   -2.00 KCAL/MOL
REMARK 922        TOTAL FREE ENERGY PREDICTED BY IDOCK:   -4.06 KCAL/MOL
REMARK 923 INTER-LIGAND FREE ENERGY PREDICTED BY IDOCK:   -2.91 KCAL/MOL
REMARK 924 INTRA-LIGAND FREE ENERGY PREDICTED BY IDOCK:   -1.15 KCAL/MOL
REMARK 927      BINDING AFFINITY PREDICTED BY RF-SCORE:    0.00 PKD
ROOT
HETATM    1  C   UNL     1      -9.968   2.725  72.499  1.00  0.00    -0.229 C  
HETATM    2  C   UNL     1      -9.556   2.699  71.029  1.00  0.00    -0.140 C  
ENDROOT
BRANCH   2   3
HETATM    3  N   UNL     1      -8.132   2.398  70.798  1.00  0.00    -0.049 NA 
BRANCH   3   4
HETATM    4  C   UNL     1      -7.445   1.827  71.968  1.00  0.00    -0.039 C  
HETATM    5  C   UNL     1      -6.034   2.333  72.246  1.00  0.00    -0.009 C  
ENDBRANCH   3   4
BRANCH   3   6
HETATM    6  C   UNL     1      -8.000   1.591  69.572  1.00  0.00    -0.041 C  
BRANCH   6   7
HETATM    7  C   UNL     1      -8.416   2.360  68.329  1.00  0.00    -0.097 C  
HETATM    8  C   UNL     1      -8.774   3.020  67.263  1.00  0.00    -0.141 C  
BRANCH   8   9
HETATM    9  C   UNL     1      -9.196   3.741  66.060  1.00  0.00    -0.161 C  
BRANCH   9  10
HETATM   10  O   UNL     1      -8.577   5.034  66.001  1.00  0.00    -0.116 OA 
BRANCH  10  11
HETATM   11  C   UNL     1      -9.350   6.062  66.468  1.00  0.00    -0.152 C  
HETATM   12  O   UNL     1     -10.515   6.260  66.138  1.00  0.00     0.066 OA 
HETATM   13  C   UNL     1      -8.513   6.967  67.443  1.00  0.00    -0.121 C  
HETATM   14  C   UNL     1      -9.201   6.967  68.825  1.00  0.00    -0.131 A  
HETATM   15  C   UNL     1      -8.407   8.410  66.829  1.00  0.00    -0.109 C  
HETATM   16  O   UNL     1      -7.193   6.427  67.607  1.00  0.00    -0.081 OA 
HETATM   17  H   UNL     1      -6.687   6.974  68.195  1.00  0.00     0.000 HD 
HETATM   18  C   UNL     1      -8.528   6.537  69.984  1.00  0.00    -0.135 A  
HETATM   19  C   UNL     1      -7.638   9.427  67.704  1.00  0.00    -0.088 C  
HETATM   20  C   UNL     1      -9.166   6.505  71.226  1.00  0.00    -0.155 A  
HETATM   21  C   UNL     1      -6.118   9.279  67.664  1.00  0.00    -0.054 C  
HETATM   22  C   UNL     1      -5.572   9.272  66.240  1.00  0.00    -0.052 C  
HETATM   23  C   UNL     1     -10.495   6.901  71.340  1.00  0.00    -0.230 A  
HETATM   24  C   UNL     1     -11.182   7.341  70.212  1.00  0.00    -0.287 A  
HETATM   25  C   UNL     1      -6.299   8.294  65.328  1.00  0.00    -0.048 C  
HETATM   26  C   UNL     1      -7.816   8.454  65.399  1.00  0.00    -0.108 C  
HETATM   27  C   UNL     1     -10.539   7.380  68.971  1.00  0.00    -0.203 A  
ENDBRANCH  10  11
ENDBRANCH   9  10
ENDBRANCH   8   9
ENDBRANCH   6   7
ENDBRANCH   3   6
ENDBRANCH   2   3
TORSDOF 7
ENDMDL
MODEL      276
REMARK 921   NORMALIZED FREE ENERGY PREDICTED BY IDOCK:   -1.95 KCAL/MOL
REMARK 922        TOTAL FREE ENERGY PREDICTED BY IDOCK:   -3.98 KCAL/MOL
REMARK 923 INTER-LIGAND FREE ENERGY PREDICTED BY IDOCK:   -3.16 KCAL/MOL
REMARK 924 INTRA-LIGAND FREE ENERGY PREDICTED BY IDOCK:   -0.83 KCAL/MOL
REMARK 927      BINDING AFFINITY PREDICTED BY RF-SCORE:    0.00 PKD
ROOT
HETATM    1  C   UNL     1     -13.510  10.831  72.041  1.00  0.00    -0.296 C  
HETATM    2  C   UNL     1     -13.374  10.314  70.611  1.00  0.00    -0.021 C  
ENDROOT
BRANCH   2   3
HETATM    3  N   UNL     1     -12.044   9.772  70.280  1.00  0.00    -0.110 NA 
BRANCH   3   4
HETATM    4  C   UNL     1     -11.035  10.804  69.989  1.00  0.00    -0.211 C  
HETATM    5  C   UNL     1     -11.555  12.145  69.483  1.00  0.00    -0.382 C  
ENDBRANCH   3   4
BRANCH   3   6
HETATM    6  C   UNL     1     -11.638   8.813  71.322  1.00  0.00    -0.292 C  
BRANCH   6   7
HETATM    7  C   UNL     1     -10.143   8.852  71.589  1.00  0.00    -0.411 C  
HETATM    8  C   UNL     1      -8.860   8.886  71.820  1.00  0.00    -0.171 C  
BRANCH   8   9
HETATM    9  C   UNL     1      -7.423   8.946  72.097  1.00  0.00     0.159 C  
BRANCH   9  10
HETATM   10  O   UNL     1      -6.772   9.854  71.197  1.00  0.00    -0.322 OA 
BRANCH  10  11
HETATM   11  C   UNL     1      -6.235   9.271  70.081  1.00  0.00    -0.045 C  
HETATM   12  O   UNL     1      -5.268   8.515  70.090  1.00  0.00    -0.022 OA 
HETATM   13  C   UNL     1      -7.006   9.749  68.798  1.00  0.00    -0.066 C  
HETATM   14  C   UNL     1      -7.610   8.512  68.100  1.00  0.00    -0.098 A  
HETATM   15  C   UNL     1      -6.008  10.531  67.870  1.00  0.00    -0.043 C  
HETATM   16  O   UNL     1      -8.086  10.620  69.167  1.00  0.00    -0.139 OA 
HETATM   17  H   UNL     1      -8.552  10.909  68.392  1.00  0.00     0.000 HD 
HETATM   18  C   UNL     1      -8.994   8.397  67.872  1.00  0.00    -0.138 A  
HETATM   19  C   UNL     1      -6.622  11.031  66.542  1.00  0.00    -0.132 C  
HETATM   20  C   UNL     1      -9.540   7.259  67.271  1.00  0.00    -0.191 A  
HETATM   21  C   UNL     1      -7.499  12.275  66.675  1.00  0.00     0.243 C  
HETATM   22  C   UNL     1      -6.790  13.412  67.402  1.00  0.00    -0.081 C  
HETATM   23  C   UNL     1      -8.715   6.208  66.885  1.00  0.00    -0.109 A  
HETATM   24  C   UNL     1      -7.340   6.300  67.089  1.00  0.00    -0.083 A  
HETATM   25  C   UNL     1      -6.156  12.975  68.716  1.00  0.00    -0.075 C  
HETATM   26  C   UNL     1      -5.297  11.723  68.556  1.00  0.00    -0.045 C  
HETATM   27  C   UNL     1      -6.795   7.442  67.682  1.00  0.00    -0.078 A  
ENDBRANCH  10  11
ENDBRANCH   9  10
ENDBRANCH   8   9
ENDBRANCH   6   7
ENDBRANCH   3   6
ENDBRANCH   2   3
TORSDOF 7
ENDMDL
MODEL      277
REMARK 921   NORMALIZED FREE ENERGY PREDICTED BY IDOCK:   -1.82 KCAL/MOL
REMARK 922        TOTAL FREE ENERGY PREDICTED BY IDOCK:   -3.81 KCAL/MOL
REMARK 923 INTER-LIGAND FREE ENERGY PREDICTED BY IDOCK:   -3.10 KCAL/MOL
REMARK 924 INTRA-LIGAND FREE ENERGY PREDICTED BY IDOCK:   -0.72 KCAL/MOL
REMARK 927      BINDING AFFINITY PREDICTED BY RF-SCORE:    0.00 PKD
ROOT
HETATM    1  C   UNL     1      -6.390  12.321  70.973  1.00  0.00     1.322 C  
HETATM    2  C   UNL     1      -5.136  11.488  70.715  1.00  0.00    -0.120 C  
ENDROOT
BRANCH   2   3
HETATM    3  N   UNL     1      -5.394  10.065  70.433  1.00  0.00    -0.043 NA 
BRANCH   3   4
HETATM    4  C   UNL     1      -6.680   9.577  70.956  1.00  0.00    -0.048 C  
HETATM    5  C   UNL     1      -6.652   8.256  71.716  1.00  0.00    -0.064 C  
ENDBRANCH   3   4
BRANCH   3   6
HETATM    6  C   UNL     1      -5.195   9.812  68.995  1.00  0.00    -0.036 C  
BRANCH   6   7
HETATM    7  C   UNL     1      -6.442  10.111  68.180  1.00  0.00    -0.057 C  
HETATM    8  C   UNL     1      -7.511  10.367  67.479  1.00  0.00    -0.093 C  
BRANCH   8   9
HETATM    9  C   UNL     1      -8.698  10.649  66.668  1.00  0.00    -0.140 C  
BRANCH   9  10
HETATM   10  O   UNL     1      -8.903  12.065  66.549  1.00  0.00    -0.205 OA 
BRANCH  10  11
HETATM   11  C   UNL     1      -9.972  12.551  67.252  1.00  0.00    -0.211 C  
HETATM   12  O   UNL     1     -10.463  12.004  68.234  1.00  0.00    -0.192 OA 
HETATM   13  C   UNL     1     -10.498  13.875  66.588  1.00  0.00    -0.272 C  
HETATM   14  C   UNL     1     -10.399  15.015  67.624  1.00  0.00    -0.243 A  
HETATM   15  C   UNL     1     -11.971  13.643  66.093  1.00  0.00    -0.453 C  
HETATM   16  O   UNL     1      -9.674  14.224  65.465  1.00  0.00    -0.500 OA 
HETATM   17  H   UNL     1      -9.992  15.024  65.064  1.00  0.00     0.000 HD 
HETATM   18  C   UNL     1      -9.642  16.175  67.373  1.00  0.00    -0.229 A  
HETATM   19  C   UNL     1     -12.636  14.881  65.450  1.00  0.00     0.153 C  
HETATM   20  C   UNL     1      -9.527  17.189  68.328  1.00  0.00    -0.276 A  
HETATM   21  C   UNL     1     -12.185  15.174  64.020  1.00  0.00    -0.070 C  
HETATM   22  C   UNL     1     -12.313  13.959  63.108  1.00  0.00     0.441 C  
HETATM   23  C   UNL     1     -10.165  17.066  69.558  1.00  0.00    -0.106 A  
HETATM   24  C   UNL     1     -10.929  15.934  69.829  1.00  0.00    -0.328 A  
HETATM   25  C   UNL     1     -11.683  12.704  63.697  1.00  0.00    -0.597 C  
HETATM   26  C   UNL     1     -12.141  12.443  65.130  1.00  0.00    -0.464 C  
HETATM   27  C   UNL     1     -11.050  14.925  68.869  1.00  0.00    -0.267 A  
ENDBRANCH  10  11
ENDBRANCH   9  10
ENDBRANCH   8   9
ENDBRANCH   6   7
ENDBRANCH   3   6
ENDBRANCH   2   3
TORSDOF 7
ENDMDL
MODEL      278
REMARK 921   NORMALIZED FREE ENERGY PREDICTED BY IDOCK:   -1.67 KCAL/MOL
REMARK 922        TOTAL FREE ENERGY PREDICTED BY IDOCK:   -3.59 KCAL/MOL
REMARK 923 INTER-LIGAND FREE ENERGY PREDICTED BY IDOCK:   -3.33 KCAL/MOL
REMARK 924 INTRA-LIGAND FREE ENERGY PREDICTED BY IDOCK:   -0.27 KCAL/MOL
REMARK 927      BINDING AFFINITY PREDICTED BY RF-SCORE:    0.00 PKD
ROOT
HETATM    1  C   UNL     1     -10.788  15.570  68.463  1.00  0.00    -0.272 C  
HETATM    2  C   UNL     1     -10.337  14.114  68.549  1.00  0.00    -0.249 C  
ENDROOT
BRANCH   2   3
HETATM    3  N   UNL     1     -11.369  13.130  68.178  1.00  0.00    -0.273 NA 
BRANCH   3   4
HETATM    4  C   UNL     1     -11.306  12.700  66.772  1.00  0.00    -0.320 C  
HETATM    5  C   UNL     1     -10.938  13.767  65.746  1.00  0.00    -0.280 C  
ENDBRANCH   3   4
BRANCH   3   6
HETATM    6  C   UNL     1     -11.350  12.020  69.147  1.00  0.00    -0.281 C  
BRANCH   6   7
HETATM    7  C   UNL     1     -10.234  11.028  68.864  1.00  0.00    -0.218 C  
HETATM    8  C   UNL     1      -9.277  10.177  68.621  1.00  0.00    -0.157 C  
BRANCH   8   9
HETATM    9  C   UNL     1      -8.219   9.206  68.329  1.00  0.00    -0.116 C  
BRANCH   9  10
HETATM   10  O   UNL     1      -8.363   8.039  69.152  1.00  0.00    -0.128 OA 
BRANCH  10  11
HETATM   11  C   UNL     1      -9.045   7.006  68.569  1.00  0.00    -0.131 C  
HETATM   12  O   UNL     1     -10.264   6.965  68.438  1.00  0.00    -0.161 OA 
HETATM   13  C   UNL     1      -8.044   5.872  68.142  1.00  0.00    -0.109 C  
HETATM   14  C   UNL     1      -8.156   5.668  66.616  1.00  0.00    -0.105 A  
HETATM   15  C   UNL     1      -8.386   4.565  68.946  1.00  0.00    -0.086 C  
HETATM   16  O   UNL     1      -6.696   6.266  68.437  1.00  0.00    -0.062 OA 
HETATM   17  H   UNL     1      -6.091   5.581  68.179  1.00  0.00     0.000 HD 
HETATM   18  C   UNL     1      -7.043   5.820  65.768  1.00  0.00    -0.070 A  
HETATM   19  C   UNL     1      -7.501   3.346  68.598  1.00  0.00    -0.049 C  
HETATM   20  C   UNL     1      -7.158   5.669  64.384  1.00  0.00    -0.053 A  
HETATM   21  C   UNL     1      -6.103   3.378  69.213  1.00  0.00    -0.028 C  
HETATM   22  C   UNL     1      -6.135   3.608  70.719  1.00  0.00    -0.018 C  
HETATM   23  C   UNL     1      -8.389   5.365  63.813  1.00  0.00    -0.102 A  
HETATM   24  C   UNL     1      -9.505   5.199  64.629  1.00  0.00     0.252 A  
HETATM   25  C   UNL     1      -7.001   4.794  71.123  1.00  0.00    -0.047 C  
HETATM   26  C   UNL     1      -8.387   4.742  70.484  1.00  0.00    -0.098 C  
HETATM   27  C   UNL     1      -9.387   5.341  66.014  1.00  0.00    -0.167 A  
ENDBRANCH  10  11
ENDBRANCH   9  10
ENDBRANCH   8   9
ENDBRANCH   6   7
ENDBRANCH   3   6
ENDBRANCH   2   3
TORSDOF 7
ENDMDL
MODEL      279
REMARK 921   NORMALIZED FREE ENERGY PREDICTED BY IDOCK:   -1.60 KCAL/MOL
REMARK 922        TOTAL FREE ENERGY PREDICTED BY IDOCK:   -3.50 KCAL/MOL
REMARK 923 INTER-LIGAND FREE ENERGY PREDICTED BY IDOCK:   -3.45 KCAL/MOL
REMARK 924 INTRA-LIGAND FREE ENERGY PREDICTED BY IDOCK:   -0.05 KCAL/MOL
REMARK 927      BINDING AFFINITY PREDICTED BY RF-SCORE:    0.00 PKD
ROOT
HETATM    1  C   UNL     1      -9.532  17.915  66.622  1.00  0.00    -0.303 C  
HETATM    2  C   UNL     1     -10.350  17.309  67.761  1.00  0.00    -0.356 C  
ENDROOT
BRANCH   2   3
HETATM    3  N   UNL     1     -10.030  15.904  68.064  1.00  0.00    -0.219 NA 
BRANCH   3   4
HETATM    4  C   UNL     1     -11.046  15.223  68.884  1.00  0.00    -0.266 C  
HETATM    5  C   UNL     1     -10.644  14.862  70.309  1.00  0.00    -0.024 C  
ENDBRANCH   3   4
BRANCH   3   6
HETATM    6  C   UNL     1      -9.700  15.201  66.811  1.00  0.00    -0.242 C  
BRANCH   6   7
HETATM    7  C   UNL     1      -9.509  13.708  67.022  1.00  0.00    -0.252 C  
HETATM    8  C   UNL     1      -9.346  12.427  67.202  1.00  0.00    -0.199 C  
BRANCH   8   9
HETATM    9  C   UNL     1      -9.177  10.990  67.432  1.00  0.00    -0.151 C  
BRANCH   9  10
HETATM   10  O   UNL     1      -8.233  10.438  66.503  1.00  0.00    -0.124 OA 
BRANCH  10  11
HETATM   11  C   UNL     1      -7.105   9.913  67.074  1.00  0.00    -0.089 C  
HETATM   12  O   UNL     1      -5.993  10.429  67.015  1.00  0.00    -0.049 OA 
HETATM   13  C   UNL     1      -7.438   8.542  67.765  1.00  0.00    -0.097 C  
HETATM   14  C   UNL     1      -7.102   8.656  69.267  1.00  0.00    -0.062 A  
HETATM   15  C   UNL     1      -6.620   7.404  67.055  1.00  0.00    -0.061 C  
HETATM   16  O   UNL     1      -8.840   8.257  67.646  1.00  0.00    -0.135 OA 
HETATM   17  H   UNL     1      -9.042   7.428  68.064  1.00  0.00     0.000 HD 
HETATM   18  C   UNL     1      -8.078   8.442  70.259  1.00  0.00    -0.104 A  
HETATM   19  C   UNL     1      -6.818   5.995  67.659  1.00  0.00    -0.060 C  
HETATM   20  C   UNL     1      -7.777   8.581  71.617  1.00  0.00    -0.150 A  
HETATM   21  C   UNL     1      -8.131   5.316  67.270  1.00  0.00    -0.101 C  
HETATM   22  C   UNL     1      -8.348   5.291  65.762  1.00  0.00    -0.123 C  
HETATM   23  C   UNL     1      -6.493   8.940  72.016  1.00  0.00    -0.030 A  
HETATM   24  C   UNL     1      -5.506   9.147  71.056  1.00  0.00    -0.040 A  
HETATM   25  C   UNL     1      -8.156   6.653  65.109  1.00  0.00    -0.133 C  
HETATM   26  C   UNL     1      -6.844   7.314  65.526  1.00  0.00    -0.052 C  
HETATM   27  C   UNL     1      -5.806   8.999  69.699  1.00  0.00    -0.033 A  
ENDBRANCH  10  11
ENDBRANCH   9  10
ENDBRANCH   8   9
ENDBRANCH   6   7
ENDBRANCH   3   6
ENDBRANCH   2   3
TORSDOF 7
ENDMDL
MODEL      280
REMARK 921   NORMALIZED FREE ENERGY PREDICTED BY IDOCK:   -1.58 KCAL/MOL
REMARK 922        TOTAL FREE ENERGY PREDICTED BY IDOCK:   -3.47 KCAL/MOL
REMARK 923 INTER-LIGAND FREE ENERGY PREDICTED BY IDOCK:   -4.06 KCAL/MOL
REMARK 924 INTRA-LIGAND FREE ENERGY PREDICTED BY IDOCK:    0.59 KCAL/MOL
REMARK 927      BINDING AFFINITY PREDICTED BY RF-SCORE:    0.00 PKD
ROOT
HETATM    1  C   UNL     1     -12.251  14.731  69.537  1.00  0.00    -0.280 C  
HETATM    2  C   UNL     1     -13.156  14.191  70.642  1.00  0.00    -0.151 C  
ENDROOT
BRANCH   2   3
HETATM    3  N   UNL     1     -12.465  13.892  71.909  1.00  0.00    -0.220 NA 
BRANCH   3   4
HETATM    4  C   UNL     1     -12.134  15.086  72.705  1.00  0.00    -0.333 C  
HETATM    5  C   UNL     1     -12.397  15.002  74.204  1.00  0.00    -0.620 C  
ENDBRANCH   3   4
BRANCH   3   6
HETATM    6  C   UNL     1     -13.227  12.870  72.648  1.00  0.00     0.012 C  
BRANCH   6   7
HETATM    7  C   UNL     1     -13.306  11.553  71.894  1.00  0.00    -0.408 C  
HETATM    8  C   UNL     1     -13.374  10.424  71.246  1.00  0.00    -0.334 C  
BRANCH   8   9
HETATM    9  C   UNL     1     -13.463   9.169  70.497  1.00  0.00     0.672 C  
BRANCH   9  10
HETATM   10  O   UNL     1     -12.253   8.410  70.634  1.00  0.00    -0.089 OA 
BRANCH  10  11
HETATM   11  C   UNL     1     -11.160   9.138  71.023  1.00  0.00    -0.305 C  
HETATM   12  O   UNL     1     -11.026   9.651  72.129  1.00  0.00     0.210 OA 
HETATM   13  C   UNL     1     -10.139   9.255  69.834  1.00  0.00    -0.209 C  
HETATM   14  C   UNL     1      -8.800   8.627  70.274  1.00  0.00    -0.158 A  
HETATM   15  C   UNL     1      -9.989  10.770  69.443  1.00  0.00    -0.137 C  
HETATM   16  O   UNL     1     -10.619   8.522  68.697  1.00  0.00    -0.317 OA 
HETATM   17  H   UNL     1     -10.002   8.592  67.978  1.00  0.00     0.000 HD 
HETATM   18  C   UNL     1      -8.221   7.556  69.569  1.00  0.00    -0.130 A  
HETATM   19  C   UNL     1      -8.978  11.043  68.305  1.00  0.00    -0.155 C  
HETATM   20  C   UNL     1      -7.026   6.967  69.993  1.00  0.00    -0.062 A  
HETATM   21  C   UNL     1      -9.494  10.716  66.904  1.00  0.00    -0.189 C  
HETATM   22  C   UNL     1     -10.833  11.381  66.607  1.00  0.00    -0.339 C  
HETATM   23  C   UNL     1      -6.382   7.435  71.133  1.00  0.00    -0.036 A  
HETATM   24  C   UNL     1      -6.927   8.501  71.844  1.00  0.00    -0.101 A  
HETATM   25  C   UNL     1     -11.868  11.153  67.701  1.00  0.00    -0.025 C  
HETATM   26  C   UNL     1     -11.321  11.475  69.090  1.00  0.00    -0.351 C  
HETATM   27  C   UNL     1      -8.118   9.094  71.414  1.00  0.00    -0.003 A  
ENDBRANCH  10  11
ENDBRANCH   9  10
ENDBRANCH   8   9
ENDBRANCH   6   7
ENDBRANCH   3   6
ENDBRANCH   2   3
TORSDOF 7
ENDMDL
MODEL      281
REMARK 921   NORMALIZED FREE ENERGY PREDICTED BY IDOCK:   -1.43 KCAL/MOL
REMARK 922        TOTAL FREE ENERGY PREDICTED BY IDOCK:   -3.26 KCAL/MOL
REMARK 923 INTER-LIGAND FREE ENERGY PREDICTED BY IDOCK:   -3.67 KCAL/MOL
REMARK 924 INTRA-LIGAND FREE ENERGY PREDICTED BY IDOCK:    0.41 KCAL/MOL
REMARK 927      BINDING AFFINITY PREDICTED BY RF-SCORE:    0.00 PKD
ROOT
HETATM    1  C   UNL     1     -13.525  10.729  72.094  1.00  0.00    -0.227 C  
HETATM    2  C   UNL     1     -13.426  10.525  70.584  1.00  0.00     0.238 C  
ENDROOT
BRANCH   2   3
HETATM    3  N   UNL     1     -12.236   9.777  70.143  1.00  0.00     0.015 NA 
BRANCH   3   4
HETATM    4  C   UNL     1     -11.280  10.581  69.364  1.00  0.00    -0.269 C  
HETATM    5  C   UNL     1     -11.843  11.795  68.634  1.00  0.00    -0.369 C  
ENDBRANCH   3   4
BRANCH   3   6
HETATM    6  C   UNL     1     -11.638   9.090  71.302  1.00  0.00    -0.317 C  
BRANCH   6   7
HETATM    7  C   UNL     1     -10.121   9.051  71.229  1.00  0.00    -0.384 C  
HETATM    8  C   UNL     1      -8.819   9.018  71.167  1.00  0.00    -0.282 C  
BRANCH   8   9
HETATM    9  C   UNL     1      -7.355   9.006  71.110  1.00  0.00    -0.096 C  
BRANCH   9  10
HETATM   10  O   UNL     1      -6.889   9.690  69.938  1.00  0.00    -0.056 OA 
BRANCH  10  11
HETATM   11  C   UNL     1      -6.410   8.873  68.949  1.00  0.00    -0.044 C  
HETATM   12  O   UNL     1      -5.226   8.597  68.792  1.00  0.00    -0.032 OA 
HETATM   13  C   UNL     1      -7.590   8.390  68.031  1.00  0.00    -0.098 C  
HETATM   14  C   UNL     1      -7.652   6.849  68.083  1.00  0.00    -0.108 A  
HETATM   15  C   UNL     1      -7.350   8.929  66.574  1.00  0.00    -0.085 C  
HETATM   16  O   UNL     1      -8.839   8.900  68.521  1.00  0.00    -0.133 OA 
HETATM   17  H   UNL     1      -9.552   8.608  67.966  1.00  0.00     0.000 HD 
HETATM   18  C   UNL     1      -8.811   6.172  68.507  1.00  0.00    -0.113 A  
HETATM   19  C   UNL     1      -8.419   8.496  65.544  1.00  0.00    -0.183 C  
HETATM   20  C   UNL     1      -8.850   4.777  68.587  1.00  0.00    -0.121 A  
HETATM   21  C   UNL     1      -9.735   9.267  65.631  1.00  0.00    -0.302 C  
HETATM   22  C   UNL     1      -9.529  10.777  65.590  1.00  0.00    -0.250 C  
HETATM   23  C   UNL     1      -7.731   4.025  68.245  1.00  0.00    -0.066 A  
HETATM   24  C   UNL     1      -6.574   4.668  67.812  1.00  0.00    -0.046 A  
HETATM   25  C   UNL     1      -8.477  11.261  66.580  1.00  0.00    -0.171 C  
HETATM   26  C   UNL     1      -7.178  10.465  66.480  1.00  0.00    -0.118 C  
HETATM   27  C   UNL     1      -6.539   6.063  67.725  1.00  0.00    -0.056 A  
ENDBRANCH  10  11
ENDBRANCH   9  10
ENDBRANCH   8   9
ENDBRANCH   6   7
ENDBRANCH   3   6
ENDBRANCH   2   3
TORSDOF 7
ENDMDL
MODEL      282
REMARK 921   NORMALIZED FREE ENERGY PREDICTED BY IDOCK:   -0.92 KCAL/MOL
REMARK 922        TOTAL FREE ENERGY PREDICTED BY IDOCK:   -2.54 KCAL/MOL
REMARK 923 INTER-LIGAND FREE ENERGY PREDICTED BY IDOCK:   -2.55 KCAL/MOL
REMARK 924 INTRA-LIGAND FREE ENERGY PREDICTED BY IDOCK:    0.01 KCAL/MOL
REMARK 927      BINDING AFFINITY PREDICTED BY RF-SCORE:    0.00 PKD
ROOT
HETATM    1  C   UNL     1     -11.944  13.160  64.397  1.00  0.00    -0.454 C  
HETATM    2  C   UNL     1     -11.243  12.151  65.304  1.00  0.00    -0.332 C  
ENDROOT
BRANCH   2   3
HETATM    3  N   UNL     1      -9.772  12.190  65.243  1.00  0.00    -0.194 NA 
BRANCH   3   4
HETATM    4  C   UNL     1      -9.117  12.088  66.557  1.00  0.00    -0.202 C  
HETATM    5  C   UNL     1      -7.595  12.178  66.571  1.00  0.00     0.268 C  
ENDBRANCH   3   4
BRANCH   3   6
HETATM    6  C   UNL     1      -9.300  11.201  64.258  1.00  0.00    -0.161 C  
BRANCH   6   7
HETATM    7  C   UNL     1      -9.110   9.824  64.872  1.00  0.00    -0.278 C  
HETATM    8  C   UNL     1      -8.948   8.642  65.398  1.00  0.00    -0.181 C  
BRANCH   8   9
HETATM    9  C   UNL     1      -8.793   7.315  65.998  1.00  0.00    -0.136 C  
BRANCH   9  10
HETATM   10  O   UNL     1      -7.434   7.100  66.407  1.00  0.00    -0.083 OA 
BRANCH  10  11
HETATM   11  C   UNL     1      -7.250   7.001  67.760  1.00  0.00    -0.091 C  
HETATM   12  O   UNL     1      -6.821   7.905  68.470  1.00  0.00    -0.063 OA 
HETATM   13  C   UNL     1      -7.624   5.556  68.251  1.00  0.00    -0.081 C  
HETATM   14  C   UNL     1      -8.765   5.668  69.284  1.00  0.00    -0.108 A  
HETATM   15  C   UNL     1      -6.339   4.878  68.851  1.00  0.00    -0.032 C  
HETATM   16  O   UNL     1      -8.100   4.768  67.150  1.00  0.00    -0.102 OA 
HETATM   17  H   UNL     1      -8.326   3.894  67.446  1.00  0.00     0.000 HD 
HETATM   18  C   UNL     1      -9.999   5.019  69.093  1.00  0.00    -0.267 A  
HETATM   19  C   UNL     1      -6.566   3.455  69.414  1.00  0.00    -0.034 C  
HETATM   20  C   UNL     1     -11.042   5.153  70.013  1.00  0.00     0.709 A  
HETATM   21  C   UNL     1      -6.668   2.361  68.353  1.00  0.00    -0.032 C  
HETATM   22  C   UNL     1      -5.490   2.376  67.386  1.00  0.00    -0.017 C  
HETATM   23  C   UNL     1     -10.876   5.941  71.148  1.00  0.00    -0.334 A  
HETATM   24  C   UNL     1      -9.662   6.586  71.368  1.00  0.00    -0.184 A  
HETATM   25  C   UNL     1      -5.213   3.757  66.805  1.00  0.00    -0.012 C  
HETATM   26  C   UNL     1      -5.130   4.832  67.886  1.00  0.00    -0.007 C  
HETATM   27  C   UNL     1      -8.617   6.444  70.450  1.00  0.00    -0.142 A  
ENDBRANCH  10  11
ENDBRANCH   9  10
ENDBRANCH   8   9
ENDBRANCH   6   7
ENDBRANCH   3   6
ENDBRANCH   2   3
TORSDOF 7
ENDMDL
MODEL      283
REMARK 921   NORMALIZED FREE ENERGY PREDICTED BY IDOCK:   -0.82 KCAL/MOL
REMARK 922        TOTAL FREE ENERGY PREDICTED BY IDOCK:   -2.40 KCAL/MOL
REMARK 923 INTER-LIGAND FREE ENERGY PREDICTED BY IDOCK:   -2.55 KCAL/MOL
REMARK 924 INTRA-LIGAND FREE ENERGY PREDICTED BY IDOCK:    0.15 KCAL/MOL
REMARK 927      BINDING AFFINITY PREDICTED BY RF-SCORE:    0.00 PKD
ROOT
HETATM    1  C   UNL     1     -14.146   8.964  73.151  1.00  0.00     0.447 C  
HETATM    2  C   UNL     1     -13.142   9.043  72.004  1.00  0.00    -0.414 C  
ENDROOT
BRANCH   2   3
HETATM    3  N   UNL     1     -13.130  10.331  71.288  1.00  0.00    -0.391 NA 
BRANCH   3   4
HETATM    4  C   UNL     1     -12.900  11.496  72.159  1.00  0.00     0.039 C  
HETATM    5  C   UNL     1     -13.072  12.870  71.522  1.00  0.00    -0.390 C  
ENDBRANCH   3   4
BRANCH   3   6
HETATM    6  C   UNL     1     -12.203  10.244  70.146  1.00  0.00    -0.176 C  
BRANCH   6   7
HETATM    7  C   UNL     1     -11.607   8.854  69.994  1.00  0.00     0.111 C  
HETATM    8  C   UNL     1     -11.096   7.662  69.863  1.00  0.00    -0.160 C  
BRANCH   8   9
HETATM    9  C   UNL     1     -10.540   6.313  69.737  1.00  0.00    -0.264 C  
BRANCH   9  10
HETATM   10  O   UNL     1      -9.355   6.178  70.535  1.00  0.00    -0.159 OA 
BRANCH  10  11
HETATM   11  C   UNL     1      -8.293   5.600  69.893  1.00  0.00    -0.117 C  
HETATM   12  O   UNL     1      -7.969   4.422  70.010  1.00  0.00    -0.059 OA 
HETATM   13  C   UNL     1      -7.534   6.673  69.033  1.00  0.00    -0.095 C  
HETATM   14  C   UNL     1      -7.561   6.227  67.556  1.00  0.00    -0.097 A  
HETATM   15  C   UNL     1      -6.070   6.821  69.585  1.00  0.00    -0.033 C  
HETATM   16  O   UNL     1      -8.201   7.941  69.124  1.00  0.00    -0.127 OA 
HETATM   17  H   UNL     1      -7.742   8.590  68.605  1.00  0.00     0.000 HD 
HETATM   18  C   UNL     1      -8.125   7.037  66.552  1.00  0.00    -0.111 A  
HETATM   19  C   UNL     1      -5.186   7.822  68.805  1.00  0.00    -0.026 C  
HETATM   20  C   UNL     1      -8.180   6.612  65.221  1.00  0.00    -0.133 A  
HETATM   21  C   UNL     1      -5.468   9.292  69.112  1.00  0.00    -0.036 C  
HETATM   22  C   UNL     1      -5.432   9.592  70.607  1.00  0.00    -0.045 C  
HETATM   23  C   UNL     1      -7.674   5.367  64.862  1.00  0.00    -0.088 A  
HETATM   24  C   UNL     1      -7.101   4.551  65.834  1.00  0.00    -0.071 A  
HETATM   25  C   UNL     1      -6.279   8.629  71.428  1.00  0.00    -0.053 C  
HETATM   26  C   UNL     1      -5.986   7.169  71.091  1.00  0.00    -0.036 C  
HETATM   27  C   UNL     1      -7.039   4.980  67.163  1.00  0.00    -0.069 A  
ENDBRANCH  10  11
ENDBRANCH   9  10
ENDBRANCH   8   9
ENDBRANCH   6   7
ENDBRANCH   3   6
ENDBRANCH   2   3
TORSDOF 7
ENDMDL
MODEL      284
REMARK 921   NORMALIZED FREE ENERGY PREDICTED BY IDOCK:   -0.72 KCAL/MOL
REMARK 922        TOTAL FREE ENERGY PREDICTED BY IDOCK:   -2.26 KCAL/MOL
REMARK 923 INTER-LIGAND FREE ENERGY PREDICTED BY IDOCK:   -3.43 KCAL/MOL
REMARK 924 INTRA-LIGAND FREE ENERGY PREDICTED BY IDOCK:    1.17 KCAL/MOL
REMARK 927      BINDING AFFINITY PREDICTED BY RF-SCORE:    0.00 PKD
ROOT
HETATM    1  C   UNL     1     -10.155  19.051  65.950  1.00  0.00    -0.287 C  
HETATM    2  C   UNL     1     -10.923  18.691  67.220  1.00  0.00    -0.159 C  
ENDROOT
BRANCH   2   3
HETATM    3  N   UNL     1     -10.231  17.737  68.104  1.00  0.00    -0.361 NA 
BRANCH   3   4
HETATM    4  C   UNL     1     -11.033  16.550  68.445  1.00  0.00    -0.348 C  
HETATM    5  C   UNL     1     -10.870  15.998  69.856  1.00  0.00    -0.351 C  
ENDBRANCH   3   4
BRANCH   3   6
HETATM    6  C   UNL     1      -8.907  17.425  67.539  1.00  0.00    -0.224 C  
BRANCH   6   7
HETATM    7  C   UNL     1      -8.601  15.937  67.576  1.00  0.00    -0.181 C  
HETATM    8  C   UNL     1      -8.340  14.660  67.607  1.00  0.00    -0.186 C  
BRANCH   8   9
HETATM    9  C   UNL     1      -8.073  13.220  67.654  1.00  0.00    -0.174 C  
BRANCH   9  10
HETATM   10  O   UNL     1      -6.815  12.919  67.034  1.00  0.00    -0.051 OA 
BRANCH  10  11
HETATM   11  C   UNL     1      -6.340  11.658  67.279  1.00  0.00    -0.118 C  
HETATM   12  O   UNL     1      -5.200  11.407  67.655  1.00  0.00    -0.041 OA 
HETATM   13  C   UNL     1      -7.452  10.593  66.964  1.00  0.00    -0.106 C  
HETATM   14  C   UNL     1      -7.750   9.799  68.253  1.00  0.00    -0.085 A  
HETATM   15  C   UNL     1      -6.951   9.669  65.796  1.00  0.00    -0.098 C  
HETATM   16  O   UNL     1      -8.663  11.248  66.559  1.00  0.00    -0.167 OA 
HETATM   17  H   UNL     1      -9.335  10.605  66.368  1.00  0.00     0.000 HD 
HETATM   18  C   UNL     1      -9.041   9.756  68.812  1.00  0.00    -0.136 A  
HETATM   19  C   UNL     1      -7.932   8.541  65.402  1.00  0.00    -0.113 C  
HETATM   20  C   UNL     1      -9.298   9.065  69.999  1.00  0.00    -0.198 A  
HETATM   21  C   UNL     1      -9.119   8.997  64.554  1.00  0.00     0.023 C  
HETATM   22  C   UNL     1      -8.686   9.788  63.325  1.00  0.00    -0.232 C  
HETATM   23  C   UNL     1      -8.269   8.400  70.658  1.00  0.00    -0.117 A  
HETATM   24  C   UNL     1      -6.984   8.417  70.122  1.00  0.00    -0.042 A  
HETATM   25  C   UNL     1      -7.709  10.910  63.652  1.00  0.00     0.395 C  
HETATM   26  C   UNL     1      -6.542  10.429  64.510  1.00  0.00    -0.023 C  
HETATM   27  C   UNL     1      -6.730   9.102  68.930  1.00  0.00    -0.052 A  
ENDBRANCH  10  11
ENDBRANCH   9  10
ENDBRANCH   8   9
ENDBRANCH   6   7
ENDBRANCH   3   6
ENDBRANCH   2   3
TORSDOF 7
ENDMDL
MODEL      285
REMARK 921   NORMALIZED FREE ENERGY PREDICTED BY IDOCK:   -0.53 KCAL/MOL
REMARK 922        TOTAL FREE ENERGY PREDICTED BY IDOCK:   -2.00 KCAL/MOL
REMARK 923 INTER-LIGAND FREE ENERGY PREDICTED BY IDOCK:   -1.61 KCAL/MOL
REMARK 924 INTRA-LIGAND FREE ENERGY PREDICTED BY IDOCK:   -0.38 KCAL/MOL
REMARK 927      BINDING AFFINITY PREDICTED BY RF-SCORE:    0.00 PKD
ROOT
HETATM    1  C   UNL     1     -12.440   9.899  72.129  1.00  0.00    -0.239 C  
HETATM    2  C   UNL     1     -11.889  10.403  70.797  1.00  0.00    -0.368 C  
ENDROOT
BRANCH   2   3
HETATM    3  N   UNL     1     -12.831  11.221  70.014  1.00  0.00     0.010 NA 
BRANCH   3   4
HETATM    4  C   UNL     1     -13.112  12.540  70.606  1.00  0.00     0.370 C  
HETATM    5  C   UNL     1     -12.315  12.914  71.850  1.00  0.00     0.357 C  
ENDBRANCH   3   4
BRANCH   3   6
HETATM    6  C   UNL     1     -12.378  11.276  68.613  1.00  0.00     0.277 C  
BRANCH   6   7
HETATM    7  C   UNL     1     -10.868  11.404  68.501  1.00  0.00    -0.251 C  
HETATM    8  C   UNL     1      -9.573  11.514  68.405  1.00  0.00    -0.195 C  
BRANCH   8   9
HETATM    9  C   UNL     1      -8.119  11.667  68.304  1.00  0.00    -0.150 C  
BRANCH   9  10
HETATM   10  O   UNL     1      -7.543  10.562  67.592  1.00  0.00    -0.092 OA 
BRANCH  10  11
HETATM   11  C   UNL     1      -6.924   9.631  68.382  1.00  0.00    -0.065 C  
HETATM   12  O   UNL     1      -6.174   9.900  69.315  1.00  0.00    -0.040 OA 
HETATM   13  C   UNL     1      -7.278   8.182  67.887  1.00  0.00    -0.091 C  
HETATM   14  C   UNL     1      -7.978   7.428  69.037  1.00  0.00    -0.122 A  
HETATM   15  C   UNL     1      -5.957   7.469  67.422  1.00  0.00    -0.046 C  
HETATM   16  O   UNL     1      -8.191   8.248  66.781  1.00  0.00    -0.101 OA 
HETATM   17  H   UNL     1      -8.405   7.373  66.481  1.00  0.00     0.000 HD 
HETATM   18  C   UNL     1      -9.273   6.895  68.889  1.00  0.00    -0.132 A  
HETATM   19  C   UNL     1      -6.148   6.011  66.942  1.00  0.00    -0.025 C  
HETATM   20  C   UNL     1      -9.917   6.244  69.945  1.00  0.00    -0.206 A  
HETATM   21  C   UNL     1      -6.735   5.876  65.538  1.00  0.00    -0.048 C  
HETATM   22  C   UNL     1      -5.963   6.687  64.504  1.00  0.00    -0.035 C  
HETATM   23  C   UNL     1      -9.282   6.112  71.176  1.00  0.00    -0.161 A  
HETATM   24  C   UNL     1      -7.997   6.621  71.347  1.00  0.00    -0.107 A  
HETATM   25  C   UNL     1      -5.736   8.132  64.928  1.00  0.00    -0.044 C  
HETATM   26  C   UNL     1      -5.162   8.238  66.339  1.00  0.00    -0.028 C  
HETATM   27  C   UNL     1      -7.352   7.264  70.287  1.00  0.00    -0.082 A  
ENDBRANCH  10  11
ENDBRANCH   9  10
ENDBRANCH   8   9
ENDBRANCH   6   7
ENDBRANCH   3   6
ENDBRANCH   2   3
TORSDOF 7
ENDMDL
MODEL      286
REMARK 921   NORMALIZED FREE ENERGY PREDICTED BY IDOCK:   -0.40 KCAL/MOL
REMARK 922        TOTAL FREE ENERGY PREDICTED BY IDOCK:   -1.81 KCAL/MOL
REMARK 923 INTER-LIGAND FREE ENERGY PREDICTED BY IDOCK:   -1.07 KCAL/MOL
REMARK 924 INTRA-LIGAND FREE ENERGY PREDICTED BY IDOCK:   -0.74 KCAL/MOL
REMARK 927      BINDING AFFINITY PREDICTED BY RF-SCORE:    0.00 PKD
ROOT
HETATM    1  C   UNL     1      -5.982  16.024  72.617  1.00  0.00     2.114 C  
HETATM    2  C   UNL     1      -5.186  16.111  71.317  1.00  0.00    -0.040 C  
ENDROOT
BRANCH   2   3
HETATM    3  N   UNL     1      -5.699  15.262  70.227  1.00  0.00    -0.140 NA 
BRANCH   3   4
HETATM    4  C   UNL     1      -6.175  13.942  70.673  1.00  0.00    -0.065 C  
HETATM    5  C   UNL     1      -5.346  12.736  70.244  1.00  0.00    -0.124 C  
ENDBRANCH   3   4
BRANCH   3   6
HETATM    6  C   UNL     1      -6.687  16.023  69.444  1.00  0.00    -0.200 C  
BRANCH   6   7
HETATM    7  C   UNL     1      -7.468  15.138  68.486  1.00  0.00    -0.121 C  
HETATM    8  C   UNL     1      -8.137  14.380  67.664  1.00  0.00    -0.188 C  
BRANCH   8   9
HETATM    9  C   UNL     1      -8.895  13.551  66.723  1.00  0.00    -0.131 C  
BRANCH   9  10
HETATM   10  O   UNL     1      -9.394  12.374  67.375  1.00  0.00    -0.173 OA 
BRANCH  10  11
HETATM   11  C   UNL     1      -9.384  11.243  66.604  1.00  0.00    -0.180 C  
HETATM   12  O   UNL     1     -10.295  10.905  65.855  1.00  0.00    -0.251 OA 
HETATM   13  C   UNL     1      -8.065  10.428  66.860  1.00  0.00    -0.118 C  
HETATM   14  C   UNL     1      -7.299  10.303  65.526  1.00  0.00    -0.149 A  
HETATM   15  C   UNL     1      -8.443   9.028  67.464  1.00  0.00    -0.116 C  
HETATM   16  O   UNL     1      -7.224  11.129  67.788  1.00  0.00    -0.086 OA 
HETATM   17  H   UNL     1      -6.426  10.637  67.943  1.00  0.00     0.000 HD 
HETATM   18  C   UNL     1      -5.985  10.786  65.382  1.00  0.00    -0.058 A  
HETATM   19  C   UNL     1      -7.239   8.095  67.732  1.00  0.00    -0.091 C  
HETATM   20  C   UNL     1      -5.309  10.703  64.161  1.00  0.00    -0.127 A  
HETATM   21  C   UNL     1      -6.436   8.438  68.987  1.00  0.00    -0.048 C  
HETATM   22  C   UNL     1      -7.316   8.553  70.227  1.00  0.00    -0.052 C  
HETATM   23  C   UNL     1      -5.932  10.136  63.054  1.00  0.00    -0.136 A  
HETATM   24  C   UNL     1      -7.228   9.641  63.171  1.00  0.00    -0.112 A  
HETATM   25  C   UNL     1      -8.526   9.453  70.018  1.00  0.00    -0.202 C  
HETATM   26  C   UNL     1      -9.301   9.097  68.751  1.00  0.00    -0.139 C  
HETATM   27  C   UNL     1      -7.900   9.718  64.394  1.00  0.00    -0.137 A  
ENDBRANCH  10  11
ENDBRANCH   9  10
ENDBRANCH   8   9
ENDBRANCH   6   7
ENDBRANCH   3   6
ENDBRANCH   2   3
TORSDOF 7
ENDMDL
MODEL      287
REMARK 921   NORMALIZED FREE ENERGY PREDICTED BY IDOCK:   -0.33 KCAL/MOL
REMARK 922        TOTAL FREE ENERGY PREDICTED BY IDOCK:   -1.71 KCAL/MOL
REMARK 923 INTER-LIGAND FREE ENERGY PREDICTED BY IDOCK:   -3.42 KCAL/MOL
REMARK 924 INTRA-LIGAND FREE ENERGY PREDICTED BY IDOCK:    1.71 KCAL/MOL
REMARK 927      BINDING AFFINITY PREDICTED BY RF-SCORE:    0.00 PKD
ROOT
HETATM    1  C   UNL     1      -9.265  18.469  69.547  1.00  0.00     0.477 C  
HETATM    2  C   UNL     1      -7.965  18.093  68.840  1.00  0.00    -0.174 C  
ENDROOT
BRANCH   2   3
HETATM    3  N   UNL     1      -8.075  17.981  67.375  1.00  0.00    -0.221 NA 
BRANCH   3   4
HETATM    4  C   UNL     1      -8.140  19.278  66.681  1.00  0.00    -0.289 C  
HETATM    5  C   UNL     1      -6.887  19.715  65.930  1.00  0.00    -0.286 C  
ENDBRANCH   3   4
BRANCH   3   6
HETATM    6  C   UNL     1      -7.017  17.085  66.876  1.00  0.00    -0.216 C  
BRANCH   6   7
HETATM    7  C   UNL     1      -7.319  15.623  67.158  1.00  0.00    -0.247 C  
HETATM    8  C   UNL     1      -7.578  14.369  67.402  1.00  0.00    -0.196 C  
BRANCH   8   9
HETATM    9  C   UNL     1      -7.840  12.954  67.674  1.00  0.00    -0.168 C  
BRANCH   9  10
HETATM   10  O   UNL     1      -7.011  12.119  66.852  1.00  0.00    -0.104 OA 
BRANCH  10  11
HETATM   11  C   UNL     1      -7.688  11.176  66.126  1.00  0.00    -0.053 C  
HETATM   12  O   UNL     1      -7.484  10.936  64.940  1.00  0.00     0.142 OA 
HETATM   13  C   UNL     1      -8.783  10.490  67.020  1.00  0.00    -0.130 C  
HETATM   14  C   UNL     1      -8.486   8.977  67.087  1.00  0.00    -0.113 A  
HETATM   15  C   UNL     1     -10.199  10.794  66.408  1.00  0.00    -0.294 C  
HETATM   16  O   UNL     1      -8.727  11.011  68.356  1.00  0.00    -0.137 OA 
HETATM   17  H   UNL     1      -9.390  10.597  68.897  1.00  0.00     0.000 HD 
HETATM   18  C   UNL     1      -8.266   8.322  68.313  1.00  0.00    -0.128 A  
HETATM   19  C   UNL     1     -11.380  10.145  67.166  1.00  0.00     0.302 C  
HETATM   20  C   UNL     1      -7.962   6.960  68.366  1.00  0.00    -0.122 A  
HETATM   21  C   UNL     1     -11.770  10.854  68.462  1.00  0.00    -0.307 C  
HETATM   22  C   UNL     1     -12.014  12.345  68.259  1.00  0.00    -0.270 C  
HETATM   23  C   UNL     1      -7.868   6.218  67.193  1.00  0.00    -0.105 A  
HETATM   24  C   UNL     1      -8.091   6.838  65.966  1.00  0.00    -0.119 A  
HETATM   25  C   UNL     1     -10.884  13.037  67.507  1.00  0.00    -0.264 C  
HETATM   26  C   UNL     1     -10.506  12.300  66.225  1.00  0.00    -0.266 C  
HETATM   27  C   UNL     1      -8.403   8.200  65.916  1.00  0.00    -0.134 A  
ENDBRANCH  10  11
ENDBRANCH   9  10
ENDBRANCH   8   9
ENDBRANCH   6   7
ENDBRANCH   3   6
ENDBRANCH   2   3
TORSDOF 7
ENDMDL
MODEL      288
REMARK 921   NORMALIZED FREE ENERGY PREDICTED BY IDOCK:   -0.31 KCAL/MOL
REMARK 922        TOTAL FREE ENERGY PREDICTED BY IDOCK:   -1.68 KCAL/MOL
REMARK 923 INTER-LIGAND FREE ENERGY PREDICTED BY IDOCK:   -4.00 KCAL/MOL
REMARK 924 INTRA-LIGAND FREE ENERGY PREDICTED BY IDOCK:    2.32 KCAL/MOL
REMARK 927      BINDING AFFINITY PREDICTED BY RF-SCORE:    0.00 PKD
ROOT
HETATM    1  C   UNL     1      -8.936  11.348  67.241  1.00  0.00    -0.159 C  
HETATM    2  C   UNL     1      -8.356  11.424  65.830  1.00  0.00     0.040 C  
ENDROOT
BRANCH   2   3
HETATM    3  N   UNL     1      -8.907  10.435  64.888  1.00  0.00    -0.181 NA 
BRANCH   3   4
HETATM    4  C   UNL     1      -8.262   9.114  64.964  1.00  0.00    -0.149 C  
HETATM    5  C   UNL     1      -8.365   8.230  63.727  1.00  0.00    -0.027 C  
ENDBRANCH   3   4
BRANCH   3   6
HETATM    6  C   UNL     1     -10.373  10.395  65.028  1.00  0.00    -0.179 C  
BRANCH   6   7
HETATM    7  C   UNL     1     -10.971  11.779  65.218  1.00  0.00    -0.350 C  
HETATM    8  C   UNL     1     -11.484  12.967  65.382  1.00  0.00    -0.360 C  
BRANCH   8   9
HETATM    9  C   UNL     1     -12.071  14.292  65.591  1.00  0.00    -0.393 C  
BRANCH   9  10
HETATM   10  O   UNL     1     -11.210  15.104  66.403  1.00  0.00    -0.339 OA 
BRANCH  10  11
HETATM   11  C   UNL     1     -11.503  15.092  67.741  1.00  0.00    -0.318 C  
HETATM   12  O   UNL     1     -12.527  15.557  68.230  1.00  0.00     0.296 OA 
HETATM   13  C   UNL     1     -10.321  14.443  68.547  1.00  0.00    -0.248 C  
HETATM   14  C   UNL     1     -10.859  13.207  69.298  1.00  0.00    -0.055 A  
HETATM   15  C   UNL     1      -9.721  15.520  69.521  1.00  0.00    -0.282 C  
HETATM   16  O   UNL     1      -9.294  14.000  67.646  1.00  0.00    -0.192 OA 
HETATM   17  H   UNL     1      -8.579  13.608  68.133  1.00  0.00     0.000 HD 
HETATM   18  C   UNL     1     -10.319  11.924  69.090  1.00  0.00     0.028 A  
HETATM   19  C   UNL     1      -8.566  15.009  70.414  1.00  0.00     1.135 C  
HETATM   20  C   UNL     1     -10.834  10.803  69.746  1.00  0.00    -0.284 A  
HETATM   21  C   UNL     1      -7.221  14.880  69.701  1.00  0.00    -0.166 C  
HETATM   22  C   UNL     1      -6.818  16.163  68.982  1.00  0.00    -0.176 C  
HETATM   23  C   UNL     1     -11.903  10.937  70.625  1.00  0.00    -0.453 A  
HETATM   24  C   UNL     1     -12.451  12.196  70.858  1.00  0.00    -0.374 A  
HETATM   25  C   UNL     1      -7.923  16.720  68.094  1.00  0.00    -0.181 C  
HETATM   26  C   UNL     1      -9.258  16.824  68.827  1.00  0.00    -0.260 C  
HETATM   27  C   UNL     1     -11.929  13.318  70.207  1.00  0.00    -0.372 A  
ENDBRANCH  10  11
ENDBRANCH   9  10
ENDBRANCH   8   9
ENDBRANCH   6   7
ENDBRANCH   3   6
ENDBRANCH   2   3
TORSDOF 7
ENDMDL
MODEL      289
REMARK 921   NORMALIZED FREE ENERGY PREDICTED BY IDOCK:   -0.23 KCAL/MOL
REMARK 922        TOTAL FREE ENERGY PREDICTED BY IDOCK:   -1.56 KCAL/MOL
REMARK 923 INTER-LIGAND FREE ENERGY PREDICTED BY IDOCK:   -3.23 KCAL/MOL
REMARK 924 INTRA-LIGAND FREE ENERGY PREDICTED BY IDOCK:    1.67 KCAL/MOL
REMARK 927      BINDING AFFINITY PREDICTED BY RF-SCORE:    0.00 PKD
ROOT
HETATM    1  C   UNL     1     -10.085  18.544  66.999  1.00  0.00    -0.385 C  
HETATM    2  C   UNL     1      -9.195  18.382  68.229  1.00  0.00    -0.316 C  
ENDROOT
BRANCH   2   3
HETATM    3  N   UNL     1      -9.118  17.006  68.752  1.00  0.00    -0.267 NA 
BRANCH   3   4
HETATM    4  C   UNL     1     -10.261  16.624  69.598  1.00  0.00    -0.124 C  
HETATM    5  C   UNL     1     -11.567  16.307  68.879  1.00  0.00    -0.230 C  
ENDBRANCH   3   4
BRANCH   3   6
HETATM    6  C   UNL     1      -8.859  16.078  67.638  1.00  0.00    -0.185 C  
BRANCH   6   7
HETATM    7  C   UNL     1      -8.821  14.628  68.093  1.00  0.00    -0.173 C  
HETATM    8  C   UNL     1      -8.788  13.385  68.485  1.00  0.00    -0.068 C  
BRANCH   8   9
HETATM    9  C   UNL     1      -8.724  11.992  68.934  1.00  0.00     0.213 C  
BRANCH   9  10
HETATM   10  O   UNL     1      -9.988  11.340  68.743  1.00  0.00    -0.205 OA 
BRANCH  10  11
HETATM   11  C   UNL     1     -10.070  10.080  69.272  1.00  0.00    -0.213 C  
HETATM   12  O   UNL     1     -10.867   9.743  70.141  1.00  0.00    -0.247 OA 
HETATM   13  C   UNL     1      -8.967   9.157  68.639  1.00  0.00    -0.136 C  
HETATM   14  C   UNL     1      -9.664   7.973  67.936  1.00  0.00    -0.189 A  
HETATM   15  C   UNL     1      -7.988   8.685  69.774  1.00  0.00    -0.095 C  
HETATM   16  O   UNL     1      -8.224   9.883  67.648  1.00  0.00    -0.113 OA 
HETATM   17  H   UNL     1      -7.557   9.325  67.266  1.00  0.00     0.000 HD 
HETATM   18  C   UNL     1      -9.482   7.719  66.563  1.00  0.00    -0.262 A  
HETATM   19  C   UNL     1      -6.867   7.731  69.301  1.00  0.00    -0.048 C  
HETATM   20  C   UNL     1     -10.143   6.667  65.924  1.00  0.00     0.583 A  
HETATM   21  C   UNL     1      -5.714   8.417  68.570  1.00  0.00    -0.037 C  
HETATM   22  C   UNL     1      -5.132   9.581  69.364  1.00  0.00    -0.036 C  
HETATM   23  C   UNL     1     -11.005   5.843  66.641  1.00  0.00    -0.228 A  
HETATM   24  C   UNL     1     -11.196   6.065  68.003  1.00  0.00    -0.036 A  
HETATM   25  C   UNL     1      -6.194  10.552  69.865  1.00  0.00    -0.090 C  
HETATM   26  C   UNL     1      -7.339   9.838  70.579  1.00  0.00    -0.126 C  
HETATM   27  C   UNL     1     -10.526   7.112  68.643  1.00  0.00    -0.218 A  
ENDBRANCH  10  11
ENDBRANCH   9  10
ENDBRANCH   8   9
ENDBRANCH   6   7
ENDBRANCH   3   6
ENDBRANCH   2   3
TORSDOF 7
ENDMDL
MODEL      290
REMARK 921   NORMALIZED FREE ENERGY PREDICTED BY IDOCK:   -0.13 KCAL/MOL
REMARK 922        TOTAL FREE ENERGY PREDICTED BY IDOCK:   -1.43 KCAL/MOL
REMARK 923 INTER-LIGAND FREE ENERGY PREDICTED BY IDOCK:   -1.79 KCAL/MOL
REMARK 924 INTRA-LIGAND FREE ENERGY PREDICTED BY IDOCK:    0.36 KCAL/MOL
REMARK 927      BINDING AFFINITY PREDICTED BY RF-SCORE:    0.00 PKD
ROOT
HETATM    1  C   UNL     1     -12.230   7.974  73.007  1.00  0.00     0.295 C  
HETATM    2  C   UNL     1     -11.667   7.831  71.595  1.00  0.00    -0.280 C  
ENDROOT
BRANCH   2   3
HETATM    3  N   UNL     1     -12.047   8.915  70.672  1.00  0.00    -0.101 NA 
BRANCH   3   4
HETATM    4  C   UNL     1     -11.575  10.246  71.087  1.00  0.00    -0.300 C  
HETATM    5  C   UNL     1     -12.628  11.344  71.189  1.00  0.00    -0.490 C  
ENDBRANCH   3   4
BRANCH   3   6
HETATM    6  C   UNL     1     -11.660   8.542  69.300  1.00  0.00     0.835 C  
BRANCH   6   7
HETATM    7  C   UNL     1     -11.048   7.152  69.232  1.00  0.00    -0.112 C  
HETATM    8  C   UNL     1     -10.524   5.960  69.174  1.00  0.00    -0.338 C  
BRANCH   8   9
HETATM    9  C   UNL     1      -9.943   4.616  69.137  1.00  0.00    -0.138 C  
BRANCH   9  10
HETATM   10  O   UNL     1      -8.542   4.662  69.446  1.00  0.00    -0.081 OA 
BRANCH  10  11
HETATM   11  C   UNL     1      -7.750   3.896  68.633  1.00  0.00    -0.060 C  
HETATM   12  O   UNL     1      -7.231   2.836  68.969  1.00  0.00    -0.044 OA 
HETATM   13  C   UNL     1      -7.568   4.598  67.239  1.00  0.00    -0.086 C  
HETATM   14  C   UNL     1      -8.114   3.659  66.143  1.00  0.00    -0.093 A  
HETATM   15  C   UNL     1      -6.047   4.934  67.035  1.00  0.00    -0.031 C  
HETATM   16  O   UNL     1      -8.328   5.816  67.197  1.00  0.00    -0.105 OA 
HETATM   17  H   UNL     1      -8.219   6.240  66.354  1.00  0.00     0.000 HD 
HETATM   18  C   UNL     1      -9.147   4.061  65.275  1.00  0.00    -0.139 A  
HETATM   19  C   UNL     1      -5.710   5.597  65.679  1.00  0.00    -0.014 C  
HETATM   20  C   UNL     1      -9.662   3.194  64.307  1.00  0.00    -0.156 A  
HETATM   21  C   UNL     1      -6.066   7.080  65.591  1.00  0.00    -0.036 C  
HETATM   22  C   UNL     1      -5.483   7.888  66.745  1.00  0.00    -0.032 C  
HETATM   23  C   UNL     1      -9.158   1.904  64.184  1.00  0.00    -0.110 A  
HETATM   24  C   UNL     1      -8.129   1.483  65.023  1.00  0.00    -0.074 A  
HETATM   25  C   UNL     1      -5.776   7.276  68.109  1.00  0.00    -0.023 C  
HETATM   26  C   UNL     1      -5.424   5.791  68.164  1.00  0.00    -0.008 C  
HETATM   27  C   UNL     1      -7.609   2.355  65.984  1.00  0.00    -0.068 A  
ENDBRANCH  10  11
ENDBRANCH   9  10
ENDBRANCH   8   9
ENDBRANCH   6   7
ENDBRANCH   3   6
ENDBRANCH   2   3
TORSDOF 7
ENDMDL
MODEL      291
REMARK 921   NORMALIZED FREE ENERGY PREDICTED BY IDOCK:   -0.04 KCAL/MOL
REMARK 922        TOTAL FREE ENERGY PREDICTED BY IDOCK:   -1.30 KCAL/MOL
REMARK 923 INTER-LIGAND FREE ENERGY PREDICTED BY IDOCK:   -2.93 KCAL/MOL
REMARK 924 INTRA-LIGAND FREE ENERGY PREDICTED BY IDOCK:    1.63 KCAL/MOL
REMARK 927      BINDING AFFINITY PREDICTED BY RF-SCORE:    0.00 PKD
ROOT
HETATM    1  C   UNL     1     -10.079  18.525  66.990  1.00  0.00    -0.385 C  
HETATM    2  C   UNL     1      -9.143  18.192  68.149  1.00  0.00    -0.290 C  
ENDROOT
BRANCH   2   3
HETATM    3  N   UNL     1      -9.032  16.755  68.453  1.00  0.00    -0.225 NA 
BRANCH   3   4
HETATM    4  C   UNL     1     -10.130  16.234  69.285  1.00  0.00    -0.267 C  
HETATM    5  C   UNL     1     -11.467  16.010  68.588  1.00  0.00    -0.377 C  
ENDBRANCH   3   4
BRANCH   3   6
HETATM    6  C   UNL     1      -8.821  16.009  67.200  1.00  0.00    -0.204 C  
BRANCH   6   7
HETATM    7  C   UNL     1      -8.735  14.509  67.431  1.00  0.00    -0.210 C  
HETATM    8  C   UNL     1      -8.660  13.223  67.629  1.00  0.00    -0.196 C  
BRANCH   8   9
HETATM    9  C   UNL     1      -8.547  11.781  67.860  1.00  0.00    -0.156 C  
BRANCH   9  10
HETATM   10  O   UNL     1      -7.198  11.426  68.195  1.00  0.00    -0.075 OA 
BRANCH  10  11
HETATM   11  C   UNL     1      -6.946  10.080  68.213  1.00  0.00    -0.068 C  
HETATM   12  O   UNL     1      -6.129   9.518  67.491  1.00  0.00    -0.052 OA 
HETATM   13  C   UNL     1      -7.885   9.370  69.253  1.00  0.00    -0.085 C  
HETATM   14  C   UNL     1      -7.006   8.673  70.313  1.00  0.00    -0.041 A  
HETATM   15  C   UNL     1      -8.813   8.357  68.488  1.00  0.00    -0.136 C  
HETATM   16  O   UNL     1      -8.703  10.340  69.924  1.00  0.00    -0.365 OA 
HETATM   17  H   UNL     1      -9.271   9.911  70.553  1.00  0.00     0.000 HD 
HETATM   18  C   UNL     1      -7.115   8.985  71.681  1.00  0.00    -0.005 A  
HETATM   19  C   UNL     1      -9.771   7.550  69.395  1.00  0.00    -0.164 C  
HETATM   20  C   UNL     1      -6.291   8.378  72.633  1.00  0.00    -0.087 A  
HETATM   21  C   UNL     1     -10.993   8.328  69.881  1.00  0.00    -0.166 C  
HETATM   22  C   UNL     1     -11.758   8.983  68.736  1.00  0.00     1.211 C  
HETATM   23  C   UNL     1      -5.337   7.446  72.240  1.00  0.00    -0.037 A  
HETATM   24  C   UNL     1      -5.214   7.111  70.894  1.00  0.00    -0.023 A  
HETATM   25  C   UNL     1     -10.862   9.785  67.802  1.00  0.00    -0.306 C  
HETATM   26  C   UNL     1      -9.643   8.988  67.344  1.00  0.00    -0.195 C  
HETATM   27  C   UNL     1      -6.045   7.713  69.944  1.00  0.00    -0.027 A  
ENDBRANCH  10  11
ENDBRANCH   9  10
ENDBRANCH   8   9
ENDBRANCH   6   7
ENDBRANCH   3   6
ENDBRANCH   2   3
TORSDOF 7
ENDMDL
MODEL      292
REMARK 921   NORMALIZED FREE ENERGY PREDICTED BY IDOCK:    0.23 KCAL/MOL
REMARK 922        TOTAL FREE ENERGY PREDICTED BY IDOCK:   -0.92 KCAL/MOL
REMARK 923 INTER-LIGAND FREE ENERGY PREDICTED BY IDOCK:   -3.92 KCAL/MOL
REMARK 924 INTRA-LIGAND FREE ENERGY PREDICTED BY IDOCK:    3.00 KCAL/MOL
REMARK 927      BINDING AFFINITY PREDICTED BY RF-SCORE:    0.00 PKD
ROOT
HETATM    1  C   UNL     1     -10.604  13.840  69.161  1.00  0.00    -0.099 C  
HETATM    2  C   UNL     1     -11.553  14.351  68.080  1.00  0.00    -0.327 C  
ENDROOT
BRANCH   2   3
HETATM    3  N   UNL     1     -10.916  14.608  66.776  1.00  0.00    -0.316 NA 
BRANCH   3   4
HETATM    4  C   UNL     1      -9.474  14.890  66.862  1.00  0.00    -0.237 C  
HETATM    5  C   UNL     1      -8.537  13.850  66.257  1.00  0.00     0.511 C  
ENDBRANCH   3   4
BRANCH   3   6
HETATM    6  C   UNL     1     -11.260  13.518  65.845  1.00  0.00    -0.300 C  
BRANCH   6   7
HETATM    7  C   UNL     1     -10.855  12.155  66.380  1.00  0.00    -0.306 C  
HETATM    8  C   UNL     1     -10.509  10.984  66.838  1.00  0.00    -0.293 C  
BRANCH   8   9
HETATM    9  C   UNL     1     -10.139   9.672  67.374  1.00  0.00    -0.204 C  
BRANCH   9  10
HETATM   10  O   UNL     1     -11.080   9.250  68.372  1.00  0.00    -0.049 OA 
BRANCH  10  11
HETATM   11  C   UNL     1     -10.602   8.320  69.255  1.00  0.00    -0.181 C  
HETATM   12  O   UNL     1     -11.186   7.967  70.274  1.00  0.00    -0.258 OA 
HETATM   13  C   UNL     1      -9.187   7.817  68.795  1.00  0.00    -0.139 C  
HETATM   14  C   UNL     1      -9.260   6.293  68.563  1.00  0.00    -0.123 A  
HETATM   15  C   UNL     1      -8.130   8.204  69.892  1.00  0.00    -0.115 C  
HETATM   16  O   UNL     1      -8.822   8.437  67.552  1.00  0.00    -0.134 OA 
HETATM   17  H   UNL     1      -7.967   8.133  67.274  1.00  0.00     0.000 HD 
HETATM   18  C   UNL     1      -8.947   5.722  67.314  1.00  0.00    -0.112 A  
HETATM   19  C   UNL     1      -6.688   7.734  69.591  1.00  0.00    -0.039 C  
HETATM   20  C   UNL     1      -9.050   4.345  67.099  1.00  0.00    -0.143 A  
HETATM   21  C   UNL     1      -5.947   8.579  68.556  1.00  0.00    -0.045 C  
HETATM   22  C   UNL     1      -5.970  10.065  68.895  1.00  0.00    -0.034 C  
HETATM   23  C   UNL     1      -9.469   3.505  68.126  1.00  0.00    -0.215 A  
HETATM   24  C   UNL     1      -9.774   4.042  69.374  1.00  0.00    -0.205 A  
HETATM   25  C   UNL     1      -7.367  10.583  69.211  1.00  0.00    -0.113 C  
HETATM   26  C   UNL     1      -8.088   9.712  70.236  1.00  0.00    -0.206 C  
HETATM   27  C   UNL     1      -9.663   5.419  69.590  1.00  0.00    -0.240 A  
ENDBRANCH  10  11
ENDBRANCH   9  10
ENDBRANCH   8   9
ENDBRANCH   6   7
ENDBRANCH   3   6
ENDBRANCH   2   3
TORSDOF 7
ENDMDL
MODEL      293
REMARK 921   NORMALIZED FREE ENERGY PREDICTED BY IDOCK:    0.53 KCAL/MOL
REMARK 922        TOTAL FREE ENERGY PREDICTED BY IDOCK:   -0.50 KCAL/MOL
REMARK 923 INTER-LIGAND FREE ENERGY PREDICTED BY IDOCK:   -2.49 KCAL/MOL
REMARK 924 INTRA-LIGAND FREE ENERGY PREDICTED BY IDOCK:    2.00 KCAL/MOL
REMARK 927      BINDING AFFINITY PREDICTED BY RF-SCORE:    0.00 PKD
ROOT
HETATM    1  C   UNL     1     -10.207   5.012  66.878  1.00  0.00    -0.270 C  
HETATM    2  C   UNL     1     -11.080   4.798  65.644  1.00  0.00     0.214 C  
ENDROOT
BRANCH   2   3
HETATM    3  N   UNL     1     -10.420   4.072  64.545  1.00  0.00    -0.236 NA 
BRANCH   3   4
HETATM    4  C   UNL     1      -9.306   4.811  63.926  1.00  0.00     0.084 C  
HETATM    5  C   UNL     1      -7.996   4.052  63.752  1.00  0.00    -0.088 C  
ENDBRANCH   3   4
BRANCH   3   6
HETATM    6  C   UNL     1     -10.060   2.719  65.004  1.00  0.00     0.379 C  
BRANCH   6   7
HETATM    7  C   UNL     1      -9.395   2.732  66.370  1.00  0.00    -0.028 C  
HETATM    8  C   UNL     1      -8.825   2.742  67.543  1.00  0.00    -0.164 C  
BRANCH   8   9
HETATM    9  C   UNL     1      -8.211   2.760  68.872  1.00  0.00    -0.055 C  
BRANCH   9  10
HETATM   10  O   UNL     1      -8.300   4.070  69.452  1.00  0.00    -0.061 OA 
BRANCH  10  11
HETATM   11  C   UNL     1      -7.713   4.193  70.683  1.00  0.00    -0.048 C  
HETATM   12  O   UNL     1      -6.508   4.098  70.890  1.00  0.00    -0.025 OA 
HETATM   13  C   UNL     1      -8.811   4.425  71.783  1.00  0.00    -0.119 C  
HETATM   14  C   UNL     1      -8.536   5.778  72.473  1.00  0.00    -0.117 A  
HETATM   15  C   UNL     1      -8.777   3.222  72.794  1.00  0.00    -0.092 C  
HETATM   16  O   UNL     1     -10.110   4.493  71.178  1.00  0.00    -0.190 OA 
HETATM   17  H   UNL     1     -10.774   4.633  71.842  1.00  0.00     0.000 HD 
HETATM   18  C   UNL     1      -9.496   6.808  72.485  1.00  0.00    -0.151 A  
HETATM   19  C   UNL     1      -9.784   3.334  73.962  1.00  0.00    -0.140 C  
HETATM   20  C   UNL     1      -9.229   8.044  73.079  1.00  0.00    -0.337 A  
HETATM   21  C   UNL     1     -11.228   3.002  73.590  1.00  0.00    -0.298 C  
HETATM   22  C   UNL     1     -11.355   1.650  72.897  1.00  0.00    -0.131 C  
HETATM   23  C   UNL     1      -7.994   8.281  73.676  1.00  0.00    -0.233 A  
HETATM   24  C   UNL     1      -7.030   7.276  73.688  1.00  0.00    -0.080 A  
HETATM   25  C   UNL     1     -10.378   1.479  71.741  1.00  0.00    -0.110 C  
HETATM   26  C   UNL     1      -8.946   1.830  72.137  1.00  0.00    -0.104 C  
HETATM   27  C   UNL     1      -7.302   6.037  73.100  1.00  0.00    -0.093 A  
ENDBRANCH  10  11
ENDBRANCH   9  10
ENDBRANCH   8   9
ENDBRANCH   6   7
ENDBRANCH   3   6
ENDBRANCH   2   3
TORSDOF 7
ENDMDL
MODEL      294
REMARK 921   NORMALIZED FREE ENERGY PREDICTED BY IDOCK:    0.70 KCAL/MOL
REMARK 922        TOTAL FREE ENERGY PREDICTED BY IDOCK:   -0.25 KCAL/MOL
REMARK 923 INTER-LIGAND FREE ENERGY PREDICTED BY IDOCK:   -3.71 KCAL/MOL
REMARK 924 INTRA-LIGAND FREE ENERGY PREDICTED BY IDOCK:    3.45 KCAL/MOL
REMARK 927      BINDING AFFINITY PREDICTED BY RF-SCORE:    0.00 PKD
ROOT
HETATM    1  C   UNL     1     -10.588  13.811  69.178  1.00  0.00    -0.099 C  
HETATM    2  C   UNL     1     -11.576  14.195  68.078  1.00  0.00    -0.334 C  
ENDROOT
BRANCH   2   3
HETATM    3  N   UNL     1     -10.956  14.480  66.772  1.00  0.00    -0.309 NA 
BRANCH   3   4
HETATM    4  C   UNL     1      -9.579  14.991  66.863  1.00  0.00    -0.239 C  
HETATM    5  C   UNL     1      -8.476  14.083  66.331  1.00  0.00     0.464 C  
ENDBRANCH   3   4
BRANCH   3   6
HETATM    6  C   UNL     1     -11.103  13.301  65.899  1.00  0.00    -0.285 C  
BRANCH   6   7
HETATM    7  C   UNL     1     -10.416  12.072  66.471  1.00  0.00    -0.253 C  
HETATM    8  C   UNL     1      -9.829  11.017  66.962  1.00  0.00    -0.211 C  
BRANCH   8   9
HETATM    9  C   UNL     1      -9.188   9.831  67.535  1.00  0.00    -0.130 C  
BRANCH   9  10
HETATM   10  O   UNL     1      -8.495  10.165  68.746  1.00  0.00    -0.117 OA 
BRANCH  10  11
HETATM   11  C   UNL     1      -8.028   9.092  69.455  1.00  0.00    -0.099 C  
HETATM   12  O   UNL     1      -7.291   9.174  70.433  1.00  0.00    -0.073 OA 
HETATM   13  C   UNL     1      -8.533   7.754  68.805  1.00  0.00    -0.129 C  
HETATM   14  C   UNL     1      -9.368   6.985  69.850  1.00  0.00    -0.150 A  
HETATM   15  C   UNL     1      -7.290   6.930  68.310  1.00  0.00    -0.097 C  
HETATM   16  O   UNL     1      -9.383   8.040  67.683  1.00  0.00    -0.141 OA 
HETATM   17  H   UNL     1      -9.689   7.232  67.290  1.00  0.00     0.000 HD 
HETATM   18  C   UNL     1     -10.710   6.634  69.609  1.00  0.00    -0.306 A  
HETATM   19  C   UNL     1      -7.635   5.561  67.679  1.00  0.00    -0.088 C  
HETATM   20  C   UNL     1     -11.473   5.970  70.573  1.00  0.00    -0.227 A  
HETATM   21  C   UNL     1      -8.173   5.637  66.251  1.00  0.00    -0.108 C  
HETATM   22  C   UNL     1      -7.265   6.442  65.328  1.00  0.00    -0.070 C  
HETATM   23  C   UNL     1     -10.912   5.641  71.803  1.00  0.00    -0.290 A  
HETATM   24  C   UNL     1      -9.584   5.966  72.065  1.00  0.00    -0.167 A  
HETATM   25  C   UNL     1      -6.883   7.799  65.904  1.00  0.00    -0.057 C  
HETATM   26  C   UNL     1      -6.362   7.695  67.335  1.00  0.00    -0.054 C  
HETATM   27  C   UNL     1      -8.820   6.623  71.096  1.00  0.00    -0.137 A  
ENDBRANCH  10  11
ENDBRANCH   9  10
ENDBRANCH   8   9
ENDBRANCH   6   7
ENDBRANCH   3   6
ENDBRANCH   2   3
TORSDOF 7
ENDMDL
MODEL      295
REMARK 921   NORMALIZED FREE ENERGY PREDICTED BY IDOCK:    1.06 KCAL/MOL
REMARK 922        TOTAL FREE ENERGY PREDICTED BY IDOCK:    0.26 KCAL/MOL
REMARK 923 INTER-LIGAND FREE ENERGY PREDICTED BY IDOCK:    0.46 KCAL/MOL
REMARK 924 INTRA-LIGAND FREE ENERGY PREDICTED BY IDOCK:   -0.20 KCAL/MOL
REMARK 927      BINDING AFFINITY PREDICTED BY RF-SCORE:    0.00 PKD
ROOT
HETATM    1  C   UNL     1      -9.273  11.387  63.059  1.00  0.00    -0.281 C  
HETATM    2  C   UNL     1     -10.264  12.222  63.867  1.00  0.00    -0.395 C  
ENDROOT
BRANCH   2   3
HETATM    3  N   UNL     1     -10.095  12.128  65.328  1.00  0.00    -0.264 NA 
BRANCH   3   4
HETATM    4  C   UNL     1     -11.311  12.453  66.091  1.00  0.00    -0.352 C  
HETATM    5  C   UNL     1     -11.140  13.385  67.285  1.00  0.00    -0.300 C  
ENDBRANCH   3   4
BRANCH   3   6
HETATM    6  C   UNL     1      -9.507  10.820  65.665  1.00  0.00    -0.209 C  
BRANCH   6   7
HETATM    7  C   UNL     1     -10.046  10.265  66.973  1.00  0.00    -0.268 C  
HETATM    8  C   UNL     1     -10.508   9.789  68.095  1.00  0.00    -0.258 C  
BRANCH   8   9
HETATM    9  C   UNL     1     -11.030   9.228  69.343  1.00  0.00    -0.120 C  
BRANCH   9  10
HETATM   10  O   UNL     1     -10.306   8.044  69.707  1.00  0.00    -0.209 OA 
BRANCH  10  11
HETATM   11  C   UNL     1     -10.893   6.869  69.318  1.00  0.00    -0.237 C  
HETATM   12  O   UNL     1     -11.716   6.772  68.414  1.00  0.00     0.254 OA 
HETATM   13  C   UNL     1     -10.392   5.689  70.227  1.00  0.00    -0.266 C  
HETATM   14  C   UNL     1      -9.702   4.639  69.331  1.00  0.00    -0.272 A  
HETATM   15  C   UNL     1     -11.620   5.095  71.007  1.00  0.00     1.290 C  
HETATM   16  O   UNL     1      -9.424   6.170  71.172  1.00  0.00    -0.165 OA 
HETATM   17  H   UNL     1      -9.121   5.456  71.721  1.00  0.00     0.000 HD 
HETATM   18  C   UNL     1      -8.362   4.260  69.537  1.00  0.00    -0.076 A  
HETATM   19  C   UNL     1     -11.284   3.892  71.917  1.00  0.00     1.212 C  
HETATM   20  C   UNL     1      -7.731   3.335  68.701  1.00  0.00    -0.055 A  
HETATM   21  C   UNL     1     -10.605   4.262  73.235  1.00  0.00    -0.279 C  
HETATM   22  C   UNL     1     -11.378   5.324  74.009  1.00  0.00     0.703 C  
HETATM   23  C   UNL     1      -8.425   2.767  67.637  1.00  0.00    -0.103 A  
HETATM   24  C   UNL     1      -9.754   3.116  67.416  1.00  0.00     0.085 A  
HETATM   25  C   UNL     1     -11.747   6.532  73.158  1.00  0.00     0.403 C  
HETATM   26  C   UNL     1     -12.410   6.132  71.842  1.00  0.00    -0.074 C  
HETATM   27  C   UNL     1     -10.387   4.035  68.259  1.00  0.00     0.692 A  
ENDBRANCH  10  11
ENDBRANCH   9  10
ENDBRANCH   8   9
ENDBRANCH   6   7
ENDBRANCH   3   6
ENDBRANCH   2   3
TORSDOF 7
ENDMDL
MODEL      296
REMARK 921   NORMALIZED FREE ENERGY PREDICTED BY IDOCK:    1.42 KCAL/MOL
REMARK 922        TOTAL FREE ENERGY PREDICTED BY IDOCK:    0.76 KCAL/MOL
REMARK 923 INTER-LIGAND FREE ENERGY PREDICTED BY IDOCK:    1.69 KCAL/MOL
REMARK 924 INTRA-LIGAND FREE ENERGY PREDICTED BY IDOCK:   -0.94 KCAL/MOL
REMARK 927      BINDING AFFINITY PREDICTED BY RF-SCORE:    0.00 PKD
ROOT
HETATM    1  C   UNL     1      -9.543  13.859  68.802  1.00  0.00    -0.073 C  
HETATM    2  C   UNL     1      -9.546  14.237  67.323  1.00  0.00    -0.232 C  
ENDROOT
BRANCH   2   3
HETATM    3  N   UNL     1      -9.703  13.099  66.400  1.00  0.00    -0.267 NA 
BRANCH   3   4
HETATM    4  C   UNL     1      -9.980  11.819  67.072  1.00  0.00    -0.204 C  
HETATM    5  C   UNL     1      -9.742  10.553  66.257  1.00  0.00    -0.254 C  
ENDBRANCH   3   4
BRANCH   3   6
HETATM    6  C   UNL     1     -10.680  13.452  65.355  1.00  0.00    -0.300 C  
BRANCH   6   7
HETATM    7  C   UNL     1     -10.886  14.954  65.243  1.00  0.00    -0.398 C  
HETATM    8  C   UNL     1     -11.064  16.242  65.147  1.00  0.00    -0.219 C  
BRANCH   8   9
HETATM    9  C   UNL     1     -11.284  17.684  65.018  1.00  0.00     0.934 C  
BRANCH   9  10
HETATM   10  O   UNL     1     -10.036  18.375  64.869  1.00  0.00     1.169 OA 
BRANCH  10  11
HETATM   11  C   UNL     1      -9.553  18.944  66.017  1.00  0.00    -0.116 C  
HETATM   12  O   UNL     1     -10.254  19.440  66.893  1.00  0.00    -0.350 OA 
HETATM   13  C   UNL     1      -7.982  18.908  66.018  1.00  0.00    -0.162 C  
HETATM   14  C   UNL     1      -7.511  18.101  67.245  1.00  0.00    -0.223 A  
HETATM   15  C   UNL     1      -7.442  20.384  66.030  1.00  0.00    -0.175 C  
HETATM   16  O   UNL     1      -7.503  18.243  64.840  1.00  0.00     0.663 OA 
HETATM   17  H   UNL     1      -6.553  18.221  64.840  1.00  0.00     0.000 HD 
HETATM   18  C   UNL     1      -6.706  16.954  67.109  1.00  0.00    -0.221 A  
HETATM   19  C   UNL     1      -5.901  20.505  66.073  1.00  0.00    -0.229 C  
HETATM   20  C   UNL     1      -6.312  16.205  68.221  1.00  0.00    -0.124 A  
HETATM   21  C   UNL     1      -5.206  20.245  64.737  1.00  0.00    -0.197 C  
HETATM   22  C   UNL     1      -5.782  21.090  63.607  1.00  0.00    -0.309 C  
HETATM   23  C   UNL     1      -6.713  16.585  69.497  1.00  0.00    -0.198 A  
HETATM   24  C   UNL     1      -7.501  17.721  69.663  1.00  0.00     0.514 A  
HETATM   25  C   UNL     1      -7.301  21.018  63.523  1.00  0.00     0.928 C  
HETATM   26  C   UNL     1      -7.968  21.268  64.873  1.00  0.00     2.078 C  
HETATM   27  C   UNL     1      -7.887  18.474  68.550  1.00  0.00    -0.341 A  
ENDBRANCH  10  11
ENDBRANCH   9  10
ENDBRANCH   8   9
ENDBRANCH   6   7
ENDBRANCH   3   6
ENDBRANCH   2   3
TORSDOF 7
ENDMDL
MODEL      297
REMARK 921   NORMALIZED FREE ENERGY PREDICTED BY IDOCK:    1.94 KCAL/MOL
REMARK 922        TOTAL FREE ENERGY PREDICTED BY IDOCK:    1.49 KCAL/MOL
REMARK 923 INTER-LIGAND FREE ENERGY PREDICTED BY IDOCK:   -2.24 KCAL/MOL
REMARK 924 INTRA-LIGAND FREE ENERGY PREDICTED BY IDOCK:    3.73 KCAL/MOL
REMARK 927      BINDING AFFINITY PREDICTED BY RF-SCORE:    0.00 PKD
ROOT
HETATM    1  C   UNL     1     -10.394   5.174  66.929  1.00  0.00    -0.288 C  
HETATM    2  C   UNL     1     -11.233   5.056  65.659  1.00  0.00     0.388 C  
ENDROOT
BRANCH   2   3
HETATM    3  N   UNL     1     -10.541   4.417  64.526  1.00  0.00    -0.048 NA 
BRANCH   3   4
HETATM    4  C   UNL     1      -9.620   5.313  63.806  1.00  0.00     0.798 C  
HETATM    5  C   UNL     1      -8.208   4.791  63.565  1.00  0.00    -0.107 C  
ENDBRANCH   3   4
BRANCH   3   6
HETATM    6  C   UNL     1      -9.921   3.160  64.982  1.00  0.00     0.095 C  
BRANCH   6   7
HETATM    7  C   UNL     1      -9.625   3.172  66.473  1.00  0.00     0.015 C  
HETATM    8  C   UNL     1      -9.371   3.181  67.751  1.00  0.00    -0.252 C  
BRANCH   8   9
HETATM    9  C   UNL     1      -9.112   3.179  69.193  1.00  0.00    -0.138 C  
BRANCH   9  10
HETATM   10  O   UNL     1     -10.037   4.039  69.875  1.00  0.00    -0.102 OA 
BRANCH  10  11
HETATM   11  C   UNL     1      -9.986   3.969  71.241  1.00  0.00    -0.132 C  
HETATM   12  O   UNL     1     -10.468   3.059  71.907  1.00  0.00     0.027 OA 
HETATM   13  C   UNL     1      -9.267   5.241  71.820  1.00  0.00    -0.138 C  
HETATM   14  C   UNL     1      -8.024   4.784  72.611  1.00  0.00    -0.093 A  
HETATM   15  C   UNL     1     -10.286   6.035  72.714  1.00  0.00    -0.223 C  
HETATM   16  O   UNL     1      -8.823   6.087  70.748  1.00  0.00    -0.136 OA 
HETATM   17  H   UNL     1      -8.389   6.856  71.098  1.00  0.00     0.000 HD 
HETATM   18  C   UNL     1      -6.732   5.231  72.277  1.00  0.00    -0.061 A  
HETATM   19  C   UNL     1      -9.703   7.299  73.387  1.00  0.00    -0.297 C  
HETATM   20  C   UNL     1      -5.605   4.786  72.975  1.00  0.00    -0.009 A  
HETATM   21  C   UNL     1      -9.555   8.503  72.458  1.00  0.00    -0.324 C  
HETATM   22  C   UNL     1     -10.849   8.833  71.722  1.00  0.00    -0.416 C  
HETATM   23  C   UNL     1      -5.743   3.882  74.023  1.00  0.00    -0.004 A  
HETATM   24  C   UNL     1      -7.011   3.431  74.381  1.00  0.00    -0.046 A  
HETATM   25  C   UNL     1     -11.476   7.621  71.046  1.00  0.00    -0.294 C  
HETATM   26  C   UNL     1     -11.598   6.429  71.993  1.00  0.00    -0.368 C  
HETATM   27  C   UNL     1      -8.137   3.883  73.688  1.00  0.00    -0.088 A  
ENDBRANCH  10  11
ENDBRANCH   9  10
ENDBRANCH   8   9
ENDBRANCH   6   7
ENDBRANCH   3   6
ENDBRANCH   2   3
TORSDOF 7
ENDMDL
MODEL      298
REMARK 921   NORMALIZED FREE ENERGY PREDICTED BY IDOCK:    3.77 KCAL/MOL
REMARK 922        TOTAL FREE ENERGY PREDICTED BY IDOCK:    4.07 KCAL/MOL
REMARK 923 INTER-LIGAND FREE ENERGY PREDICTED BY IDOCK:    3.47 KCAL/MOL
REMARK 924 INTRA-LIGAND FREE ENERGY PREDICTED BY IDOCK:    0.60 KCAL/MOL
REMARK 927      BINDING AFFINITY PREDICTED BY RF-SCORE:    0.00 PKD
ROOT
HETATM    1  C   UNL     1     -12.784   9.829  73.707  1.00  0.00     6.754 C  
HETATM    2  C   UNL     1     -12.956   9.691  72.196  1.00  0.00    -0.406 C  
ENDROOT
BRANCH   2   3
HETATM    3  N   UNL     1     -12.002   8.770  71.553  1.00  0.00    -0.305 NA 
BRANCH   3   4
HETATM    4  C   UNL     1     -11.106   9.420  70.583  1.00  0.00    -0.289 C  
HETATM    5  C   UNL     1     -11.770  10.175  69.437  1.00  0.00    -0.096 C  
ENDBRANCH   3   4
BRANCH   3   6
HETATM    6  C   UNL     1     -11.302   7.994  72.591  1.00  0.00    -0.405 C  
BRANCH   6   7
HETATM    7  C   UNL     1      -9.897   7.600  72.166  1.00  0.00    -0.226 C  
HETATM    8  C   UNL     1      -8.691   7.263  71.803  1.00  0.00    -0.123 C  
BRANCH   8   9
HETATM    9  C   UNL     1      -7.326   6.908  71.409  1.00  0.00    -0.081 C  
BRANCH   9  10
HETATM   10  O   UNL     1      -6.975   7.547  70.172  1.00  0.00    -0.056 OA 
BRANCH  10  11
HETATM   11  C   UNL     1      -6.573   6.693  69.179  1.00  0.00    -0.041 C  
HETATM   12  O   UNL     1      -5.427   6.620  68.749  1.00  0.00    -0.015 OA 
HETATM   13  C   UNL     1      -7.800   5.868  68.649  1.00  0.00    -0.102 C  
HETATM   14  C   UNL     1      -7.514   4.367  68.869  1.00  0.00    -0.056 A  
HETATM   15  C   UNL     1      -8.029   6.217  67.134  1.00  0.00    -0.102 C  
HETATM   16  O   UNL     1      -8.981   6.205  69.392  1.00  0.00    -0.127 OA 
HETATM   17  H   UNL     1      -9.723   5.707  69.072  1.00  0.00     0.000 HD 
HETATM   18  C   UNL     1      -8.367   3.559  69.643  1.00  0.00    -0.079 A  
HETATM   19  C   UNL     1      -9.188   5.443  66.463  1.00  0.00    -0.139 C  
HETATM   20  C   UNL     1      -8.084   2.209  69.868  1.00  0.00    -0.057 A  
HETATM   21  C   UNL     1     -10.583   5.962  66.810  1.00  0.00    -0.368 C  
HETATM   22  C   UNL     1     -10.724   7.460  66.567  1.00  0.00     0.234 C  
HETATM   23  C   UNL     1      -6.939   1.635  69.326  1.00  0.00    -0.033 A  
HETATM   24  C   UNL     1      -6.082   2.408  68.547  1.00  0.00    -0.025 A  
HETATM   25  C   UNL     1      -9.601   8.274  67.199  1.00  0.00    -0.234 C  
HETATM   26  C   UNL     1      -8.221   7.726  66.847  1.00  0.00    -0.116 C  
HETATM   27  C   UNL     1      -6.372   3.756  68.316  1.00  0.00    -0.036 A  
ENDBRANCH  10  11
ENDBRANCH   9  10
ENDBRANCH   8   9
ENDBRANCH   6   7
ENDBRANCH   3   6
ENDBRANCH   2   3
TORSDOF 7
ENDMDL
MODEL      299
REMARK 921   NORMALIZED FREE ENERGY PREDICTED BY IDOCK:    5.09 KCAL/MOL
REMARK 922        TOTAL FREE ENERGY PREDICTED BY IDOCK:    5.93 KCAL/MOL
REMARK 923 INTER-LIGAND FREE ENERGY PREDICTED BY IDOCK:   -1.27 KCAL/MOL
REMARK 924 INTRA-LIGAND FREE ENERGY PREDICTED BY IDOCK:    7.20 KCAL/MOL
REMARK 927      BINDING AFFINITY PREDICTED BY RF-SCORE:    0.00 PKD
ROOT
HETATM    1  C   UNL     1     -11.905  13.051  64.215  1.00  0.00    -0.456 C  
HETATM    2  C   UNL     1     -11.495  12.004  65.248  1.00  0.00    -0.302 C  
ENDROOT
BRANCH   2   3
HETATM    3  N   UNL     1     -10.082  11.593  65.176  1.00  0.00    -0.252 NA 
BRANCH   3   4
HETATM    4  C   UNL     1      -9.275  12.023  66.330  1.00  0.00    -0.216 C  
HETATM    5  C   UNL     1      -8.493  10.937  67.060  1.00  0.00    -0.134 C  
ENDBRANCH   3   4
BRANCH   3   6
HETATM    6  C   UNL     1     -10.011  10.147  64.899  1.00  0.00    -0.288 C  
BRANCH   6   7
HETATM    7  C   UNL     1      -9.337   9.378  66.024  1.00  0.00    -0.279 C  
HETATM    8  C   UNL     1      -8.761   8.717  66.989  1.00  0.00    -0.131 C  
BRANCH   8   9
HETATM    9  C   UNL     1      -8.137   7.978  68.089  1.00  0.00    -0.129 C  
BRANCH   9  10
HETATM   10  O   UNL     1      -7.189   8.805  68.780  1.00  0.00    -0.072 OA 
BRANCH  10  11
HETATM   11  C   UNL     1      -7.741   9.706  69.650  1.00  0.00    -0.124 C  
HETATM   12  O   UNL     1      -7.275  10.816  69.888  1.00  0.00    -0.143 OA 
HETATM   13  C   UNL     1      -9.019   9.090  70.327  1.00  0.00    -0.198 C  
HETATM   14  C   UNL     1     -10.231   9.982  69.987  1.00  0.00    -0.306 A  
HETATM   15  C   UNL     1      -8.771   8.984  71.875  1.00  0.00     0.067 C  
HETATM   16  O   UNL     1      -9.273   7.779  69.800  1.00  0.00    -0.150 OA 
HETATM   17  H   UNL     1     -10.045   7.407  70.209  1.00  0.00     0.000 HD 
HETATM   18  C   UNL     1     -11.359   9.470  69.318  1.00  0.00     0.058 A  
HETATM   19  C   UNL     1      -9.967   8.428  72.682  1.00  0.00    -0.329 C  
HETATM   20  C   UNL     1     -12.439  10.290  68.981  1.00  0.00     0.909 A  
HETATM   21  C   UNL     1     -10.147   6.913  72.589  1.00  0.00    -0.195 C  
HETATM   22  C   UNL     1      -8.869   6.154  72.928  1.00  0.00    -0.125 C  
HETATM   23  C   UNL     1     -12.418  11.643  69.303  1.00  0.00     0.110 A  
HETATM   24  C   UNL     1     -11.319  12.174  69.973  1.00  0.00    -0.028 A  
HETATM   25  C   UNL     1      -7.652   6.666  72.169  1.00  0.00    -0.095 C  
HETATM   26  C   UNL     1      -7.505   8.183  72.267  1.00  0.00    -0.139 C  
HETATM   27  C   UNL     1     -10.243  11.351  70.318  1.00  0.00     1.677 A  
ENDBRANCH  10  11
ENDBRANCH   9  10
ENDBRANCH   8   9
ENDBRANCH   6   7
ENDBRANCH   3   6
ENDBRANCH   2   3
TORSDOF 7
ENDMDL
MODEL      300
REMARK 921   NORMALIZED FREE ENERGY PREDICTED BY IDOCK:    5.45 KCAL/MOL
REMARK 922        TOTAL FREE ENERGY PREDICTED BY IDOCK:    6.44 KCAL/MOL
REMARK 923 INTER-LIGAND FREE ENERGY PREDICTED BY IDOCK:    2.63 KCAL/MOL
REMARK 924 INTRA-LIGAND FREE ENERGY PREDICTED BY IDOCK:    3.81 KCAL/MOL
REMARK 927      BINDING AFFINITY PREDICTED BY RF-SCORE:    0.00 PKD
ROOT
HETATM    1  C   UNL     1      -9.069  14.605  68.633  1.00  0.00    -0.189 C  
HETATM    2  C   UNL     1      -9.318  15.192  67.245  1.00  0.00    -0.203 C  
ENDROOT
BRANCH   2   3
HETATM    3  N   UNL     1      -9.761  14.214  66.237  1.00  0.00    -0.295 NA 
BRANCH   3   4
HETATM    4  C   UNL     1     -10.126  12.902  66.797  1.00  0.00    -0.238 C  
HETATM    5  C   UNL     1      -9.200  12.335  67.867  1.00  0.00    -0.190 C  
ENDBRANCH   3   4
BRANCH   3   6
HETATM    6  C   UNL     1     -10.811  14.821  65.400  1.00  0.00    -0.363 C  
BRANCH   6   7
HETATM    7  C   UNL     1     -10.786  16.340  65.456  1.00  0.00    -0.326 C  
HETATM    8  C   UNL     1     -10.766  17.642  65.505  1.00  0.00    -0.037 C  
BRANCH   8   9
HETATM    9  C   UNL     1     -10.764  19.107  65.540  1.00  0.00    -0.071 C  
BRANCH   9  10
HETATM   10  O   UNL     1      -9.421  19.612  65.524  1.00  0.00    -0.242 OA 
BRANCH  10  11
HETATM   11  C   UNL     1      -8.961  20.055  66.735  1.00  0.00    -0.350 C  
HETATM   12  O   UNL     1      -8.905  21.234  67.067  1.00  0.00     0.154 OA 
HETATM   13  C   UNL     1      -8.476  18.839  67.605  1.00  0.00    -0.272 C  
HETATM   14  C   UNL     1      -9.305  18.804  68.906  1.00  0.00    -0.302 A  
HETATM   15  C   UNL     1      -6.937  18.997  67.882  1.00  0.00    -0.250 C  
HETATM   16  O   UNL     1      -8.702  17.608  66.902  1.00  0.00    -0.231 OA 
HETATM   17  H   UNL     1      -8.409  16.873  67.428  1.00  0.00     0.000 HD 
HETATM   18  C   UNL     1     -10.073  17.679  69.261  1.00  0.00    -0.147 A  
HETATM   19  C   UNL     1      -6.325  17.886  68.766  1.00  0.00    -0.217 C  
HETATM   20  C   UNL     1     -10.851  17.666  70.421  1.00  0.00     1.417 A  
HETATM   21  C   UNL     1      -6.075  16.563  68.043  1.00  0.00    -0.132 C  
HETATM   22  C   UNL     1      -5.264  16.743  66.765  1.00  0.00    -0.071 C  
HETATM   23  C   UNL     1     -10.882  18.779  71.255  1.00  0.00     3.399 A  
HETATM   24  C   UNL     1     -10.124  19.902  70.934  1.00  0.00     1.685 A  
HETATM   25  C   UNL     1      -5.816  17.834  65.857  1.00  0.00    -0.215 C  
HETATM   26  C   UNL     1      -6.068  19.139  66.609  1.00  0.00    -0.176 C  
HETATM   27  C   UNL     1      -9.340  19.910  69.776  1.00  0.00     0.492 A  
ENDBRANCH  10  11
ENDBRANCH   9  10
ENDBRANCH   8   9
ENDBRANCH   6   7
ENDBRANCH   3   6
ENDBRANCH   2   3
TORSDOF 7
ENDMDL
MODEL      301
REMARK 921   NORMALIZED FREE ENERGY PREDICTED BY IDOCK:    6.62 KCAL/MOL
REMARK 922        TOTAL FREE ENERGY PREDICTED BY IDOCK:    8.09 KCAL/MOL
REMARK 923 INTER-LIGAND FREE ENERGY PREDICTED BY IDOCK:    6.86 KCAL/MOL
REMARK 924 INTRA-LIGAND FREE ENERGY PREDICTED BY IDOCK:    1.23 KCAL/MOL
REMARK 927      BINDING AFFINITY PREDICTED BY RF-SCORE:    0.00 PKD
ROOT
HETATM    1  C   UNL     1     -10.166  13.748  71.641  1.00  0.00     6.424 C  
HETATM    2  C   UNL     1      -9.100  14.542  70.889  1.00  0.00     3.204 C  
ENDROOT
BRANCH   2   3
HETATM    3  N   UNL     1      -9.359  14.700  69.447  1.00  0.00     0.023 NA 
BRANCH   3   4
HETATM    4  C   UNL     1      -9.168  16.074  68.953  1.00  0.00    -0.233 C  
HETATM    5  C   UNL     1     -10.006  16.490  67.750  1.00  0.00    -0.253 C  
ENDBRANCH   3   4
BRANCH   3   6
HETATM    6  C   UNL     1      -8.595  13.683  68.703  1.00  0.00    -0.031 C  
BRANCH   6   7
HETATM    7  C   UNL     1      -9.285  12.329  68.704  1.00  0.00    -0.005 C  
HETATM    8  C   UNL     1      -9.877  11.168  68.706  1.00  0.00    -0.201 C  
BRANCH   8   9
HETATM    9  C   UNL     1     -10.525   9.854  68.731  1.00  0.00    -0.213 C  
BRANCH   9  10
HETATM   10  O   UNL     1     -10.466   9.237  67.436  1.00  0.00    -0.249 OA 
BRANCH  10  11
HETATM   11  C   UNL     1      -9.820   8.031  67.404  1.00  0.00    -0.186 C  
HETATM   12  O   UNL     1     -10.384   6.942  67.408  1.00  0.00    -0.179 OA 
HETATM   13  C   UNL     1      -8.264   8.252  67.408  1.00  0.00    -0.121 C  
HETATM   14  C   UNL     1      -7.676   7.626  66.126  1.00  0.00    -0.089 A  
HETATM   15  C   UNL     1      -7.666   7.614  68.714  1.00  0.00    -0.118 C  
HETATM   16  O   UNL     1      -7.965   9.656  67.393  1.00  0.00    -0.105 OA 
HETATM   17  H   UNL     1      -7.025   9.790  67.396  1.00  0.00     0.000 HD 
HETATM   18  C   UNL     1      -6.943   8.393  65.201  1.00  0.00    -0.074 A  
HETATM   19  C   UNL     1      -6.128   7.721  68.837  1.00  0.00    -0.035 C  
HETATM   20  C   UNL     1      -6.443   7.830  64.024  1.00  0.00    -0.057 A  
HETATM   21  C   UNL     1      -5.619   9.098  69.257  1.00  0.00    -0.035 C  
HETATM   22  C   UNL     1      -6.297   9.608  70.524  1.00  0.00    -0.088 C  
HETATM   23  C   UNL     1      -6.664   6.486  63.743  1.00  0.00    -0.044 A  
HETATM   24  C   UNL     1      -7.377   5.701  64.646  1.00  0.00    -0.068 A  
HETATM   25  C   UNL     1      -7.816   9.517  70.464  1.00  0.00    -0.182 C  
HETATM   26  C   UNL     1      -8.296   8.135  70.028  1.00  0.00    -0.122 C  
HETATM   27  C   UNL     1      -7.869   6.264  65.827  1.00  0.00    -0.103 A  
ENDBRANCH  10  11
ENDBRANCH   9  10
ENDBRANCH   8   9
ENDBRANCH   6   7
ENDBRANCH   3   6
ENDBRANCH   2   3
TORSDOF 7
ENDMDL
MODEL      302
REMARK 921   NORMALIZED FREE ENERGY PREDICTED BY IDOCK:    8.10 KCAL/MOL
REMARK 922        TOTAL FREE ENERGY PREDICTED BY IDOCK:   10.18 KCAL/MOL
REMARK 923 INTER-LIGAND FREE ENERGY PREDICTED BY IDOCK:    3.14 KCAL/MOL
REMARK 924 INTRA-LIGAND FREE ENERGY PREDICTED BY IDOCK:    7.03 KCAL/MOL
REMARK 927      BINDING AFFINITY PREDICTED BY RF-SCORE:    0.00 PKD
ROOT
HETATM    1  C   UNL     1     -11.973  13.001  64.228  1.00  0.00    -0.466 C  
HETATM    2  C   UNL     1     -11.968  11.814  65.188  1.00  0.00     0.095 C  
ENDROOT
BRANCH   2   3
HETATM    3  N   UNL     1     -10.733  11.010  65.161  1.00  0.00    -0.230 NA 
BRANCH   3   4
HETATM    4  C   UNL     1      -9.955  11.070  66.410  1.00  0.00    -0.222 C  
HETATM    5  C   UNL     1      -9.648   9.740  67.088  1.00  0.00    -0.211 C  
ENDBRANCH   3   4
BRANCH   3   6
HETATM    6  C   UNL     1     -11.055   9.642  64.719  1.00  0.00     4.095 C  
BRANCH   6   7
HETATM    7  C   UNL     1     -10.620   8.593  65.729  1.00  0.00     1.715 C  
HETATM    8  C   UNL     1     -10.249   7.693  66.596  1.00  0.00    -0.272 C  
BRANCH   8   9
HETATM    9  C   UNL     1      -9.853   6.690  67.588  1.00  0.00    -0.126 C  
BRANCH   9  10
HETATM   10  O   UNL     1     -10.196   5.372  67.138  1.00  0.00    -0.182 OA 
BRANCH  10  11
HETATM   11  C   UNL     1      -9.291   4.802  66.284  1.00  0.00    -0.149 C  
HETATM   12  O   UNL     1      -9.571   3.962  65.435  1.00  0.00    -0.165 OA 
HETATM   13  C   UNL     1      -7.848   5.348  66.585  1.00  0.00    -0.101 C  
HETATM   14  C   UNL     1      -7.311   6.041  65.315  1.00  0.00    -0.076 A  
HETATM   15  C   UNL     1      -6.939   4.150  67.041  1.00  0.00    -0.063 C  
HETATM   16  O   UNL     1      -7.899   6.326  67.635  1.00  0.00    -0.103 OA 
HETATM   17  H   UNL     1      -7.027   6.655  67.817  1.00  0.00     0.000 HD 
HETATM   18  C   UNL     1      -6.919   7.393  65.323  1.00  0.00    -0.059 A  
HETATM   19  C   UNL     1      -5.470   4.533  67.336  1.00  0.00    -0.013 C  
HETATM   20  C   UNL     1      -6.467   8.026  64.162  1.00  0.00    -0.062 A  
HETATM   21  C   UNL     1      -5.252   5.231  68.677  1.00  0.00     0.000 C  
HETATM   22  C   UNL     1      -5.849   4.452  69.843  1.00  0.00    -0.017 C  
HETATM   23  C   UNL     1      -6.397   7.322  62.964  1.00  0.00    -0.053 A  
HETATM   24  C   UNL     1      -6.768   5.981  62.929  1.00  0.00    -0.040 A  
HETATM   25  C   UNL     1      -7.296   4.039  69.605  1.00  0.00    -0.049 C  
HETATM   26  C   UNL     1      -7.487   3.356  68.252  1.00  0.00    -0.053 C  
HETATM   27  C   UNL     1      -7.212   5.347  64.094  1.00  0.00    -0.051 A  
ENDBRANCH  10  11
ENDBRANCH   9  10
ENDBRANCH   8   9
ENDBRANCH   6   7
ENDBRANCH   3   6
ENDBRANCH   2   3
TORSDOF 7
ENDMDL
MODEL      303
REMARK 921   NORMALIZED FREE ENERGY PREDICTED BY IDOCK:    9.82 KCAL/MOL
REMARK 922        TOTAL FREE ENERGY PREDICTED BY IDOCK:   12.60 KCAL/MOL
REMARK 923 INTER-LIGAND FREE ENERGY PREDICTED BY IDOCK:   13.25 KCAL/MOL
REMARK 924 INTRA-LIGAND FREE ENERGY PREDICTED BY IDOCK:   -0.64 KCAL/MOL
REMARK 927      BINDING AFFINITY PREDICTED BY RF-SCORE:    0.00 PKD
ROOT
HETATM    1  C   UNL     1      -7.748  20.385  71.854  1.00  0.00     1.951 C  
HETATM    2  C   UNL     1      -6.670  20.573  70.789  1.00  0.00     0.619 C  
ENDROOT
BRANCH   2   3
HETATM    3  N   UNL     1      -6.419  19.385  69.955  1.00  0.00    -0.211 NA 
BRANCH   3   4
HETATM    4  C   UNL     1      -5.216  19.489  69.114  1.00  0.00    -0.185 C  
HETATM    5  C   UNL     1      -5.333  18.970  67.685  1.00  0.00    -0.172 C  
ENDBRANCH   3   4
BRANCH   3   6
HETATM    6  C   UNL     1      -6.456  18.181  70.803  1.00  0.00     1.325 C  
BRANCH   6   7
HETATM    7  C   UNL     1      -6.833  16.935  70.019  1.00  0.00     0.540 C  
HETATM    8  C   UNL     1      -7.157  15.867  69.346  1.00  0.00    -0.215 C  
BRANCH   8   9
HETATM    9  C   UNL     1      -7.545  14.664  68.605  1.00  0.00    -0.129 C  
BRANCH   9  10
HETATM   10  O   UNL     1      -8.239  13.745  69.461  1.00  0.00     0.502 OA 
BRANCH  10  11
HETATM   11  C   UNL     1      -9.379  13.208  68.924  1.00  0.00     0.273 C  
HETATM   12  O   UNL     1      -9.610  13.135  67.721  1.00  0.00    -0.195 OA 
HETATM   13  C   UNL     1     -10.352  12.751  70.069  1.00  0.00     1.877 C  
HETATM   14  C   UNL     1     -10.603  11.236  69.924  1.00  0.00     0.253 A  
HETATM   15  C   UNL     1     -11.678  13.589  69.971  1.00  0.00    -0.311 C  
HETATM   16  O   UNL     1      -9.747  12.979  71.351  1.00  0.00     8.508 OA 
HETATM   17  H   UNL     1     -10.335  12.703  72.044  1.00  0.00     0.000 HD 
HETATM   18  C   UNL     1     -10.298  10.335  70.962  1.00  0.00     0.743 A  
HETATM   19  C   UNL     1     -12.753  13.217  71.019  1.00  0.00    -0.374 C  
HETATM   20  C   UNL     1     -10.494   8.959  70.812  1.00  0.00    -0.283 A  
HETATM   21  C   UNL     1     -12.491  13.766  72.421  1.00  0.00    -0.017 C  
HETATM   22  C   UNL     1     -12.237  15.270  72.419  1.00  0.00    -0.471 C  
HETATM   23  C   UNL     1     -10.998   8.451  69.620  1.00  0.00    -0.094 A  
HETATM   24  C   UNL     1     -11.318   9.320  68.580  1.00  0.00     0.337 A  
HETATM   25  C   UNL     1     -11.192  15.696  71.396  1.00  0.00    -0.392 C  
HETATM   26  C   UNL     1     -11.471  15.122  70.009  1.00  0.00    -0.315 C  
HETATM   27  C   UNL     1     -11.129  10.696  68.735  1.00  0.00    -0.316 A  
ENDBRANCH  10  11
ENDBRANCH   9  10
ENDBRANCH   8   9
ENDBRANCH   6   7
ENDBRANCH   3   6
ENDBRANCH   2   3
TORSDOF 7
ENDMDL
MODEL      304
REMARK 921   NORMALIZED FREE ENERGY PREDICTED BY IDOCK:   10.35 KCAL/MOL
REMARK 922        TOTAL FREE ENERGY PREDICTED BY IDOCK:   13.34 KCAL/MOL
REMARK 923 INTER-LIGAND FREE ENERGY PREDICTED BY IDOCK:   11.44 KCAL/MOL
REMARK 924 INTRA-LIGAND FREE ENERGY PREDICTED BY IDOCK:    1.90 KCAL/MOL
REMARK 927      BINDING AFFINITY PREDICTED BY RF-SCORE:    0.00 PKD
ROOT
HETATM    1  C   UNL     1      -9.744  19.339  64.928  1.00  0.00     2.826 C  
HETATM    2  C   UNL     1     -10.676  19.244  66.134  1.00  0.00    -0.386 C  
ENDROOT
BRANCH   2   3
HETATM    3  N   UNL     1     -10.208  18.339  67.199  1.00  0.00    -0.355 NA 
BRANCH   3   4
HETATM    4  C   UNL     1     -11.178  17.294  67.563  1.00  0.00     0.205 C  
HETATM    5  C   UNL     1     -11.150  16.809  69.008  1.00  0.00    -0.171 C  
ENDBRANCH   3   4
BRANCH   3   6
HETATM    6  C   UNL     1      -8.874  17.823  66.846  1.00  0.00    -0.248 C  
BRANCH   6   7
HETATM    7  C   UNL     1      -8.782  16.313  66.995  1.00  0.00    -0.220 C  
HETATM    8  C   UNL     1      -8.705  15.018  67.123  1.00  0.00    -0.242 C  
BRANCH   8   9
HETATM    9  C   UNL     1      -8.645  13.563  67.276  1.00  0.00    -0.213 C  
BRANCH   9  10
HETATM   10  O   UNL     1      -7.367  13.062  66.859  1.00  0.00     0.082 OA 
BRANCH  10  11
HETATM   11  C   UNL     1      -6.512  12.748  67.881  1.00  0.00    -0.120 C  
HETATM   12  O   UNL     1      -5.289  12.788  67.799  1.00  0.00    -0.096 OA 
HETATM   13  C   UNL     1      -7.327  12.287  69.143  1.00  0.00     0.091 C  
HETATM   14  C   UNL     1      -6.998  13.239  70.313  1.00  0.00     0.926 A  
HETATM   15  C   UNL     1      -6.958  10.794  69.466  1.00  0.00    -0.130 C  
HETATM   16  O   UNL     1      -8.735  12.377  68.881  1.00  0.00    -0.369 OA 
HETATM   17  H   UNL     1      -9.228  12.099  69.644  1.00  0.00     0.000 HD 
HETATM   18  C   UNL     1      -8.003  13.976  70.967  1.00  0.00     4.127 A  
HETATM   19  C   UNL     1      -7.659  10.214  70.716  1.00  0.00     0.629 C  
HETATM   20  C   UNL     1      -7.696  14.864  72.002  1.00  0.00     4.545 A  
HETATM   21  C   UNL     1      -9.121   9.824  70.502  1.00  0.00    -0.069 C  
HETATM   22  C   UNL     1      -9.307   8.901  69.303  1.00  0.00    -0.149 C  
HETATM   23  C   UNL     1      -6.377  15.037  72.407  1.00  0.00     1.358 A  
HETATM   24  C   UNL     1      -5.364  14.312  71.784  1.00  0.00    -0.199 A  
HETATM   25  C   UNL     1      -8.627   9.418  68.042  1.00  0.00    -0.120 C  
HETATM   26  C   UNL     1      -7.173   9.813  68.289  1.00  0.00    -0.078 C  
HETATM   27  C   UNL     1      -5.674  13.418  70.755  1.00  0.00    -0.184 A  
ENDBRANCH  10  11
ENDBRANCH   9  10
ENDBRANCH   8   9
ENDBRANCH   6   7
ENDBRANCH   3   6
ENDBRANCH   2   3
TORSDOF 7
ENDMDL
MODEL      305
REMARK 921   NORMALIZED FREE ENERGY PREDICTED BY IDOCK:   13.83 KCAL/MOL
REMARK 922        TOTAL FREE ENERGY PREDICTED BY IDOCK:   18.24 KCAL/MOL
REMARK 923 INTER-LIGAND FREE ENERGY PREDICTED BY IDOCK:   17.92 KCAL/MOL
REMARK 924 INTRA-LIGAND FREE ENERGY PREDICTED BY IDOCK:    0.33 KCAL/MOL
REMARK 927      BINDING AFFINITY PREDICTED BY RF-SCORE:    0.00 PKD
ROOT
HETATM    1  C   UNL     1     -11.854  16.859  70.105  1.00  0.00     1.437 C  
HETATM    2  C   UNL     1     -10.771  15.784  70.165  1.00  0.00    -0.344 C  
ENDROOT
BRANCH   2   3
HETATM    3  N   UNL     1      -9.852  15.905  71.311  1.00  0.00     1.946 NA 
BRANCH   3   4
HETATM    4  C   UNL     1     -10.453  16.542  72.494  1.00  0.00     4.307 C  
HETATM    5  C   UNL     1     -11.884  16.141  72.834  1.00  0.00    -0.551 C  
ENDBRANCH   3   4
BRANCH   3   6
HETATM    6  C   UNL     1      -9.239  14.593  71.582  1.00  0.00     4.933 C  
BRANCH   6   7
HETATM    7  C   UNL     1      -8.269  14.173  70.490  1.00  0.00     2.572 C  
HETATM    8  C   UNL     1      -7.438  13.812  69.553  1.00  0.00     0.339 C  
BRANCH   8   9
HETATM    9  C   UNL     1      -6.503  13.380  68.512  1.00  0.00    -0.086 C  
BRANCH   9  10
HETATM   10  O   UNL     1      -6.706  11.995  68.193  1.00  0.00    -0.057 OA 
BRANCH  10  11
HETATM   11  C   UNL     1      -7.981  11.674  67.814  1.00  0.00    -0.131 C  
HETATM   12  O   UNL     1      -8.744  10.974  68.471  1.00  0.00    -0.146 OA 
HETATM   13  C   UNL     1      -8.297  12.293  66.405  1.00  0.00     0.164 C  
HETATM   14  C   UNL     1      -9.502  13.246  66.546  1.00  0.00    -0.251 A  
HETATM   15  C   UNL     1      -8.576  11.125  65.390  1.00  0.00    -0.009 C  
HETATM   16  O   UNL     1      -7.177  13.061  65.940  1.00  0.00     1.777 OA 
HETATM   17  H   UNL     1      -7.367  13.435  65.088  1.00  0.00     0.000 HD 
HETATM   18  C   UNL     1      -9.410  14.607  66.196  1.00  0.00    -0.265 A  
HETATM   19  C   UNL     1      -8.942  11.587  63.961  1.00  0.00     0.278 C  
HETATM   20  C   UNL     1     -10.493  15.475  66.360  1.00  0.00    -0.310 A  
HETATM   21  C   UNL     1      -7.755  12.056  63.121  1.00  0.00     2.837 C  
HETATM   22  C   UNL     1      -6.628  11.030  63.083  1.00  0.00     0.501 C  
HETATM   23  C   UNL     1     -11.695  15.003  66.879  1.00  0.00    -0.181 A  
HETATM   24  C   UNL     1     -11.817  13.659  67.223  1.00  0.00    -0.429 A  
HETATM   25  C   UNL     1      -6.230  10.530  64.465  1.00  0.00    -0.007 C  
HETATM   26  C   UNL     1      -7.436  10.082  65.287  1.00  0.00    -0.137 C  
HETATM   27  C   UNL     1     -10.735  12.791  67.051  1.00  0.00    -0.272 A  
ENDBRANCH  10  11
ENDBRANCH   9  10
ENDBRANCH   8   9
ENDBRANCH   6   7
ENDBRANCH   3   6
ENDBRANCH   2   3
TORSDOF 7
ENDMDL
MODEL      306
REMARK 921   NORMALIZED FREE ENERGY PREDICTED BY IDOCK:   16.22 KCAL/MOL
REMARK 922        TOTAL FREE ENERGY PREDICTED BY IDOCK:   21.62 KCAL/MOL
REMARK 923 INTER-LIGAND FREE ENERGY PREDICTED BY IDOCK:    3.49 KCAL/MOL
REMARK 924 INTRA-LIGAND FREE ENERGY PREDICTED BY IDOCK:   18.13 KCAL/MOL
REMARK 927      BINDING AFFINITY PREDICTED BY RF-SCORE:    0.00 PKD
ROOT
HETATM    1  C   UNL     1     -12.820   9.911  73.754  1.00  0.00     6.929 C  
HETATM    2  C   UNL     1     -13.097   9.563  72.293  1.00  0.00    -0.408 C  
ENDROOT
BRANCH   2   3
HETATM    3  N   UNL     1     -12.177   8.567  71.716  1.00  0.00    -0.313 NA 
BRANCH   3   4
HETATM    4  C   UNL     1     -10.916   8.417  72.460  1.00  0.00    -0.318 C  
HETATM    5  C   UNL     1     -10.041   7.224  72.090  1.00  0.00    -0.207 C  
ENDBRANCH   3   4
BRANCH   3   6
HETATM    6  C   UNL     1     -12.903   7.302  71.503  1.00  0.00    -0.388 C  
BRANCH   6   7
HETATM    7  C   UNL     1     -12.014   6.087  71.707  1.00  0.00    -0.120 C  
HETATM    8  C   UNL     1     -11.252   5.044  71.882  1.00  0.00     0.132 C  
BRANCH   8   9
HETATM    9  C   UNL     1     -10.406   3.868  72.106  1.00  0.00    -0.069 C  
BRANCH   9  10
HETATM   10  O   UNL     1      -9.224   4.228  72.835  1.00  0.00    -0.111 OA 
BRANCH  10  11
HETATM   11  C   UNL     1      -8.069   4.213  72.099  1.00  0.00    -0.090 C  
HETATM   12  O   UNL     1      -6.992   3.793  72.507  1.00  0.00    -0.040 OA 
HETATM   13  C   UNL     1      -8.322   4.852  70.686  1.00  0.00    -0.100 C  
HETATM   14  C   UNL     1      -8.004   3.797  69.606  1.00  0.00    -0.055 A  
HETATM   15  C   UNL     1      -7.429   6.138  70.545  1.00  0.00    -0.090 C  
HETATM   16  O   UNL     1      -9.703   5.222  70.551  1.00  0.00    -0.167 OA 
HETATM   17  H   UNL     1      -9.856   5.609  69.697  1.00  0.00     0.000 HD 
HETATM   18  C   UNL     1      -8.972   3.386  68.669  1.00  0.00    -0.183 A  
HETATM   19  C   UNL     1      -7.545   6.856  69.180  1.00  0.00    -0.097 C  
HETATM   20  C   UNL     1      -8.690   2.404  67.716  1.00  0.00    -0.139 A  
HETATM   21  C   UNL     1      -8.810   7.695  69.008  1.00  0.00    -0.135 C  
HETATM   22  C   UNL     1      -9.015   8.680  70.153  1.00  0.00    -0.157 C  
HETATM   23  C   UNL     1      -7.434   1.807  67.676  1.00  0.00    -0.054 A  
HETATM   24  C   UNL     1      -6.455   2.202  68.584  1.00  0.00    -0.029 A  
HETATM   25  C   UNL     1      -8.902   8.030  71.526  1.00  0.00    -0.178 C  
HETATM   26  C   UNL     1      -7.637   7.187  71.665  1.00  0.00    -0.087 C  
HETATM   27  C   UNL     1      -6.736   3.191  69.532  1.00  0.00    -0.034 A  
ENDBRANCH  10  11
ENDBRANCH   9  10
ENDBRANCH   8   9
ENDBRANCH   6   7
ENDBRANCH   3   6
ENDBRANCH   2   3
TORSDOF 7
ENDMDL
MODEL      307
REMARK 921   NORMALIZED FREE ENERGY PREDICTED BY IDOCK:   22.84 KCAL/MOL
REMARK 922        TOTAL FREE ENERGY PREDICTED BY IDOCK:   30.95 KCAL/MOL
REMARK 923 INTER-LIGAND FREE ENERGY PREDICTED BY IDOCK:   28.10 KCAL/MOL
REMARK 924 INTRA-LIGAND FREE ENERGY PREDICTED BY IDOCK:    2.85 KCAL/MOL
REMARK 927      BINDING AFFINITY PREDICTED BY RF-SCORE:    0.00 PKD
ROOT
HETATM    1  C   UNL     1     -10.364  18.973  69.908  1.00  0.00     0.891 C  
HETATM    2  C   UNL     1      -9.329  18.587  70.963  1.00  0.00     5.000 C  
ENDROOT
BRANCH   2   3
HETATM    3  N   UNL     1      -7.960  18.423  70.446  1.00  0.00     2.522 NA 
BRANCH   3   4
HETATM    4  C   UNL     1      -7.142  19.645  70.521  1.00  0.00     0.521 C  
HETATM    5  C   UNL     1      -7.754  20.832  71.257  1.00  0.00     2.660 C  
ENDBRANCH   3   4
BRANCH   3   6
HETATM    6  C   UNL     1      -7.339  17.247  71.081  1.00  0.00     5.375 C  
BRANCH   6   7
HETATM    7  C   UNL     1      -7.853  15.940  70.499  1.00  0.00     1.825 C  
HETATM    8  C   UNL     1      -8.294  14.819  70.001  1.00  0.00     0.571 C  
BRANCH   8   9
HETATM    9  C   UNL     1      -8.775  13.545  69.461  1.00  0.00     1.262 C  
BRANCH   9  10
HETATM   10  O   UNL     1      -7.676  12.743  69.005  1.00  0.00     0.033 OA 
BRANCH  10  11
HETATM   11  C   UNL     1      -7.710  12.426  67.673  1.00  0.00    -0.151 C  
HETATM   12  O   UNL     1      -6.978  11.600  67.138  1.00  0.00    -0.123 OA 
HETATM   13  C   UNL     1      -8.785  13.305  66.937  1.00  0.00    -0.142 C  
HETATM   14  C   UNL     1      -9.835  12.368  66.303  1.00  0.00    -0.257 A  
HETATM   15  C   UNL     1      -8.060  14.200  65.868  1.00  0.00     2.509 C  
HETATM   16  O   UNL     1      -9.459  14.152  67.880  1.00  0.00    -0.199 OA 
HETATM   17  H   UNL     1     -10.109  14.684  67.435  1.00  0.00     0.000 HD 
HETATM   18  C   UNL     1     -11.200  12.460  66.634  1.00  0.00    -0.366 A  
HETATM   19  C   UNL     1      -9.003  15.096  65.033  1.00  0.00     2.309 C  
HETATM   20  C   UNL     1     -12.142  11.586  66.084  1.00  0.00     0.940 A  
HETATM   21  C   UNL     1      -9.505  16.343  65.760  1.00  0.00    -0.191 C  
HETATM   22  C   UNL     1      -8.369  17.166  66.356  1.00  0.00    -0.315 C  
HETATM   23  C   UNL     1     -11.741  10.597  65.192  1.00  0.00     1.868 A  
HETATM   24  C   UNL     1     -10.398  10.490  64.839  1.00  0.00    -0.307 A  
HETATM   25  C   UNL     1      -7.400  16.331  67.184  1.00  0.00    -0.244 C  
HETATM   26  C   UNL     1      -6.926  15.086  66.438  1.00  0.00     2.352 C  
HETATM   27  C   UNL     1      -9.459  11.371  65.383  1.00  0.00    -0.240 A  
ENDBRANCH  10  11
ENDBRANCH   9  10
ENDBRANCH   8   9
ENDBRANCH   6   7
ENDBRANCH   3   6
ENDBRANCH   2   3
TORSDOF 7
ENDMDL
MODEL      308
REMARK 921   NORMALIZED FREE ENERGY PREDICTED BY IDOCK:   41.03 KCAL/MOL
REMARK 922        TOTAL FREE ENERGY PREDICTED BY IDOCK:   56.57 KCAL/MOL
REMARK 923 INTER-LIGAND FREE ENERGY PREDICTED BY IDOCK:   48.36 KCAL/MOL
REMARK 924 INTRA-LIGAND FREE ENERGY PREDICTED BY IDOCK:    8.21 KCAL/MOL
REMARK 927      BINDING AFFINITY PREDICTED BY RF-SCORE:    0.00 PKD
ROOT
HETATM    1  C   UNL     1     -10.170  13.199  72.435  1.00  0.00    12.859 C  
HETATM    2  C   UNL     1      -8.669  13.479  72.464  1.00  0.00    14.576 C  
ENDROOT
BRANCH   2   3
HETATM    3  N   UNL     1      -8.093  13.865  71.165  1.00  0.00     4.272 NA 
BRANCH   3   4
HETATM    4  C   UNL     1      -6.850  14.648  71.271  1.00  0.00     1.088 C  
HETATM    5  C   UNL     1      -6.907  16.091  70.785  1.00  0.00     1.489 C  
ENDBRANCH   3   4
BRANCH   3   6
HETATM    6  C   UNL     1      -7.978  12.670  70.310  1.00  0.00     3.728 C  
BRANCH   6   7
HETATM    7  C   UNL     1      -9.332  12.059  69.990  1.00  0.00     2.974 C  
HETATM    8  C   UNL     1     -10.494  11.534  69.717  1.00  0.00     0.414 C  
BRANCH   8   9
HETATM    9  C   UNL     1     -11.795  10.925  69.431  1.00  0.00    -0.328 C  
BRANCH   9  10
HETATM   10  O   UNL     1     -11.872  10.520  68.057  1.00  0.00    -0.425 OA 
BRANCH  10  11
HETATM   11  C   UNL     1     -11.460   9.237  67.812  1.00  0.00     1.054 C  
HETATM   12  O   UNL     1     -12.214   8.279  67.683  1.00  0.00     3.963 OA 
HETATM   13  C   UNL     1      -9.891   9.174  67.772  1.00  0.00    -0.174 C  
HETATM   14  C   UNL     1      -9.456   8.661  66.383  1.00  0.00    -0.295 A  
HETATM   15  C   UNL     1      -9.391   8.244  68.936  1.00  0.00    -0.147 C  
HETATM   16  O   UNL     1      -9.338  10.487  67.951  1.00  0.00    -0.141 OA 
HETATM   17  H   UNL     1      -8.390  10.449  67.927  1.00  0.00     0.000 HD 
HETATM   18  C   UNL     1      -8.615   9.419  65.547  1.00  0.00    -0.169 A  
HETATM   19  C   UNL     1      -7.858   8.054  68.996  1.00  0.00    -0.109 C  
HETATM   20  C   UNL     1      -8.253   8.966  64.275  1.00  0.00    -0.169 A  
HETATM   21  C   UNL     1      -7.094   9.236  69.592  1.00  0.00    -0.061 C  
HETATM   22  C   UNL     1      -7.639   9.655  70.952  1.00  0.00     0.067 C  
HETATM   23  C   UNL     1      -8.725   7.743  63.809  1.00  0.00     0.584 A  
HETATM   24  C   UNL     1      -9.549   6.967  64.620  1.00  0.00     2.278 A  
HETATM   25  C   UNL     1      -9.150   9.847  70.956  1.00  0.00     0.810 C  
HETATM   26  C   UNL     1      -9.886   8.658  70.343  1.00  0.00    -0.207 C  
HETATM   27  C   UNL     1      -9.903   7.418  65.894  1.00  0.00     0.431 A  
ENDBRANCH  10  11
ENDBRANCH   9  10
ENDBRANCH   8   9
ENDBRANCH   6   7
ENDBRANCH   3   6
ENDBRANCH   2   3
TORSDOF 7
ENDMDL
MODEL      309
REMARK 921   NORMALIZED FREE ENERGY PREDICTED BY IDOCK:   47.76 KCAL/MOL
REMARK 922        TOTAL FREE ENERGY PREDICTED BY IDOCK:   66.06 KCAL/MOL
REMARK 923 INTER-LIGAND FREE ENERGY PREDICTED BY IDOCK:   53.16 KCAL/MOL
REMARK 924 INTRA-LIGAND FREE ENERGY PREDICTED BY IDOCK:   12.89 KCAL/MOL
REMARK 927      BINDING AFFINITY PREDICTED BY RF-SCORE:    0.00 PKD
ROOT
HETATM    1  C   UNL     1     -10.173  14.359  68.104  1.00  0.00    -0.232 C  
HETATM    2  C   UNL     1     -10.478  14.620  66.631  1.00  0.00    -0.278 C  
ENDROOT
BRANCH   2   3
HETATM    3  N   UNL     1     -10.303  13.450  65.752  1.00  0.00    -0.288 NA 
BRANCH   3   4
HETATM    4  C   UNL     1     -10.569  12.162  66.414  1.00  0.00    -0.241 C  
HETATM    5  C   UNL     1      -9.540  11.694  67.438  1.00  0.00    -0.173 C  
ENDBRANCH   3   4
BRANCH   3   6
HETATM    6  C   UNL     1     -11.069  13.657  64.511  1.00  0.00    -0.386 C  
BRANCH   6   7
HETATM    7  C   UNL     1     -11.340  15.127  64.239  1.00  0.00    -0.092 C  
HETATM    8  C   UNL     1     -11.573  16.389  64.006  1.00  0.00     0.591 C  
BRANCH   8   9
HETATM    9  C   UNL     1     -11.851  17.798  63.720  1.00  0.00     7.416 C  
BRANCH   9  10
HETATM   10  O   UNL     1     -10.640  18.567  63.741  1.00  0.00     5.664 OA 
BRANCH  10  11
HETATM   11  C   UNL     1     -10.398  19.226  64.916  1.00  0.00     1.994 C  
HETATM   12  O   UNL     1     -10.132  20.421  64.999  1.00  0.00     0.170 OA 
HETATM   13  C   UNL     1     -10.465  18.221  66.122  1.00  0.00    -0.383 C  
HETATM   14  C   UNL     1     -11.573  18.688  67.089  1.00  0.00     1.304 A  
HETATM   15  C   UNL     1      -9.054  18.163  66.812  1.00  0.00    -0.287 C  
HETATM   16  O   UNL     1     -10.812  16.909  65.652  1.00  0.00    -0.239 OA 
HETATM   17  H   UNL     1     -10.852  16.301  66.381  1.00  0.00     0.000 HD 
HETATM   18  C   UNL     1     -12.661  17.859  67.419  1.00  0.00     5.919 A  
HETATM   19  C   UNL     1      -8.979  17.238  68.048  1.00  0.00    -0.242 C  
HETATM   20  C   UNL     1     -13.680  18.300  68.268  1.00  0.00    11.061 A  
HETATM   21  C   UNL     1      -8.898  15.747  67.722  1.00  0.00    -0.173 C  
HETATM   22  C   UNL     1      -7.777  15.426  66.740  1.00  0.00    -0.045 C  
HETATM   23  C   UNL     1     -13.637  19.582  68.805  1.00  0.00    13.053 A  
HETATM   24  C   UNL     1     -12.566  20.420  68.504  1.00  0.00     5.765 A  
HETATM   25  C   UNL     1      -7.795  16.316  65.504  1.00  0.00     2.142 C  
HETATM   26  C   UNL     1      -7.890  17.798  65.859  1.00  0.00    -0.100 C  
HETATM   27  C   UNL     1     -11.543  19.974  67.662  1.00  0.00     1.245 A  
ENDBRANCH  10  11
ENDBRANCH   9  10
ENDBRANCH   8   9
ENDBRANCH   6   7
ENDBRANCH   3   6
ENDBRANCH   2   3
TORSDOF 7
ENDMDL
