MODEL        1
REMARK 921   NORMALIZED FREE ENERGY PREDICTED BY IDOCK:   -6.56 KCAL/MOL
REMARK 922        TOTAL FREE ENERGY PREDICTED BY IDOCK:   -8.10 KCAL/MOL
REMARK 923 INTER-LIGAND FREE ENERGY PREDICTED BY IDOCK:   -7.71 KCAL/MOL
REMARK 924 INTRA-LIGAND FREE ENERGY PREDICTED BY IDOCK:   -0.38 KCAL/MOL
REMARK 927      BINDING AFFINITY PREDICTED BY RF-SCORE:    0.00 PKD
ROOT
HETATM    1  C   UNL     1     -12.909  11.872  63.560  1.00  0.00    -0.305 C  
HETATM    2  O   UNL     1     -12.990  12.377  64.893  1.00  0.00    -0.762 OA 
ENDROOT
BRANCH   2   3
HETATM    3  C   UNL     1     -12.167  13.438  65.156  1.00  0.00    -0.434 A  
HETATM    4  C   UNL     1     -12.155  14.626  64.428  1.00  0.00    -0.481 A  
HETATM    5  C   UNL     1     -11.228  15.626  64.738  1.00  0.00    -0.382 A  
HETATM    6  O   UNL     1     -11.210  16.748  63.956  1.00  0.00    -1.438 OA 
HETATM    7  C   UNL     1     -10.318  15.463  65.790  1.00  0.00    -0.381 A  
HETATM    8  H   UNL     1     -10.580  17.427  64.166  1.00  0.00     0.000 HD 
HETATM    9  C   UNL     1     -10.402  14.304  66.576  1.00  0.00    -0.278 A  
HETATM   10  C   UNL     1     -11.315  13.294  66.251  1.00  0.00    -0.336 A  
BRANCH   7  11
HETATM   11  C   UNL     1      -9.333  16.533  66.122  1.00  0.00    -0.304 C  
HETATM   12  O   UNL     1      -8.167  16.422  65.751  1.00  0.00    -0.187 OA 
BRANCH  11  13
HETATM   13  C   UNL     1      -9.725  17.787  66.833  1.00  0.00    -0.300 A  
HETATM   14  C   UNL     1      -9.593  17.812  68.230  1.00  0.00    -0.312 A  
HETATM   15  C   UNL     1      -9.906  18.962  68.955  1.00  0.00    -0.379 A  
HETATM   16  C   UNL     1     -10.355  20.099  68.290  1.00  0.00    -0.426 A  
HETATM   17  C   UNL     1     -10.522  20.077  66.904  1.00  0.00    -0.523 A  
HETATM   18  C   UNL     1     -10.224  18.920  66.177  1.00  0.00    -0.485 A  
ENDBRANCH  11  13
ENDBRANCH   7  11
ENDBRANCH   2   3
TORSDOF 3
ENDMDL
MODEL        2
REMARK 921   NORMALIZED FREE ENERGY PREDICTED BY IDOCK:   -6.46 KCAL/MOL
REMARK 922        TOTAL FREE ENERGY PREDICTED BY IDOCK:   -7.97 KCAL/MOL
REMARK 923 INTER-LIGAND FREE ENERGY PREDICTED BY IDOCK:   -7.31 KCAL/MOL
REMARK 924 INTRA-LIGAND FREE ENERGY PREDICTED BY IDOCK:   -0.67 KCAL/MOL
REMARK 927      BINDING AFFINITY PREDICTED BY RF-SCORE:    0.00 PKD
ROOT
HETATM    1  C   UNL     1     -10.230  19.894  67.282  1.00  0.00    -0.433 C  
HETATM    2  O   UNL     1      -9.700  18.638  67.707  1.00  0.00    -0.298 OA 
ENDROOT
BRANCH   2   3
HETATM    3  C   UNL     1     -10.225  17.548  67.068  1.00  0.00    -0.327 A  
HETATM    4  C   UNL     1     -10.519  17.497  65.706  1.00  0.00    -0.212 A  
HETATM    5  C   UNL     1     -11.116  16.356  65.163  1.00  0.00    -0.170 A  
HETATM    6  O   UNL     1     -11.446  16.375  63.836  1.00  0.00    -1.569 OA 
HETATM    7  C   UNL     1     -11.406  15.244  65.964  1.00  0.00    -0.162 A  
HETATM    8  H   UNL     1     -11.851  15.599  63.466  1.00  0.00     0.000 HD 
HETATM    9  C   UNL     1     -11.019  15.269  67.312  1.00  0.00    -0.327 A  
HETATM   10  C   UNL     1     -10.442  16.420  67.860  1.00  0.00    -0.307 A  
BRANCH   7  11
HETATM   11  C   UNL     1     -12.038  14.025  65.381  1.00  0.00    -0.401 C  
HETATM   12  O   UNL     1     -13.231  14.040  65.088  1.00  0.00    -0.768 OA 
BRANCH  11  13
HETATM   13  C   UNL     1     -11.256  12.792  65.065  1.00  0.00    -0.333 A  
HETATM   14  C   UNL     1     -10.843  12.605  63.736  1.00  0.00    -0.466 A  
HETATM   15  C   UNL     1     -10.079  11.495  63.376  1.00  0.00    -0.454 A  
HETATM   16  C   UNL     1      -9.721  10.558  64.341  1.00  0.00    -0.388 A  
HETATM   17  C   UNL     1     -10.153  10.714  65.659  1.00  0.00    -0.335 A  
HETATM   18  C   UNL     1     -10.932  11.819  66.019  1.00  0.00    -0.355 A  
ENDBRANCH  11  13
ENDBRANCH   7  11
ENDBRANCH   2   3
TORSDOF 3
ENDMDL
MODEL        3
REMARK 921   NORMALIZED FREE ENERGY PREDICTED BY IDOCK:   -6.43 KCAL/MOL
REMARK 922        TOTAL FREE ENERGY PREDICTED BY IDOCK:   -7.94 KCAL/MOL
REMARK 923 INTER-LIGAND FREE ENERGY PREDICTED BY IDOCK:   -7.46 KCAL/MOL
REMARK 924 INTRA-LIGAND FREE ENERGY PREDICTED BY IDOCK:   -0.48 KCAL/MOL
REMARK 927      BINDING AFFINITY PREDICTED BY RF-SCORE:    0.00 PKD
ROOT
HETATM    1  C   UNL     1     -11.797  11.373  68.755  1.00  0.00    -0.323 C  
HETATM    2  O   UNL     1     -12.118  11.533  67.373  1.00  0.00    -0.593 OA 
ENDROOT
BRANCH   2   3
HETATM    3  C   UNL     1     -11.863  12.777  66.864  1.00  0.00    -0.371 A  
HETATM    4  C   UNL     1     -12.179  13.178  65.566  1.00  0.00    -0.513 A  
HETATM    5  C   UNL     1     -11.816  14.452  65.122  1.00  0.00    -0.386 A  
HETATM    6  O   UNL     1     -12.088  14.780  63.822  1.00  0.00    -0.886 OA 
HETATM    7  C   UNL     1     -11.156  15.350  65.971  1.00  0.00    -0.233 A  
HETATM    8  H   UNL     1     -11.842  15.646  63.520  1.00  0.00     0.000 HD 
HETATM    9  C   UNL     1     -10.928  14.971  67.301  1.00  0.00    -0.326 A  
HETATM   10  C   UNL     1     -11.271  13.687  67.739  1.00  0.00    -0.310 A  
BRANCH   7  11
HETATM   11  C   UNL     1     -10.774  16.712  65.496  1.00  0.00    -0.223 C  
HETATM   12  O   UNL     1     -11.116  17.083  64.376  1.00  0.00    -1.144 OA 
BRANCH  11  13
HETATM   13  C   UNL     1     -10.046  17.686  66.363  1.00  0.00    -0.356 A  
HETATM   14  C   UNL     1      -8.654  17.546  66.474  1.00  0.00    -0.293 A  
HETATM   15  C   UNL     1      -7.905  18.442  67.238  1.00  0.00    -0.234 A  
HETATM   16  C   UNL     1      -8.542  19.487  67.901  1.00  0.00    -0.357 A  
HETATM   17  C   UNL     1      -9.930  19.618  67.826  1.00  0.00    -0.514 A  
HETATM   18  C   UNL     1     -10.684  18.712  67.073  1.00  0.00    -0.400 A  
ENDBRANCH  11  13
ENDBRANCH   7  11
ENDBRANCH   2   3
TORSDOF 3
ENDMDL
MODEL        4
REMARK 921   NORMALIZED FREE ENERGY PREDICTED BY IDOCK:   -6.41 KCAL/MOL
REMARK 922        TOTAL FREE ENERGY PREDICTED BY IDOCK:   -7.92 KCAL/MOL
REMARK 923 INTER-LIGAND FREE ENERGY PREDICTED BY IDOCK:   -7.54 KCAL/MOL
REMARK 924 INTRA-LIGAND FREE ENERGY PREDICTED BY IDOCK:   -0.38 KCAL/MOL
REMARK 927      BINDING AFFINITY PREDICTED BY RF-SCORE:    0.00 PKD
ROOT
HETATM    1  C   UNL     1     -10.624  10.472  67.137  1.00  0.00    -0.264 C  
HETATM    2  O   UNL     1     -11.829  11.224  66.993  1.00  0.00    -0.484 OA 
ENDROOT
BRANCH   2   3
HETATM    3  C   UNL     1     -11.656  12.507  66.551  1.00  0.00    -0.388 A  
HETATM    4  C   UNL     1     -12.209  13.018  65.377  1.00  0.00    -0.520 A  
HETATM    5  C   UNL     1     -11.917  14.326  64.980  1.00  0.00    -0.410 A  
HETATM    6  O   UNL     1     -12.428  14.764  63.789  1.00  0.00    -1.045 OA 
HETATM    7  C   UNL     1     -11.091  15.148  65.758  1.00  0.00    -0.330 A  
HETATM    8  H   UNL     1     -12.230  15.653  63.519  1.00  0.00     0.000 HD 
HETATM    9  C   UNL     1     -10.618  14.656  66.983  1.00  0.00    -0.280 A  
HETATM   10  C   UNL     1     -10.892  13.339  67.369  1.00  0.00    -0.279 A  
BRANCH   7  11
HETATM   11  C   UNL     1     -10.785  16.545  65.335  1.00  0.00    -0.259 C  
HETATM   12  O   UNL     1     -11.198  16.957  64.253  1.00  0.00    -1.204 OA 
BRANCH  11  13
HETATM   13  C   UNL     1     -10.049  17.504  66.214  1.00  0.00    -0.341 A  
HETATM   14  C   UNL     1     -10.779  18.561  66.778  1.00  0.00    -0.303 A  
HETATM   15  C   UNL     1     -10.165  19.473  67.636  1.00  0.00    -0.556 A  
HETATM   16  C   UNL     1      -8.813  19.338  67.939  1.00  0.00    -0.355 A  
HETATM   17  C   UNL     1      -8.067  18.310  67.358  1.00  0.00    -0.232 A  
HETATM   18  C   UNL     1      -8.678  17.404  66.484  1.00  0.00    -0.290 A  
ENDBRANCH  11  13
ENDBRANCH   7  11
ENDBRANCH   2   3
TORSDOF 3
ENDMDL
MODEL        5
REMARK 921   NORMALIZED FREE ENERGY PREDICTED BY IDOCK:   -6.31 KCAL/MOL
REMARK 922        TOTAL FREE ENERGY PREDICTED BY IDOCK:   -7.80 KCAL/MOL
REMARK 923 INTER-LIGAND FREE ENERGY PREDICTED BY IDOCK:   -7.23 KCAL/MOL
REMARK 924 INTRA-LIGAND FREE ENERGY PREDICTED BY IDOCK:   -0.57 KCAL/MOL
REMARK 927      BINDING AFFINITY PREDICTED BY RF-SCORE:    0.00 PKD
ROOT
HETATM    1  C   UNL     1     -12.237  12.908  63.785  1.00  0.00    -0.476 C  
HETATM    2  O   UNL     1     -12.568  12.182  64.969  1.00  0.00    -0.514 OA 
ENDROOT
BRANCH   2   3
HETATM    3  C   UNL     1     -12.143  12.760  66.135  1.00  0.00    -0.364 A  
HETATM    4  C   UNL     1     -11.640  12.055  67.227  1.00  0.00    -0.383 A  
HETATM    5  C   UNL     1     -11.294  12.735  68.398  1.00  0.00    -0.295 A  
HETATM    6  O   UNL     1     -10.867  11.996  69.467  1.00  0.00    -0.445 OA 
HETATM    7  C   UNL     1     -11.423  14.127  68.487  1.00  0.00    -0.333 A  
HETATM    8  H   UNL     1     -10.631  12.458  70.262  1.00  0.00     0.000 HD 
HETATM    9  C   UNL     1     -11.839  14.836  67.351  1.00  0.00    -0.320 A  
HETATM   10  C   UNL     1     -12.207  14.152  66.186  1.00  0.00    -0.465 A  
BRANCH   7  11
HETATM   11  C   UNL     1     -11.048  14.852  69.736  1.00  0.00    -0.274 C  
HETATM   12  O   UNL     1      -9.914  15.309  69.856  1.00  0.00    -0.244 OA 
BRANCH  11  13
HETATM   13  C   UNL     1     -12.028  15.114  70.833  1.00  0.00    -0.378 A  
HETATM   14  C   UNL     1     -11.559  15.770  71.981  1.00  0.00    -0.541 A  
HETATM   15  C   UNL     1     -12.427  16.079  73.030  1.00  0.00    -0.614 A  
HETATM   16  C   UNL     1     -13.772  15.733  72.941  1.00  0.00    -0.631 A  
HETATM   17  C   UNL     1     -14.244  15.050  71.818  1.00  0.00    -0.649 A  
HETATM   18  C   UNL     1     -13.373  14.726  70.773  1.00  0.00    -0.302 A  
ENDBRANCH  11  13
ENDBRANCH   7  11
ENDBRANCH   2   3
TORSDOF 3
ENDMDL
MODEL        6
REMARK 921   NORMALIZED FREE ENERGY PREDICTED BY IDOCK:   -6.24 KCAL/MOL
REMARK 922        TOTAL FREE ENERGY PREDICTED BY IDOCK:   -7.72 KCAL/MOL
REMARK 923 INTER-LIGAND FREE ENERGY PREDICTED BY IDOCK:   -7.10 KCAL/MOL
REMARK 924 INTRA-LIGAND FREE ENERGY PREDICTED BY IDOCK:   -0.62 KCAL/MOL
REMARK 927      BINDING AFFINITY PREDICTED BY RF-SCORE:    0.00 PKD
ROOT
HETATM    1  C   UNL     1     -12.194  12.121  63.355  1.00  0.00    -0.530 C  
HETATM    2  O   UNL     1     -12.194  13.525  63.613  1.00  0.00    -0.625 OA 
ENDROOT
BRANCH   2   3
HETATM    3  C   UNL     1     -11.924  13.871  64.909  1.00  0.00    -0.395 A  
HETATM    4  C   UNL     1     -11.410  15.105  65.304  1.00  0.00    -0.318 A  
HETATM    5  C   UNL     1     -11.106  15.336  66.649  1.00  0.00    -0.276 A  
HETATM    6  O   UNL     1     -10.543  16.537  66.982  1.00  0.00    -0.310 OA 
HETATM    7  C   UNL     1     -11.332  14.350  67.618  1.00  0.00    -0.348 A  
HETATM    8  H   UNL     1     -10.336  16.694  67.896  1.00  0.00     0.000 HD 
HETATM    9  C   UNL     1     -11.938  13.148  67.223  1.00  0.00    -0.389 A  
HETATM   10  C   UNL     1     -12.221  12.909  65.874  1.00  0.00    -0.469 A  
BRANCH   7  11
HETATM   11  C   UNL     1     -11.012  14.600  69.053  1.00  0.00    -0.258 C  
HETATM   12  O   UNL     1      -9.892  14.997  69.366  1.00  0.00    -0.211 OA 
BRANCH  11  13
HETATM   13  C   UNL     1     -12.031  14.458  70.137  1.00  0.00    -0.386 A  
HETATM   14  C   UNL     1     -12.247  13.175  70.663  1.00  0.00    -0.402 A  
HETATM   15  C   UNL     1     -13.158  12.974  71.701  1.00  0.00    -0.440 A  
HETATM   16  C   UNL     1     -13.863  14.055  72.222  1.00  0.00    -0.655 A  
HETATM   17  C   UNL     1     -13.683  15.331  71.685  1.00  0.00    -0.600 A  
HETATM   18  C   UNL     1     -12.782  15.532  70.634  1.00  0.00    -0.487 A  
ENDBRANCH  11  13
ENDBRANCH   7  11
ENDBRANCH   2   3
TORSDOF 3
ENDMDL
MODEL        7
REMARK 921   NORMALIZED FREE ENERGY PREDICTED BY IDOCK:   -6.20 KCAL/MOL
REMARK 922        TOTAL FREE ENERGY PREDICTED BY IDOCK:   -7.67 KCAL/MOL
REMARK 923 INTER-LIGAND FREE ENERGY PREDICTED BY IDOCK:   -7.13 KCAL/MOL
REMARK 924 INTRA-LIGAND FREE ENERGY PREDICTED BY IDOCK:   -0.54 KCAL/MOL
REMARK 927      BINDING AFFINITY PREDICTED BY RF-SCORE:    0.00 PKD
ROOT
HETATM    1  C   UNL     1     -11.196  12.946  63.674  1.00  0.00    -0.366 C  
HETATM    2  O   UNL     1     -11.300  14.053  64.570  1.00  0.00    -0.368 OA 
ENDROOT
BRANCH   2   3
HETATM    3  C   UNL     1     -11.423  13.715  65.890  1.00  0.00    -0.316 A  
HETATM    4  C   UNL     1     -11.554  12.410  66.361  1.00  0.00    -0.442 A  
HETATM    5  C   UNL     1     -11.740  12.175  67.726  1.00  0.00    -0.320 A  
HETATM    6  O   UNL     1     -11.928  10.883  68.135  1.00  0.00    -0.744 OA 
HETATM    7  C   UNL     1     -11.775  13.236  68.641  1.00  0.00    -0.376 A  
HETATM    8  H   UNL     1     -12.055  10.724  69.063  1.00  0.00     0.000 HD 
HETATM    9  C   UNL     1     -11.548  14.536  68.168  1.00  0.00    -0.359 A  
HETATM   10  C   UNL     1     -11.384  14.772  66.798  1.00  0.00    -0.347 A  
BRANCH   7  11
HETATM   11  C   UNL     1     -11.969  12.983  70.098  1.00  0.00    -0.303 C  
HETATM   12  O   UNL     1     -11.666  11.890  70.571  1.00  0.00    -0.254 OA 
BRANCH  11  13
HETATM   13  C   UNL     1     -12.454  14.040  71.035  1.00  0.00    -0.444 A  
HETATM   14  C   UNL     1     -13.832  14.096  71.297  1.00  0.00    -0.242 A  
HETATM   15  C   UNL     1     -14.351  15.035  72.189  1.00  0.00    -0.622 A  
HETATM   16  C   UNL     1     -13.497  15.928  72.829  1.00  0.00    -0.594 A  
HETATM   17  C   UNL     1     -12.128  15.906  72.552  1.00  0.00    -0.611 A  
HETATM   18  C   UNL     1     -11.608  14.975  71.646  1.00  0.00    -0.416 A  
ENDBRANCH  11  13
ENDBRANCH   7  11
ENDBRANCH   2   3
TORSDOF 3
ENDMDL
MODEL        8
REMARK 921   NORMALIZED FREE ENERGY PREDICTED BY IDOCK:   -6.18 KCAL/MOL
REMARK 922        TOTAL FREE ENERGY PREDICTED BY IDOCK:   -7.65 KCAL/MOL
REMARK 923 INTER-LIGAND FREE ENERGY PREDICTED BY IDOCK:   -7.11 KCAL/MOL
REMARK 924 INTRA-LIGAND FREE ENERGY PREDICTED BY IDOCK:   -0.54 KCAL/MOL
REMARK 927      BINDING AFFINITY PREDICTED BY RF-SCORE:    0.00 PKD
ROOT
HETATM    1  C   UNL     1     -12.267  11.905  63.340  1.00  0.00    -0.450 C  
HETATM    2  O   UNL     1     -13.048  12.694  64.237  1.00  0.00    -0.741 OA 
ENDROOT
BRANCH   2   3
HETATM    3  C   UNL     1     -12.324  13.476  65.095  1.00  0.00    -0.449 A  
HETATM    4  C   UNL     1     -12.650  13.691  66.433  1.00  0.00    -0.289 A  
HETATM    5  C   UNL     1     -11.880  14.561  67.209  1.00  0.00    -0.392 A  
HETATM    6  O   UNL     1     -12.275  14.792  68.498  1.00  0.00    -0.580 OA 
HETATM    7  C   UNL     1     -10.761  15.209  66.668  1.00  0.00    -0.310 A  
HETATM    8  H   UNL     1     -11.751  15.383  69.026  1.00  0.00     0.000 HD 
HETATM    9  C   UNL     1     -10.386  14.912  65.351  1.00  0.00    -0.413 A  
HETATM   10  C   UNL     1     -11.172  14.058  64.567  1.00  0.00    -0.358 A  
BRANCH   7  11
HETATM   11  C   UNL     1      -9.937  16.133  67.500  1.00  0.00    -0.243 C  
HETATM   12  O   UNL     1      -9.148  15.673  68.322  1.00  0.00    -0.182 OA 
BRANCH  11  13
HETATM   13  C   UNL     1      -9.975  17.617  67.323  1.00  0.00    -0.322 A  
HETATM   14  C   UNL     1      -9.447  18.409  68.354  1.00  0.00    -0.352 A  
HETATM   15  C   UNL     1      -9.417  19.800  68.240  1.00  0.00    -0.440 A  
HETATM   16  C   UNL     1      -9.917  20.412  67.095  1.00  0.00    -0.568 A  
HETATM   17  C   UNL     1     -10.476  19.637  66.077  1.00  0.00    -0.622 A  
HETATM   18  C   UNL     1     -10.521  18.244  66.195  1.00  0.00    -0.403 A  
ENDBRANCH  11  13
ENDBRANCH   7  11
ENDBRANCH   2   3
TORSDOF 3
ENDMDL
MODEL        9
REMARK 921   NORMALIZED FREE ENERGY PREDICTED BY IDOCK:   -6.11 KCAL/MOL
REMARK 922        TOTAL FREE ENERGY PREDICTED BY IDOCK:   -7.56 KCAL/MOL
REMARK 923 INTER-LIGAND FREE ENERGY PREDICTED BY IDOCK:   -6.85 KCAL/MOL
REMARK 924 INTRA-LIGAND FREE ENERGY PREDICTED BY IDOCK:   -0.71 KCAL/MOL
REMARK 927      BINDING AFFINITY PREDICTED BY RF-SCORE:    0.00 PKD
ROOT
HETATM    1  C   UNL     1     -12.995  10.067  71.913  1.00  0.00    -0.447 C  
HETATM    2  O   UNL     1     -13.083  11.490  72.003  1.00  0.00    -0.486 OA 
ENDROOT
BRANCH   2   3
HETATM    3  C   UNL     1     -12.641  12.163  70.897  1.00  0.00    -0.247 A  
HETATM    4  C   UNL     1     -12.656  13.551  70.760  1.00  0.00    -0.382 A  
HETATM    5  C   UNL     1     -12.242  14.139  69.562  1.00  0.00    -0.305 A  
HETATM    6  O   UNL     1     -12.335  15.499  69.449  1.00  0.00    -0.572 OA 
HETATM    7  C   UNL     1     -11.787  13.354  68.494  1.00  0.00    -0.401 A  
HETATM    8  H   UNL     1     -12.054  15.898  68.634  1.00  0.00     0.000 HD 
HETATM    9  C   UNL     1     -11.687  11.967  68.676  1.00  0.00    -0.380 A  
HETATM   10  C   UNL     1     -12.122  11.377  69.868  1.00  0.00    -0.404 A  
BRANCH   7  11
HETATM   11  C   UNL     1     -11.341  13.984  67.218  1.00  0.00    -0.330 C  
HETATM   12  O   UNL     1     -10.822  15.097  67.238  1.00  0.00    -0.301 OA 
BRANCH  11  13
HETATM   13  C   UNL     1     -11.434  13.279  65.903  1.00  0.00    -0.359 A  
HETATM   14  C   UNL     1     -10.243  12.795  65.339  1.00  0.00    -0.299 A  
HETATM   15  C   UNL     1     -10.259  12.096  64.131  1.00  0.00    -0.370 A  
HETATM   16  C   UNL     1     -11.466  11.875  63.475  1.00  0.00    -0.523 A  
HETATM   17  C   UNL     1     -12.653  12.379  64.008  1.00  0.00    -0.510 A  
HETATM   18  C   UNL     1     -12.638  13.094  65.211  1.00  0.00    -0.531 A  
ENDBRANCH  11  13
ENDBRANCH   7  11
ENDBRANCH   2   3
TORSDOF 3
ENDMDL
MODEL       10
REMARK 921   NORMALIZED FREE ENERGY PREDICTED BY IDOCK:   -6.08 KCAL/MOL
REMARK 922        TOTAL FREE ENERGY PREDICTED BY IDOCK:   -7.53 KCAL/MOL
REMARK 923 INTER-LIGAND FREE ENERGY PREDICTED BY IDOCK:   -6.86 KCAL/MOL
REMARK 924 INTRA-LIGAND FREE ENERGY PREDICTED BY IDOCK:   -0.67 KCAL/MOL
REMARK 927      BINDING AFFINITY PREDICTED BY RF-SCORE:    0.00 PKD
ROOT
HETATM    1  C   UNL     1     -11.079   7.566  72.981  1.00  0.00    -0.362 C  
HETATM    2  O   UNL     1     -11.467   7.714  71.615  1.00  0.00    -0.250 OA 
ENDROOT
BRANCH   2   3
HETATM    3  C   UNL     1     -11.599   9.008  71.192  1.00  0.00    -0.306 A  
HETATM    4  C   UNL     1     -10.786   9.611  70.233  1.00  0.00    -0.335 A  
HETATM    5  C   UNL     1     -10.962  10.961  69.917  1.00  0.00    -0.199 A  
HETATM    6  O   UNL     1     -10.100  11.527  69.019  1.00  0.00    -0.357 OA 
HETATM    7  C   UNL     1     -11.964  11.720  70.536  1.00  0.00    -0.383 A  
HETATM    8  H   UNL     1     -10.220  12.445  68.804  1.00  0.00     0.000 HD 
HETATM    9  C   UNL     1     -12.836  11.080  71.428  1.00  0.00    -0.548 A  
HETATM   10  C   UNL     1     -12.645   9.734  71.760  1.00  0.00    -0.506 A  
BRANCH   7  11
HETATM   11  C   UNL     1     -12.153  13.160  70.194  1.00  0.00    -0.321 C  
HETATM   12  O   UNL     1     -12.051  13.526  69.026  1.00  0.00    -0.341 OA 
BRANCH  11  13
HETATM   13  C   UNL     1     -12.538  14.180  71.216  1.00  0.00    -0.438 A  
HETATM   14  C   UNL     1     -13.901  14.491  71.344  1.00  0.00    -0.441 A  
HETATM   15  C   UNL     1     -14.337  15.407  72.301  1.00  0.00    -0.576 A  
HETATM   16  C   UNL     1     -13.413  16.025  73.140  1.00  0.00    -0.587 A  
HETATM   17  C   UNL     1     -12.052  15.750  73.001  1.00  0.00    -0.601 A  
HETATM   18  C   UNL     1     -11.611  14.843  72.031  1.00  0.00    -0.314 A  
ENDBRANCH  11  13
ENDBRANCH   7  11
ENDBRANCH   2   3
TORSDOF 3
ENDMDL
MODEL       11
REMARK 921   NORMALIZED FREE ENERGY PREDICTED BY IDOCK:   -6.06 KCAL/MOL
REMARK 922        TOTAL FREE ENERGY PREDICTED BY IDOCK:   -7.51 KCAL/MOL
REMARK 923 INTER-LIGAND FREE ENERGY PREDICTED BY IDOCK:   -7.08 KCAL/MOL
REMARK 924 INTRA-LIGAND FREE ENERGY PREDICTED BY IDOCK:   -0.43 KCAL/MOL
REMARK 927      BINDING AFFINITY PREDICTED BY RF-SCORE:    0.00 PKD
ROOT
HETATM    1  C   UNL     1     -10.052   6.953  74.019  1.00  0.00    -0.348 C  
HETATM    2  O   UNL     1     -11.159   6.862  73.122  1.00  0.00    -0.268 OA 
ENDROOT
BRANCH   2   3
HETATM    3  C   UNL     1     -11.356   7.966  72.338  1.00  0.00    -0.369 A  
HETATM    4  C   UNL     1     -10.373   8.554  71.543  1.00  0.00    -0.321 A  
HETATM    5  C   UNL     1     -10.659   9.721  70.829  1.00  0.00    -0.301 A  
HETATM    6  O   UNL     1      -9.647  10.300  70.115  1.00  0.00    -0.401 OA 
HETATM    7  C   UNL     1     -11.933  10.303  70.880  1.00  0.00    -0.473 A  
HETATM    8  H   UNL     1      -9.841  11.093  69.629  1.00  0.00     0.000 HD 
HETATM    9  C   UNL     1     -12.939   9.650  71.606  1.00  0.00    -0.501 A  
HETATM   10  C   UNL     1     -12.646   8.494  72.339  1.00  0.00    -0.409 A  
BRANCH   7  11
HETATM   11  C   UNL     1     -12.237  11.545  70.113  1.00  0.00    -0.308 C  
HETATM   12  O   UNL     1     -12.214  11.523  68.885  1.00  0.00    -0.415 OA 
BRANCH  11  13
HETATM   13  C   UNL     1     -12.647  12.818  70.782  1.00  0.00    -0.308 A  
HETATM   14  C   UNL     1     -12.301  14.024  70.154  1.00  0.00    -0.409 A  
HETATM   15  C   UNL     1     -12.682  15.248  70.703  1.00  0.00    -0.470 A  
HETATM   16  C   UNL     1     -13.412  15.279  71.888  1.00  0.00    -0.547 A  
HETATM   17  C   UNL     1     -13.734  14.088  72.541  1.00  0.00    -0.651 A  
HETATM   18  C   UNL     1     -13.339  12.859  71.999  1.00  0.00    -0.579 A  
ENDBRANCH  11  13
ENDBRANCH   7  11
ENDBRANCH   2   3
TORSDOF 3
ENDMDL
MODEL       12
REMARK 921   NORMALIZED FREE ENERGY PREDICTED BY IDOCK:   -6.06 KCAL/MOL
REMARK 922        TOTAL FREE ENERGY PREDICTED BY IDOCK:   -7.50 KCAL/MOL
REMARK 923 INTER-LIGAND FREE ENERGY PREDICTED BY IDOCK:   -6.82 KCAL/MOL
REMARK 924 INTRA-LIGAND FREE ENERGY PREDICTED BY IDOCK:   -0.68 KCAL/MOL
REMARK 927      BINDING AFFINITY PREDICTED BY RF-SCORE:    0.00 PKD
ROOT
HETATM    1  C   UNL     1     -12.649  11.879  63.410  1.00  0.00    -0.431 C  
HETATM    2  O   UNL     1     -13.075  12.371  64.680  1.00  0.00    -0.825 OA 
ENDROOT
BRANCH   2   3
HETATM    3  C   UNL     1     -12.412  13.485  65.118  1.00  0.00    -0.451 A  
HETATM    4  C   UNL     1     -12.177  14.618  64.341  1.00  0.00    -0.473 A  
HETATM    5  C   UNL     1     -11.431  15.679  64.862  1.00  0.00    -0.245 A  
HETATM    6  O   UNL     1     -11.169  16.743  64.043  1.00  0.00    -1.438 OA 
HETATM    7  C   UNL     1     -10.930  15.633  66.170  1.00  0.00    -0.206 A  
HETATM    8  H   UNL     1     -10.662  17.464  64.397  1.00  0.00     0.000 HD 
HETATM    9  C   UNL     1     -11.253  14.531  66.974  1.00  0.00    -0.342 A  
HETATM   10  C   UNL     1     -11.981  13.459  66.444  1.00  0.00    -0.457 A  
BRANCH   7  11
HETATM   11  C   UNL     1     -10.138  16.769  66.726  1.00  0.00    -0.294 C  
HETATM   12  O   UNL     1     -10.614  17.901  66.723  1.00  0.00    -0.328 OA 
BRANCH  11  13
HETATM   13  C   UNL     1      -8.800  16.574  67.363  1.00  0.00    -0.201 A  
HETATM   14  C   UNL     1      -7.668  16.661  66.539  1.00  0.00    -0.337 A  
HETATM   15  C   UNL     1      -6.386  16.526  67.072  1.00  0.00    -0.207 A  
HETATM   16  C   UNL     1      -6.223  16.301  68.436  1.00  0.00    -0.119 A  
HETATM   17  C   UNL     1      -7.343  16.178  69.262  1.00  0.00    -0.231 A  
HETATM   18  C   UNL     1      -8.629  16.298  68.726  1.00  0.00    -0.240 A  
ENDBRANCH  11  13
ENDBRANCH   7  11
ENDBRANCH   2   3
TORSDOF 3
ENDMDL
MODEL       13
REMARK 921   NORMALIZED FREE ENERGY PREDICTED BY IDOCK:   -6.04 KCAL/MOL
REMARK 922        TOTAL FREE ENERGY PREDICTED BY IDOCK:   -7.49 KCAL/MOL
REMARK 923 INTER-LIGAND FREE ENERGY PREDICTED BY IDOCK:   -6.85 KCAL/MOL
REMARK 924 INTRA-LIGAND FREE ENERGY PREDICTED BY IDOCK:   -0.64 KCAL/MOL
REMARK 927      BINDING AFFINITY PREDICTED BY RF-SCORE:    0.00 PKD
ROOT
HETATM    1  C   UNL     1     -12.521  16.441  73.529  1.00  0.00    -0.459 C  
HETATM    2  O   UNL     1     -13.450  15.908  72.585  1.00  0.00    -0.508 OA 
ENDROOT
BRANCH   2   3
HETATM    3  C   UNL     1     -13.062  14.735  71.997  1.00  0.00    -0.337 A  
HETATM    4  C   UNL     1     -12.076  14.633  71.016  1.00  0.00    -0.393 A  
HETATM    5  C   UNL     1     -11.799  13.394  70.431  1.00  0.00    -0.208 A  
HETATM    6  O   UNL     1     -10.871  13.352  69.427  1.00  0.00    -0.435 OA 
HETATM    7  C   UNL     1     -12.484  12.239  70.832  1.00  0.00    -0.371 A  
HETATM    8  H   UNL     1     -10.683  12.510  69.029  1.00  0.00     0.000 HD 
HETATM    9  C   UNL     1     -13.404  12.337  71.885  1.00  0.00    -0.431 A  
HETATM   10  C   UNL     1     -13.697  13.581  72.454  1.00  0.00    -0.704 A  
BRANCH   7  11
HETATM   11  C   UNL     1     -12.183  10.917  70.209  1.00  0.00    -0.348 C  
HETATM   12  O   UNL     1     -12.319  10.771  68.997  1.00  0.00    -0.422 OA 
BRANCH  11  13
HETATM   13  C   UNL     1     -11.645   9.767  70.996  1.00  0.00    -0.455 A  
HETATM   14  C   UNL     1     -10.276   9.481  70.878  1.00  0.00    -0.356 A  
HETATM   15  C   UNL     1      -9.698   8.444  71.612  1.00  0.00    -0.287 A  
HETATM   16  C   UNL     1     -10.485   7.680  72.469  1.00  0.00    -0.323 A  
HETATM   17  C   UNL     1     -11.854   7.932  72.570  1.00  0.00    -0.390 A  
HETATM   18  C   UNL     1     -12.438   8.962  71.824  1.00  0.00    -0.425 A  
ENDBRANCH  11  13
ENDBRANCH   7  11
ENDBRANCH   2   3
TORSDOF 3
ENDMDL
MODEL       14
REMARK 921   NORMALIZED FREE ENERGY PREDICTED BY IDOCK:   -6.04 KCAL/MOL
REMARK 922        TOTAL FREE ENERGY PREDICTED BY IDOCK:   -7.48 KCAL/MOL
REMARK 923 INTER-LIGAND FREE ENERGY PREDICTED BY IDOCK:   -7.31 KCAL/MOL
REMARK 924 INTRA-LIGAND FREE ENERGY PREDICTED BY IDOCK:   -0.17 KCAL/MOL
REMARK 927      BINDING AFFINITY PREDICTED BY RF-SCORE:    0.00 PKD
ROOT
HETATM    1  C   UNL     1      -9.263  10.370  65.063  1.00  0.00    -0.214 C  
HETATM    2  O   UNL     1     -10.619  10.802  65.188  1.00  0.00    -0.259 OA 
ENDROOT
BRANCH   2   3
HETATM    3  C   UNL     1     -10.794  12.158  65.164  1.00  0.00    -0.300 A  
HETATM    4  C   UNL     1     -11.780  12.813  64.427  1.00  0.00    -0.426 A  
HETATM    5  C   UNL     1     -11.834  14.210  64.419  1.00  0.00    -0.428 A  
HETATM    6  O   UNL     1     -12.777  14.811  63.631  1.00  0.00    -0.903 OA 
HETATM    7  C   UNL     1     -10.921  14.970  65.162  1.00  0.00    -0.417 A  
HETATM    8  H   UNL     1     -12.814  15.760  63.626  1.00  0.00     0.000 HD 
HETATM    9  C   UNL     1      -9.995  14.300  65.973  1.00  0.00    -0.337 A  
HETATM   10  C   UNL     1      -9.927  12.902  65.963  1.00  0.00    -0.275 A  
BRANCH   7  11
HETATM   11  C   UNL     1     -10.983  16.460  65.155  1.00  0.00    -0.232 C  
HETATM   12  O   UNL     1     -11.376  17.048  64.150  1.00  0.00    -1.164 OA 
BRANCH  11  13
HETATM   13  C   UNL     1     -10.655  17.279  66.361  1.00  0.00    -0.179 A  
HETATM   14  C   UNL     1     -10.449  18.655  66.177  1.00  0.00    -0.473 A  
HETATM   15  C   UNL     1     -10.174  19.487  67.263  1.00  0.00    -0.547 A  
HETATM   16  C   UNL     1     -10.100  18.950  68.545  1.00  0.00    -0.460 A  
HETATM   17  C   UNL     1     -10.270  17.578  68.738  1.00  0.00    -0.373 A  
HETATM   18  C   UNL     1     -10.530  16.740  67.648  1.00  0.00    -0.328 A  
ENDBRANCH  11  13
ENDBRANCH   7  11
ENDBRANCH   2   3
TORSDOF 3
ENDMDL
MODEL       15
REMARK 921   NORMALIZED FREE ENERGY PREDICTED BY IDOCK:   -6.01 KCAL/MOL
REMARK 922        TOTAL FREE ENERGY PREDICTED BY IDOCK:   -7.45 KCAL/MOL
REMARK 923 INTER-LIGAND FREE ENERGY PREDICTED BY IDOCK:   -6.78 KCAL/MOL
REMARK 924 INTRA-LIGAND FREE ENERGY PREDICTED BY IDOCK:   -0.66 KCAL/MOL
REMARK 927      BINDING AFFINITY PREDICTED BY RF-SCORE:    0.00 PKD
ROOT
HETATM    1  C   UNL     1     -12.653  11.859  63.472  1.00  0.00    -0.459 C  
HETATM    2  O   UNL     1     -13.092  12.407  64.715  1.00  0.00    -0.806 OA 
ENDROOT
BRANCH   2   3
HETATM    3  C   UNL     1     -12.442  13.547  65.102  1.00  0.00    -0.451 A  
HETATM    4  C   UNL     1     -12.250  14.662  64.286  1.00  0.00    -0.432 A  
HETATM    5  C   UNL     1     -11.514  15.753  64.756  1.00  0.00    -0.255 A  
HETATM    6  O   UNL     1     -11.296  16.796  63.899  1.00  0.00    -1.436 OA 
HETATM    7  C   UNL     1     -10.979  15.757  66.051  1.00  0.00    -0.177 A  
HETATM    8  H   UNL     1     -10.796  17.538  64.219  1.00  0.00     0.000 HD 
HETATM    9  C   UNL     1     -11.259  14.673  66.895  1.00  0.00    -0.345 A  
HETATM   10  C   UNL     1     -11.977  13.571  66.416  1.00  0.00    -0.459 A  
BRANCH   7  11
HETATM   11  C   UNL     1     -10.198  16.924  66.553  1.00  0.00    -0.318 C  
HETATM   12  O   UNL     1     -10.696  18.047  66.522  1.00  0.00    -0.280 OA 
BRANCH  11  13
HETATM   13  C   UNL     1      -8.844  16.776  67.168  1.00  0.00    -0.217 A  
HETATM   14  C   UNL     1      -8.776  16.625  68.561  1.00  0.00    -0.242 A  
HETATM   15  C   UNL     1      -7.548  16.446  69.199  1.00  0.00    -0.225 A  
HETATM   16  C   UNL     1      -6.375  16.417  68.450  1.00  0.00    -0.127 A  
HETATM   17  C   UNL     1      -6.427  16.599  67.066  1.00  0.00    -0.231 A  
HETATM   18  C   UNL     1      -7.655  16.794  66.427  1.00  0.00    -0.325 A  
ENDBRANCH  11  13
ENDBRANCH   7  11
ENDBRANCH   2   3
TORSDOF 3
ENDMDL
MODEL       16
REMARK 921   NORMALIZED FREE ENERGY PREDICTED BY IDOCK:   -5.99 KCAL/MOL
REMARK 922        TOTAL FREE ENERGY PREDICTED BY IDOCK:   -7.43 KCAL/MOL
REMARK 923 INTER-LIGAND FREE ENERGY PREDICTED BY IDOCK:   -6.78 KCAL/MOL
REMARK 924 INTRA-LIGAND FREE ENERGY PREDICTED BY IDOCK:   -0.65 KCAL/MOL
REMARK 927      BINDING AFFINITY PREDICTED BY RF-SCORE:    0.00 PKD
ROOT
HETATM    1  C   UNL     1     -10.608  17.792  65.580  1.00  0.00    -0.123 C  
HETATM    2  O   UNL     1     -10.952  16.869  64.547  1.00  0.00    -0.989 OA 
ENDROOT
BRANCH   2   3
HETATM    3  C   UNL     1     -11.014  15.560  64.942  1.00  0.00    -0.436 A  
HETATM    4  C   UNL     1     -12.066  14.695  64.645  1.00  0.00    -0.466 A  
HETATM    5  C   UNL     1     -12.064  13.393  65.153  1.00  0.00    -0.409 A  
HETATM    6  O   UNL     1     -13.147  12.600  64.890  1.00  0.00    -0.850 OA 
HETATM    7  C   UNL     1     -11.004  12.930  65.944  1.00  0.00    -0.300 A  
HETATM    8  H   UNL     1     -13.146  11.715  65.235  1.00  0.00     0.000 HD 
HETATM    9  C   UNL     1      -9.907  13.777  66.158  1.00  0.00    -0.310 A  
HETATM   10  C   UNL     1      -9.920  15.088  65.667  1.00  0.00    -0.387 A  
BRANCH   7  11
HETATM   11  C   UNL     1     -11.002  11.539  66.482  1.00  0.00    -0.293 C  
HETATM   12  O   UNL     1     -10.707  10.602  65.743  1.00  0.00    -0.149 OA 
BRANCH  11  13
HETATM   13  C   UNL     1     -11.275  11.236  67.919  1.00  0.00    -0.353 A  
HETATM   14  C   UNL     1     -10.948   9.955  68.388  1.00  0.00    -0.235 A  
HETATM   15  C   UNL     1     -11.143   9.615  69.728  1.00  0.00    -0.247 A  
HETATM   16  C   UNL     1     -11.669  10.553  70.611  1.00  0.00    -0.453 A  
HETATM   17  C   UNL     1     -12.030  11.820  70.150  1.00  0.00    -0.421 A  
HETATM   18  C   UNL     1     -11.850  12.158  68.804  1.00  0.00    -0.356 A  
ENDBRANCH  11  13
ENDBRANCH   7  11
ENDBRANCH   2   3
TORSDOF 3
ENDMDL
MODEL       17
REMARK 921   NORMALIZED FREE ENERGY PREDICTED BY IDOCK:   -5.99 KCAL/MOL
REMARK 922        TOTAL FREE ENERGY PREDICTED BY IDOCK:   -7.43 KCAL/MOL
REMARK 923 INTER-LIGAND FREE ENERGY PREDICTED BY IDOCK:   -6.76 KCAL/MOL
REMARK 924 INTRA-LIGAND FREE ENERGY PREDICTED BY IDOCK:   -0.67 KCAL/MOL
REMARK 927      BINDING AFFINITY PREDICTED BY RF-SCORE:    0.00 PKD
ROOT
HETATM    1  C   UNL     1     -10.094  19.297  68.199  1.00  0.00    -0.412 C  
HETATM    2  O   UNL     1      -9.504  18.005  68.350  1.00  0.00    -0.287 OA 
ENDROOT
BRANCH   2   3
HETATM    3  C   UNL     1     -10.172  16.992  67.718  1.00  0.00    -0.312 A  
HETATM    4  C   UNL     1     -11.078  16.135  68.341  1.00  0.00    -0.359 A  
HETATM    5  C   UNL     1     -11.658  15.088  67.620  1.00  0.00    -0.312 A  
HETATM    6  O   UNL     1     -12.492  14.233  68.288  1.00  0.00    -0.563 OA 
HETATM    7  C   UNL     1     -11.360  14.895  66.264  1.00  0.00    -0.306 A  
HETATM    8  H   UNL     1     -12.886  13.522  67.797  1.00  0.00     0.000 HD 
HETATM    9  C   UNL     1     -10.521  15.818  65.624  1.00  0.00    -0.402 A  
HETATM   10  C   UNL     1      -9.923  16.853  66.353  1.00  0.00    -0.321 A  
BRANCH   7  11
HETATM   11  C   UNL     1     -11.983  13.779  65.495  1.00  0.00    -0.384 C  
HETATM   12  O   UNL     1     -13.163  13.857  65.160  1.00  0.00    -0.768 OA 
BRANCH  11  13
HETATM   13  C   UNL     1     -11.205  12.586  65.044  1.00  0.00    -0.344 A  
HETATM   14  C   UNL     1     -10.836  11.644  66.017  1.00  0.00    -0.339 A  
HETATM   15  C   UNL     1     -10.140  10.488  65.662  1.00  0.00    -0.333 A  
HETATM   16  C   UNL     1      -9.804  10.263  64.330  1.00  0.00    -0.374 A  
HETATM   17  C   UNL     1     -10.135  11.209  63.358  1.00  0.00    -0.439 A  
HETATM   18  C   UNL     1     -10.820  12.375  63.714  1.00  0.00    -0.500 A  
ENDBRANCH  11  13
ENDBRANCH   7  11
ENDBRANCH   2   3
TORSDOF 3
ENDMDL
MODEL       18
REMARK 921   NORMALIZED FREE ENERGY PREDICTED BY IDOCK:   -5.92 KCAL/MOL
REMARK 922        TOTAL FREE ENERGY PREDICTED BY IDOCK:   -7.35 KCAL/MOL
REMARK 923 INTER-LIGAND FREE ENERGY PREDICTED BY IDOCK:   -6.67 KCAL/MOL
REMARK 924 INTRA-LIGAND FREE ENERGY PREDICTED BY IDOCK:   -0.68 KCAL/MOL
REMARK 927      BINDING AFFINITY PREDICTED BY RF-SCORE:    0.00 PKD
ROOT
HETATM    1  C   UNL     1     -13.144  15.744  73.576  1.00  0.00    -0.548 C  
HETATM    2  O   UNL     1     -13.889  15.008  72.606  1.00  0.00    -0.457 OA 
ENDROOT
BRANCH   2   3
HETATM    3  C   UNL     1     -13.152  14.531  71.556  1.00  0.00    -0.343 A  
HETATM    4  C   UNL     1     -12.771  13.199  71.401  1.00  0.00    -0.390 A  
HETATM    5  C   UNL     1     -11.961  12.825  70.325  1.00  0.00    -0.280 A  
HETATM    6  O   UNL     1     -11.558  11.521  70.249  1.00  0.00    -0.451 OA 
HETATM    7  C   UNL     1     -11.541  13.769  69.378  1.00  0.00    -0.365 A  
HETATM    8  H   UNL     1     -11.008  11.267  69.517  1.00  0.00     0.000 HD 
HETATM    9  C   UNL     1     -12.009  15.086  69.491  1.00  0.00    -0.346 A  
HETATM   10  C   UNL     1     -12.801  15.464  70.582  1.00  0.00    -0.484 A  
BRANCH   7  11
HETATM   11  C   UNL     1     -10.681  13.367  68.228  1.00  0.00    -0.258 C  
HETATM   12  O   UNL     1      -9.597  12.827  68.438  1.00  0.00    -0.220 OA 
BRANCH  11  13
HETATM   13  C   UNL     1     -11.118  13.528  66.808  1.00  0.00    -0.311 A  
HETATM   14  C   UNL     1     -11.706  12.420  66.178  1.00  0.00    -0.460 A  
HETATM   15  C   UNL     1     -12.170  12.509  64.866  1.00  0.00    -0.534 A  
HETATM   16  C   UNL     1     -12.050  13.708  64.168  1.00  0.00    -0.484 A  
HETATM   17  C   UNL     1     -11.437  14.808  64.771  1.00  0.00    -0.410 A  
HETATM   18  C   UNL     1     -10.957  14.715  66.082  1.00  0.00    -0.329 A  
ENDBRANCH  11  13
ENDBRANCH   7  11
ENDBRANCH   2   3
TORSDOF 3
ENDMDL
MODEL       19
REMARK 921   NORMALIZED FREE ENERGY PREDICTED BY IDOCK:   -5.92 KCAL/MOL
REMARK 922        TOTAL FREE ENERGY PREDICTED BY IDOCK:   -7.35 KCAL/MOL
REMARK 923 INTER-LIGAND FREE ENERGY PREDICTED BY IDOCK:   -6.67 KCAL/MOL
REMARK 924 INTRA-LIGAND FREE ENERGY PREDICTED BY IDOCK:   -0.68 KCAL/MOL
REMARK 927      BINDING AFFINITY PREDICTED BY RF-SCORE:    0.00 PKD
ROOT
HETATM    1  C   UNL     1      -7.889  10.129  63.383  1.00  0.00    -0.155 C  
HETATM    2  O   UNL     1      -9.291   9.941  63.192  1.00  0.00    -0.275 OA 
ENDROOT
BRANCH   2   3
HETATM    3  C   UNL     1     -10.084  10.878  63.796  1.00  0.00    -0.353 A  
HETATM    4  C   UNL     1     -10.815  11.851  63.114  1.00  0.00    -0.294 A  
HETATM    5  C   UNL     1     -11.544  12.805  63.830  1.00  0.00    -0.481 A  
HETATM    6  O   UNL     1     -12.194  13.779  63.122  1.00  0.00    -1.048 OA 
HETATM    7  C   UNL     1     -11.572  12.789  65.230  1.00  0.00    -0.379 A  
HETATM    8  H   UNL     1     -12.689  14.427  63.608  1.00  0.00     0.000 HD 
HETATM    9  C   UNL     1     -10.912  11.750  65.902  1.00  0.00    -0.354 A  
HETATM   10  C   UNL     1     -10.164  10.808  65.186  1.00  0.00    -0.365 A  
BRANCH   7  11
HETATM   11  C   UNL     1     -12.355  13.805  65.991  1.00  0.00    -0.457 C  
HETATM   12  O   UNL     1     -13.520  14.036  65.677  1.00  0.00    -0.604 OA 
BRANCH  11  13
HETATM   13  C   UNL     1     -11.799  14.513  67.184  1.00  0.00    -0.412 A  
HETATM   14  C   UNL     1     -12.102  13.991  68.451  1.00  0.00    -0.318 A  
HETATM   15  C   UNL     1     -11.588  14.580  69.607  1.00  0.00    -0.346 A  
HETATM   16  C   UNL     1     -10.766  15.699  69.507  1.00  0.00    -0.271 A  
HETATM   17  C   UNL     1     -10.484  16.249  68.255  1.00  0.00    -0.284 A  
HETATM   18  C   UNL     1     -11.011  15.669  67.096  1.00  0.00    -0.270 A  
ENDBRANCH  11  13
ENDBRANCH   7  11
ENDBRANCH   2   3
TORSDOF 3
ENDMDL
MODEL       20
REMARK 921   NORMALIZED FREE ENERGY PREDICTED BY IDOCK:   -5.91 KCAL/MOL
REMARK 922        TOTAL FREE ENERGY PREDICTED BY IDOCK:   -7.33 KCAL/MOL
REMARK 923 INTER-LIGAND FREE ENERGY PREDICTED BY IDOCK:   -6.73 KCAL/MOL
REMARK 924 INTRA-LIGAND FREE ENERGY PREDICTED BY IDOCK:   -0.61 KCAL/MOL
REMARK 927      BINDING AFFINITY PREDICTED BY RF-SCORE:    0.00 PKD
ROOT
HETATM    1  C   UNL     1     -10.703  17.818  65.352  1.00  0.00     0.086 C  
HETATM    2  O   UNL     1     -11.232  16.859  64.437  1.00  0.00    -1.159 OA 
ENDROOT
BRANCH   2   3
HETATM    3  C   UNL     1     -11.276  15.576  64.911  1.00  0.00    -0.389 A  
HETATM    4  C   UNL     1     -12.222  14.626  64.529  1.00  0.00    -0.473 A  
HETATM    5  C   UNL     1     -12.221  13.361  65.123  1.00  0.00    -0.434 A  
HETATM    6  O   UNL     1     -13.207  12.483  64.765  1.00  0.00    -0.839 OA 
HETATM    7  C   UNL     1     -11.263  13.019  66.087  1.00  0.00    -0.320 A  
HETATM    8  H   UNL     1     -13.206  11.623  65.168  1.00  0.00     0.000 HD 
HETATM    9  C   UNL     1     -10.259  13.948  66.393  1.00  0.00    -0.292 A  
HETATM   10  C   UNL     1     -10.275  15.223  65.815  1.00  0.00    -0.372 A  
BRANCH   7  11
HETATM   11  C   UNL     1     -11.260  11.666  66.715  1.00  0.00    -0.308 C  
HETATM   12  O   UNL     1     -12.034  11.423  67.638  1.00  0.00    -0.630 OA 
BRANCH  11  13
HETATM   13  C   UNL     1     -10.396  10.554  66.216  1.00  0.00    -0.276 A  
HETATM   14  C   UNL     1      -9.741  10.740  64.988  1.00  0.00    -0.323 A  
HETATM   15  C   UNL     1      -8.891   9.758  64.479  1.00  0.00    -0.248 A  
HETATM   16  C   UNL     1      -8.687   8.580  65.191  1.00  0.00    -0.156 A  
HETATM   17  C   UNL     1      -9.359   8.369  66.397  1.00  0.00    -0.274 A  
HETATM   18  C   UNL     1     -10.224   9.345  66.902  1.00  0.00    -0.318 A  
ENDBRANCH  11  13
ENDBRANCH   7  11
ENDBRANCH   2   3
TORSDOF 3
ENDMDL
MODEL       21
REMARK 921   NORMALIZED FREE ENERGY PREDICTED BY IDOCK:   -5.88 KCAL/MOL
REMARK 922        TOTAL FREE ENERGY PREDICTED BY IDOCK:   -7.30 KCAL/MOL
REMARK 923 INTER-LIGAND FREE ENERGY PREDICTED BY IDOCK:   -6.73 KCAL/MOL
REMARK 924 INTRA-LIGAND FREE ENERGY PREDICTED BY IDOCK:   -0.57 KCAL/MOL
REMARK 927      BINDING AFFINITY PREDICTED BY RF-SCORE:    0.00 PKD
ROOT
HETATM    1  C   UNL     1      -8.906  19.257  66.585  1.00  0.00    -0.334 C  
HETATM    2  O   UNL     1      -9.208  18.001  65.978  1.00  0.00    -0.508 OA 
ENDROOT
BRANCH   2   3
HETATM    3  C   UNL     1      -9.788  17.084  66.812  1.00  0.00    -0.278 A  
HETATM    4  C   UNL     1     -10.755  16.160  66.419  1.00  0.00    -0.211 A  
HETATM    5  C   UNL     1     -11.334  15.310  67.365  1.00  0.00    -0.284 A  
HETATM    6  O   UNL     1     -12.325  14.465  66.947  1.00  0.00    -0.558 OA 
HETATM    7  C   UNL     1     -10.940  15.353  68.709  1.00  0.00    -0.264 A  
HETATM    8  H   UNL     1     -12.718  13.886  67.590  1.00  0.00     0.000 HD 
HETATM    9  C   UNL     1      -9.900  16.219  69.075  1.00  0.00    -0.257 A  
HETATM   10  C   UNL     1      -9.337  17.086  68.132  1.00  0.00    -0.254 A  
BRANCH   7  11
HETATM   11  C   UNL     1     -11.555  14.441  69.716  1.00  0.00    -0.298 C  
HETATM   12  O   UNL     1     -11.458  13.224  69.574  1.00  0.00    -0.268 OA 
BRANCH  11  13
HETATM   13  C   UNL     1     -12.232  14.949  70.948  1.00  0.00    -0.389 A  
HETATM   14  C   UNL     1     -11.418  15.411  71.994  1.00  0.00    -0.521 A  
HETATM   15  C   UNL     1     -11.982  15.932  73.159  1.00  0.00    -0.572 A  
HETATM   16  C   UNL     1     -13.366  15.996  73.290  1.00  0.00    -0.625 A  
HETATM   17  C   UNL     1     -14.187  15.510  72.270  1.00  0.00    -0.617 A  
HETATM   18  C   UNL     1     -13.624  14.972  71.108  1.00  0.00    -0.493 A  
ENDBRANCH  11  13
ENDBRANCH   7  11
ENDBRANCH   2   3
TORSDOF 3
ENDMDL
MODEL       22
REMARK 921   NORMALIZED FREE ENERGY PREDICTED BY IDOCK:   -5.88 KCAL/MOL
REMARK 922        TOTAL FREE ENERGY PREDICTED BY IDOCK:   -7.29 KCAL/MOL
REMARK 923 INTER-LIGAND FREE ENERGY PREDICTED BY IDOCK:   -6.75 KCAL/MOL
REMARK 924 INTRA-LIGAND FREE ENERGY PREDICTED BY IDOCK:   -0.54 KCAL/MOL
REMARK 927      BINDING AFFINITY PREDICTED BY RF-SCORE:    0.00 PKD
ROOT
HETATM    1  C   UNL     1     -13.881  14.060  72.308  1.00  0.00    -0.557 C  
HETATM    2  O   UNL     1     -13.409  12.714  72.244  1.00  0.00    -0.533 OA 
ENDROOT
BRANCH   2   3
HETATM    3  C   UNL     1     -12.740  12.394  71.094  1.00  0.00    -0.240 A  
HETATM    4  C   UNL     1     -12.532  11.092  70.639  1.00  0.00    -0.448 A  
HETATM    5  C   UNL     1     -11.777  10.869  69.485  1.00  0.00    -0.328 A  
HETATM    6  O   UNL     1     -11.543   9.574  69.112  1.00  0.00    -0.436 OA 
HETATM    7  C   UNL     1     -11.241  11.939  68.756  1.00  0.00    -0.314 A  
HETATM    8  H   UNL     1     -11.030   9.422  68.327  1.00  0.00     0.000 HD 
HETATM    9  C   UNL     1     -11.537  13.246  69.169  1.00  0.00    -0.370 A  
HETATM   10  C   UNL     1     -12.273  13.468  70.338  1.00  0.00    -0.426 A  
BRANCH   7  11
HETATM   11  C   UNL     1     -10.440  11.698  67.521  1.00  0.00    -0.200 C  
HETATM   12  O   UNL     1      -9.313  11.215  67.611  1.00  0.00    -0.162 OA 
BRANCH  11  13
HETATM   13  C   UNL     1     -10.983  11.954  66.153  1.00  0.00    -0.352 A  
HETATM   14  C   UNL     1     -10.292  11.402  65.064  1.00  0.00    -0.342 A  
HETATM   15  C   UNL     1     -10.762  11.571  63.761  1.00  0.00    -0.474 A  
HETATM   16  C   UNL     1     -11.929  12.294  63.534  1.00  0.00    -0.625 A  
HETATM   17  C   UNL     1     -12.608  12.877  64.606  1.00  0.00    -0.459 A  
HETATM   18  C   UNL     1     -12.130  12.723  65.911  1.00  0.00    -0.485 A  
ENDBRANCH  11  13
ENDBRANCH   7  11
ENDBRANCH   2   3
TORSDOF 3
ENDMDL
MODEL       23
REMARK 921   NORMALIZED FREE ENERGY PREDICTED BY IDOCK:   -5.85 KCAL/MOL
REMARK 922        TOTAL FREE ENERGY PREDICTED BY IDOCK:   -7.26 KCAL/MOL
REMARK 923 INTER-LIGAND FREE ENERGY PREDICTED BY IDOCK:   -6.59 KCAL/MOL
REMARK 924 INTRA-LIGAND FREE ENERGY PREDICTED BY IDOCK:   -0.67 KCAL/MOL
REMARK 927      BINDING AFFINITY PREDICTED BY RF-SCORE:    0.00 PKD
ROOT
HETATM    1  C   UNL     1     -11.269   5.129  72.997  1.00  0.00    -0.322 C  
HETATM    2  O   UNL     1     -10.445   6.293  73.065  1.00  0.00    -0.204 OA 
ENDROOT
BRANCH   2   3
HETATM    3  C   UNL     1     -10.938   7.385  72.407  1.00  0.00    -0.275 A  
HETATM    4  C   UNL     1     -12.267   7.535  72.012  1.00  0.00    -0.314 A  
HETATM    5  C   UNL     1     -12.657   8.663  71.285  1.00  0.00    -0.235 A  
HETATM    6  O   UNL     1     -13.956   8.737  70.863  1.00  0.00    -0.581 OA 
HETATM    7  C   UNL     1     -11.733   9.667  70.962  1.00  0.00    -0.433 A  
HETATM    8  H   UNL     1     -14.220   9.504  70.369  1.00  0.00     0.000 HD 
HETATM    9  C   UNL     1     -10.422   9.552  71.446  1.00  0.00    -0.258 A  
HETATM   10  C   UNL     1     -10.028   8.411  72.155  1.00  0.00    -0.376 A  
BRANCH   7  11
HETATM   11  C   UNL     1     -12.152  10.872  70.191  1.00  0.00    -0.349 C  
HETATM   12  O   UNL     1     -12.269  10.803  68.969  1.00  0.00    -0.421 OA 
BRANCH  11  13
HETATM   13  C   UNL     1     -12.513  12.161  70.855  1.00  0.00    -0.374 A  
HETATM   14  C   UNL     1     -12.049  13.348  70.269  1.00  0.00    -0.419 A  
HETATM   15  C   UNL     1     -12.377  14.590  70.815  1.00  0.00    -0.410 A  
HETATM   16  C   UNL     1     -13.173  14.656  71.954  1.00  0.00    -0.436 A  
HETATM   17  C   UNL     1     -13.614  13.482  72.567  1.00  0.00    -0.674 A  
HETATM   18  C   UNL     1     -13.273  12.236  72.030  1.00  0.00    -0.508 A  
ENDBRANCH  11  13
ENDBRANCH   7  11
ENDBRANCH   2   3
TORSDOF 3
ENDMDL
MODEL       24
REMARK 921   NORMALIZED FREE ENERGY PREDICTED BY IDOCK:   -5.84 KCAL/MOL
REMARK 922        TOTAL FREE ENERGY PREDICTED BY IDOCK:   -7.25 KCAL/MOL
REMARK 923 INTER-LIGAND FREE ENERGY PREDICTED BY IDOCK:   -6.51 KCAL/MOL
REMARK 924 INTRA-LIGAND FREE ENERGY PREDICTED BY IDOCK:   -0.74 KCAL/MOL
REMARK 927      BINDING AFFINITY PREDICTED BY RF-SCORE:    0.00 PKD
ROOT
HETATM    1  C   UNL     1      -8.762  17.987  66.893  1.00  0.00    -0.251 C  
HETATM    2  O   UNL     1      -9.812  17.896  65.930  1.00  0.00    -0.529 OA 
ENDROOT
BRANCH   2   3
HETATM    3  C   UNL     1     -10.235  16.624  65.660  1.00  0.00    -0.262 A  
HETATM    4  C   UNL     1     -11.211  16.300  64.719  1.00  0.00    -0.267 A  
HETATM    5  C   UNL     1     -11.620  14.972  64.565  1.00  0.00    -0.343 A  
HETATM    6  O   UNL     1     -12.626  14.710  63.676  1.00  0.00    -1.017 OA 
HETATM    7  C   UNL     1     -11.045  13.949  65.330  1.00  0.00    -0.318 A  
HETATM    8  H   UNL     1     -12.904  13.807  63.572  1.00  0.00     0.000 HD 
HETATM    9  C   UNL     1      -9.998  14.272  66.204  1.00  0.00    -0.330 A  
HETATM   10  C   UNL     1      -9.605  15.605  66.374  1.00  0.00    -0.316 A  
BRANCH   7  11
HETATM   11  C   UNL     1     -11.479  12.532  65.160  1.00  0.00    -0.328 C  
HETATM   12  O   UNL     1     -12.642  12.219  65.404  1.00  0.00    -0.572 OA 
BRANCH  11  13
HETATM   13  C   UNL     1     -10.567  11.474  64.629  1.00  0.00    -0.369 A  
HETATM   14  C   UNL     1     -10.003  10.578  65.550  1.00  0.00    -0.342 A  
HETATM   15  C   UNL     1      -9.171   9.544  65.120  1.00  0.00    -0.305 A  
HETATM   16  C   UNL     1      -8.893   9.396  63.764  1.00  0.00    -0.201 A  
HETATM   17  C   UNL     1      -9.421  10.301  62.841  1.00  0.00    -0.333 A  
HETATM   18  C   UNL     1     -10.243  11.347  63.272  1.00  0.00    -0.430 A  
ENDBRANCH  11  13
ENDBRANCH   7  11
ENDBRANCH   2   3
TORSDOF 3
ENDMDL
MODEL       25
REMARK 921   NORMALIZED FREE ENERGY PREDICTED BY IDOCK:   -5.81 KCAL/MOL
REMARK 922        TOTAL FREE ENERGY PREDICTED BY IDOCK:   -7.22 KCAL/MOL
REMARK 923 INTER-LIGAND FREE ENERGY PREDICTED BY IDOCK:   -6.62 KCAL/MOL
REMARK 924 INTRA-LIGAND FREE ENERGY PREDICTED BY IDOCK:   -0.59 KCAL/MOL
REMARK 927      BINDING AFFINITY PREDICTED BY RF-SCORE:    0.00 PKD
ROOT
HETATM    1  C   UNL     1     -12.647  15.358  74.030  1.00  0.00    -0.598 C  
HETATM    2  O   UNL     1     -13.001  14.410  73.023  1.00  0.00    -0.500 OA 
ENDROOT
BRANCH   2   3
HETATM    3  C   UNL     1     -12.411  14.616  71.807  1.00  0.00    -0.346 A  
HETATM    4  C   UNL     1     -11.876  15.833  71.385  1.00  0.00    -0.503 A  
HETATM    5  C   UNL     1     -11.353  15.956  70.095  1.00  0.00    -0.365 A  
HETATM    6  O   UNL     1     -10.899  17.185  69.702  1.00  0.00    -0.384 OA 
HETATM    7  C   UNL     1     -11.335  14.864  69.218  1.00  0.00    -0.315 A  
HETATM    8  H   UNL     1     -10.543  17.269  68.825  1.00  0.00     0.000 HD 
HETATM    9  C   UNL     1     -11.787  13.621  69.685  1.00  0.00    -0.396 A  
HETATM   10  C   UNL     1     -12.332  13.504  70.968  1.00  0.00    -0.422 A  
BRANCH   7  11
HETATM   11  C   UNL     1     -10.771  14.996  67.843  1.00  0.00    -0.268 C  
HETATM   12  O   UNL     1      -9.951  15.880  67.604  1.00  0.00    -0.232 OA 
BRANCH  11  13
HETATM   13  C   UNL     1     -11.109  14.041  66.744  1.00  0.00    -0.311 A  
HETATM   14  C   UNL     1     -12.396  14.118  66.188  1.00  0.00    -0.463 A  
HETATM   15  C   UNL     1     -12.768  13.281  65.136  1.00  0.00    -0.464 A  
HETATM   16  C   UNL     1     -11.858  12.358  64.629  1.00  0.00    -0.445 A  
HETATM   17  C   UNL     1     -10.587  12.248  65.196  1.00  0.00    -0.320 A  
HETATM   18  C   UNL     1     -10.217  13.076  66.261  1.00  0.00    -0.291 A  
ENDBRANCH  11  13
ENDBRANCH   7  11
ENDBRANCH   2   3
TORSDOF 3
ENDMDL
MODEL       26
REMARK 921   NORMALIZED FREE ENERGY PREDICTED BY IDOCK:   -5.81 KCAL/MOL
REMARK 922        TOTAL FREE ENERGY PREDICTED BY IDOCK:   -7.22 KCAL/MOL
REMARK 923 INTER-LIGAND FREE ENERGY PREDICTED BY IDOCK:   -6.64 KCAL/MOL
REMARK 924 INTRA-LIGAND FREE ENERGY PREDICTED BY IDOCK:   -0.58 KCAL/MOL
REMARK 927      BINDING AFFINITY PREDICTED BY RF-SCORE:    0.00 PKD
ROOT
HETATM    1  C   UNL     1     -12.023  15.715  71.094  1.00  0.00    -0.409 C  
HETATM    2  O   UNL     1     -11.151  16.052  70.015  1.00  0.00    -0.310 OA 
ENDROOT
BRANCH   2   3
HETATM    3  C   UNL     1     -11.312  15.295  68.887  1.00  0.00    -0.305 A  
HETATM    4  C   UNL     1     -11.067  15.747  67.592  1.00  0.00    -0.283 A  
HETATM    5  C   UNL     1     -11.327  14.913  66.500  1.00  0.00    -0.319 A  
HETATM    6  O   UNL     1     -11.134  15.421  65.245  1.00  0.00    -0.358 OA 
HETATM    7  C   UNL     1     -11.812  13.612  66.687  1.00  0.00    -0.447 A  
HETATM    8  H   UNL     1     -11.310  14.854  64.503  1.00  0.00     0.000 HD 
HETATM    9  C   UNL     1     -11.964  13.135  67.997  1.00  0.00    -0.345 A  
HETATM   10  C   UNL     1     -11.725  13.978  69.089  1.00  0.00    -0.375 A  
BRANCH   7  11
HETATM   11  C   UNL     1     -12.084  12.722  65.522  1.00  0.00    -0.465 C  
HETATM   12  O   UNL     1     -13.137  12.839  64.899  1.00  0.00    -0.833 OA 
BRANCH  11  13
HETATM   13  C   UNL     1     -11.084  11.729  65.024  1.00  0.00    -0.343 A  
HETATM   14  C   UNL     1     -10.711  11.803  63.673  1.00  0.00    -0.503 A  
HETATM   15  C   UNL     1      -9.756  10.930  63.149  1.00  0.00    -0.396 A  
HETATM   16  C   UNL     1      -9.167   9.974  63.970  1.00  0.00    -0.318 A  
HETATM   17  C   UNL     1      -9.555   9.867  65.307  1.00  0.00    -0.361 A  
HETATM   18  C   UNL     1     -10.522  10.731  65.831  1.00  0.00    -0.270 A  
ENDBRANCH  11  13
ENDBRANCH   7  11
ENDBRANCH   2   3
TORSDOF 3
ENDMDL
MODEL       27
REMARK 921   NORMALIZED FREE ENERGY PREDICTED BY IDOCK:   -5.81 KCAL/MOL
REMARK 922        TOTAL FREE ENERGY PREDICTED BY IDOCK:   -7.21 KCAL/MOL
REMARK 923 INTER-LIGAND FREE ENERGY PREDICTED BY IDOCK:   -6.54 KCAL/MOL
REMARK 924 INTRA-LIGAND FREE ENERGY PREDICTED BY IDOCK:   -0.67 KCAL/MOL
REMARK 927      BINDING AFFINITY PREDICTED BY RF-SCORE:    0.00 PKD
ROOT
HETATM    1  C   UNL     1     -10.552   9.005  67.401  1.00  0.00    -0.239 C  
HETATM    2  O   UNL     1     -10.610  10.110  66.498  1.00  0.00    -0.189 OA 
ENDROOT
BRANCH   2   3
HETATM    3  C   UNL     1     -10.965  11.301  67.069  1.00  0.00    -0.294 A  
HETATM    4  C   UNL     1     -11.676  12.307  66.418  1.00  0.00    -0.431 A  
HETATM    5  C   UNL     1     -11.932  13.517  67.071  1.00  0.00    -0.394 A  
HETATM    6  O   UNL     1     -12.576  14.500  66.371  1.00  0.00    -0.442 OA 
HETATM    7  C   UNL     1     -11.502  13.729  68.388  1.00  0.00    -0.351 A  
HETATM    8  H   UNL     1     -12.750  15.321  66.815  1.00  0.00     0.000 HD 
HETATM    9  C   UNL     1     -10.871  12.676  69.065  1.00  0.00    -0.192 A  
HETATM   10  C   UNL     1     -10.596  11.474  68.403  1.00  0.00    -0.227 A  
BRANCH   7  11
HETATM   11  C   UNL     1     -11.780  15.018  69.084  1.00  0.00    -0.319 C  
HETATM   12  O   UNL     1     -11.681  16.076  68.468  1.00  0.00    -0.375 OA 
BRANCH  11  13
HETATM   13  C   UNL     1     -12.253  15.076  70.501  1.00  0.00    -0.391 A  
HETATM   14  C   UNL     1     -11.542  15.894  71.391  1.00  0.00    -0.529 A  
HETATM   15  C   UNL     1     -11.948  16.024  72.720  1.00  0.00    -0.623 A  
HETATM   16  C   UNL     1     -13.070  15.335  73.171  1.00  0.00    -0.627 A  
HETATM   17  C   UNL     1     -13.767  14.491  72.304  1.00  0.00    -0.559 A  
HETATM   18  C   UNL     1     -13.352  14.348  70.976  1.00  0.00    -0.359 A  
ENDBRANCH  11  13
ENDBRANCH   7  11
ENDBRANCH   2   3
TORSDOF 3
ENDMDL
MODEL       28
REMARK 921   NORMALIZED FREE ENERGY PREDICTED BY IDOCK:   -5.76 KCAL/MOL
REMARK 922        TOTAL FREE ENERGY PREDICTED BY IDOCK:   -7.16 KCAL/MOL
REMARK 923 INTER-LIGAND FREE ENERGY PREDICTED BY IDOCK:   -6.46 KCAL/MOL
REMARK 924 INTRA-LIGAND FREE ENERGY PREDICTED BY IDOCK:   -0.70 KCAL/MOL
REMARK 927      BINDING AFFINITY PREDICTED BY RF-SCORE:    0.00 PKD
ROOT
HETATM    1  C   UNL     1     -10.161  11.351  63.291  1.00  0.00    -0.385 C  
HETATM    2  O   UNL     1     -11.247  12.265  63.445  1.00  0.00    -0.438 OA 
ENDROOT
BRANCH   2   3
HETATM    3  C   UNL     1     -11.200  13.028  64.580  1.00  0.00    -0.326 A  
HETATM    4  C   UNL     1     -10.036  13.584  65.109  1.00  0.00    -0.278 A  
HETATM    5  C   UNL     1     -10.086  14.294  66.313  1.00  0.00    -0.298 A  
HETATM    6  O   UNL     1      -8.910  14.767  66.827  1.00  0.00    -0.246 OA 
HETATM    7  C   UNL     1     -11.298  14.476  66.991  1.00  0.00    -0.359 A  
HETATM    8  H   UNL     1      -8.944  15.249  67.645  1.00  0.00     0.000 HD 
HETATM    9  C   UNL     1     -12.476  13.994  66.402  1.00  0.00    -0.395 A  
HETATM   10  C   UNL     1     -12.422  13.265  65.209  1.00  0.00    -0.543 A  
BRANCH   7  11
HETATM   11  C   UNL     1     -11.350  15.238  68.273  1.00  0.00    -0.336 C  
HETATM   12  O   UNL     1     -10.952  16.400  68.306  1.00  0.00    -0.336 OA 
BRANCH  11  13
HETATM   13  C   UNL     1     -11.941  14.665  69.520  1.00  0.00    -0.361 A  
HETATM   14  C   UNL     1     -12.639  15.538  70.369  1.00  0.00    -0.421 A  
HETATM   15  C   UNL     1     -13.248  15.065  71.532  1.00  0.00    -0.484 A  
HETATM   16  C   UNL     1     -13.163  13.715  71.859  1.00  0.00    -0.497 A  
HETATM   17  C   UNL     1     -12.443  12.842  71.040  1.00  0.00    -0.374 A  
HETATM   18  C   UNL     1     -11.819  13.317  69.882  1.00  0.00    -0.380 A  
ENDBRANCH  11  13
ENDBRANCH   7  11
ENDBRANCH   2   3
TORSDOF 3
ENDMDL
MODEL       29
REMARK 921   NORMALIZED FREE ENERGY PREDICTED BY IDOCK:   -5.74 KCAL/MOL
REMARK 922        TOTAL FREE ENERGY PREDICTED BY IDOCK:   -7.13 KCAL/MOL
REMARK 923 INTER-LIGAND FREE ENERGY PREDICTED BY IDOCK:   -6.60 KCAL/MOL
REMARK 924 INTRA-LIGAND FREE ENERGY PREDICTED BY IDOCK:   -0.52 KCAL/MOL
REMARK 927      BINDING AFFINITY PREDICTED BY RF-SCORE:    0.00 PKD
ROOT
HETATM    1  C   UNL     1     -13.355   9.410  71.706  1.00  0.00    -0.415 C  
HETATM    2  O   UNL     1     -13.401  10.648  72.415  1.00  0.00    -0.283 OA 
ENDROOT
BRANCH   2   3
HETATM    3  C   UNL     1     -13.032  11.744  71.683  1.00  0.00    -0.362 A  
HETATM    4  C   UNL     1     -13.427  13.050  71.965  1.00  0.00    -0.584 A  
HETATM    5  C   UNL     1     -13.048  14.093  71.115  1.00  0.00    -0.328 A  
HETATM    6  O   UNL     1     -13.512  15.349  71.394  1.00  0.00    -0.469 OA 
HETATM    7  C   UNL     1     -12.253  13.850  69.987  1.00  0.00    -0.408 A  
HETATM    8  H   UNL     1     -13.255  16.058  70.816  1.00  0.00     0.000 HD 
HETATM    9  C   UNL     1     -11.783  12.548  69.766  1.00  0.00    -0.355 A  
HETATM   10  C   UNL     1     -12.181  11.501  70.605  1.00  0.00    -0.473 A  
BRANCH   7  11
HETATM   11  C   UNL     1     -11.846  14.965  69.084  1.00  0.00    -0.307 C  
HETATM   12  O   UNL     1     -11.640  16.083  69.552  1.00  0.00    -0.330 OA 
BRANCH  11  13
HETATM   13  C   UNL     1     -11.603  14.763  67.623  1.00  0.00    -0.374 A  
HETATM   14  C   UNL     1     -10.521  15.444  67.043  1.00  0.00    -0.295 A  
HETATM   15  C   UNL     1     -10.214  15.274  65.693  1.00  0.00    -0.398 A  
HETATM   16  C   UNL     1     -10.986  14.423  64.908  1.00  0.00    -0.416 A  
HETATM   17  C   UNL     1     -12.085  13.766  65.465  1.00  0.00    -0.434 A  
HETATM   18  C   UNL     1     -12.404  13.946  66.815  1.00  0.00    -0.370 A  
ENDBRANCH  11  13
ENDBRANCH   7  11
ENDBRANCH   2   3
TORSDOF 3
ENDMDL
MODEL       30
REMARK 921   NORMALIZED FREE ENERGY PREDICTED BY IDOCK:   -5.71 KCAL/MOL
REMARK 922        TOTAL FREE ENERGY PREDICTED BY IDOCK:   -7.09 KCAL/MOL
REMARK 923 INTER-LIGAND FREE ENERGY PREDICTED BY IDOCK:   -6.45 KCAL/MOL
REMARK 924 INTRA-LIGAND FREE ENERGY PREDICTED BY IDOCK:   -0.64 KCAL/MOL
REMARK 927      BINDING AFFINITY PREDICTED BY RF-SCORE:    0.00 PKD
ROOT
HETATM    1  C   UNL     1      -6.921  19.214  69.573  1.00  0.00    -0.173 C  
HETATM    2  O   UNL     1      -7.579  19.939  68.534  1.00  0.00    -0.316 OA 
ENDROOT
BRANCH   2   3
HETATM    3  C   UNL     1      -8.357  19.178  67.705  1.00  0.00    -0.290 A  
HETATM    4  C   UNL     1      -9.327  19.688  66.843  1.00  0.00    -0.445 A  
HETATM    5  C   UNL     1     -10.115  18.818  66.085  1.00  0.00    -0.384 A  
HETATM    6  O   UNL     1     -11.098  19.360  65.302  1.00  0.00    -0.394 OA 
HETATM    7  C   UNL     1      -9.930  17.431  66.157  1.00  0.00    -0.281 A  
HETATM    8  H   UNL     1     -11.633  18.768  64.787  1.00  0.00     0.000 HD 
HETATM    9  C   UNL     1      -8.889  16.934  66.954  1.00  0.00    -0.248 A  
HETATM   10  C   UNL     1      -8.116  17.804  67.731  1.00  0.00    -0.226 A  
BRANCH   7  11
HETATM   11  C   UNL     1     -10.769  16.504  65.343  1.00  0.00    -0.259 C  
HETATM   12  O   UNL     1     -11.249  16.893  64.281  1.00  0.00    -1.204 OA 
BRANCH  11  13
HETATM   13  C   UNL     1     -10.994  15.079  65.732  1.00  0.00    -0.351 A  
HETATM   14  C   UNL     1     -11.778  14.830  66.869  1.00  0.00    -0.316 A  
HETATM   15  C   UNL     1     -12.059  13.524  67.270  1.00  0.00    -0.367 A  
HETATM   16  C   UNL     1     -11.557  12.452  66.537  1.00  0.00    -0.447 A  
HETATM   17  C   UNL     1     -10.748  12.685  65.423  1.00  0.00    -0.308 A  
HETATM   18  C   UNL     1     -10.453  13.994  65.029  1.00  0.00    -0.440 A  
ENDBRANCH  11  13
ENDBRANCH   7  11
ENDBRANCH   2   3
TORSDOF 3
ENDMDL
MODEL       31
REMARK 921   NORMALIZED FREE ENERGY PREDICTED BY IDOCK:   -5.69 KCAL/MOL
REMARK 922        TOTAL FREE ENERGY PREDICTED BY IDOCK:   -7.07 KCAL/MOL
REMARK 923 INTER-LIGAND FREE ENERGY PREDICTED BY IDOCK:   -6.35 KCAL/MOL
REMARK 924 INTRA-LIGAND FREE ENERGY PREDICTED BY IDOCK:   -0.73 KCAL/MOL
REMARK 927      BINDING AFFINITY PREDICTED BY RF-SCORE:    0.00 PKD
ROOT
HETATM    1  C   UNL     1      -7.673   9.763  63.573  1.00  0.00    -0.132 C  
HETATM    2  O   UNL     1      -9.054   9.418  63.688  1.00  0.00    -0.193 OA 
ENDROOT
BRANCH   2   3
HETATM    3  C   UNL     1      -9.869  10.439  64.094  1.00  0.00    -0.313 A  
HETATM    4  C   UNL     1     -10.521  11.318  63.231  1.00  0.00    -0.370 A  
HETATM    5  C   UNL     1     -11.281  12.371  63.749  1.00  0.00    -0.453 A  
HETATM    6  O   UNL     1     -11.850  13.247  62.866  1.00  0.00    -0.742 OA 
HETATM    7  C   UNL     1     -11.420  12.546  65.133  1.00  0.00    -0.369 A  
HETATM    8  H   UNL     1     -12.366  13.962  63.219  1.00  0.00     0.000 HD 
HETATM    9  C   UNL     1     -10.839  11.600  65.989  1.00  0.00    -0.339 A  
HETATM   10  C   UNL     1     -10.059  10.560  65.470  1.00  0.00    -0.349 A  
BRANCH   7  11
HETATM   11  C   UNL     1     -12.235  13.667  65.683  1.00  0.00    -0.454 C  
HETATM   12  O   UNL     1     -13.376  13.851  65.266  1.00  0.00    -0.732 OA 
BRANCH  11  13
HETATM   13  C   UNL     1     -11.745  14.543  66.790  1.00  0.00    -0.393 A  
HETATM   14  C   UNL     1     -10.819  15.546  66.465  1.00  0.00    -0.284 A  
HETATM   15  C   UNL     1     -10.346  16.423  67.441  1.00  0.00    -0.295 A  
HETATM   16  C   UNL     1     -10.794  16.306  68.754  1.00  0.00    -0.317 A  
HETATM   17  C   UNL     1     -11.690  15.292  69.097  1.00  0.00    -0.355 A  
HETATM   18  C   UNL     1     -12.153  14.401  68.123  1.00  0.00    -0.258 A  
ENDBRANCH  11  13
ENDBRANCH   7  11
ENDBRANCH   2   3
TORSDOF 3
ENDMDL
MODEL       32
REMARK 921   NORMALIZED FREE ENERGY PREDICTED BY IDOCK:   -5.66 KCAL/MOL
REMARK 922        TOTAL FREE ENERGY PREDICTED BY IDOCK:   -7.04 KCAL/MOL
REMARK 923 INTER-LIGAND FREE ENERGY PREDICTED BY IDOCK:   -6.37 KCAL/MOL
REMARK 924 INTRA-LIGAND FREE ENERGY PREDICTED BY IDOCK:   -0.67 KCAL/MOL
REMARK 927      BINDING AFFINITY PREDICTED BY RF-SCORE:    0.00 PKD
ROOT
HETATM    1  C   UNL     1     -13.844   8.343  71.819  1.00  0.00    -0.408 C  
HETATM    2  O   UNL     1     -13.287   9.503  72.436  1.00  0.00    -0.446 OA 
ENDROOT
BRANCH   2   3
HETATM    3  C   UNL     1     -12.719  10.397  71.571  1.00  0.00    -0.459 A  
HETATM    4  C   UNL     1     -12.903  11.778  71.629  1.00  0.00    -0.433 A  
HETATM    5  C   UNL     1     -12.330  12.601  70.655  1.00  0.00    -0.290 A  
HETATM    6  O   UNL     1     -12.591  13.942  70.714  1.00  0.00    -0.334 OA 
HETATM    7  C   UNL     1     -11.547  12.061  69.626  1.00  0.00    -0.371 A  
HETATM    8  H   UNL     1     -12.201  14.501  70.053  1.00  0.00     0.000 HD 
HETATM    9  C   UNL     1     -11.290  10.683  69.632  1.00  0.00    -0.360 A  
HETATM   10  C   UNL     1     -11.883   9.857  70.594  1.00  0.00    -0.386 A  
BRANCH   7  11
HETATM   11  C   UNL     1     -10.932  12.942  68.591  1.00  0.00    -0.261 C  
HETATM   12  O   UNL     1     -10.027  13.711  68.907  1.00  0.00    -0.141 OA 
BRANCH  11  13
HETATM   13  C   UNL     1     -11.323  12.876  67.150  1.00  0.00    -0.352 A  
HETATM   14  C   UNL     1     -12.273  13.801  66.691  1.00  0.00    -0.454 A  
HETATM   15  C   UNL     1     -12.658  13.821  65.350  1.00  0.00    -0.534 A  
HETATM   16  C   UNL     1     -12.099  12.914  64.455  1.00  0.00    -0.474 A  
HETATM   17  C   UNL     1     -11.178  11.966  64.906  1.00  0.00    -0.350 A  
HETATM   18  C   UNL     1     -10.802  11.935  66.253  1.00  0.00    -0.323 A  
ENDBRANCH  11  13
ENDBRANCH   7  11
ENDBRANCH   2   3
TORSDOF 3
ENDMDL
MODEL       33
REMARK 921   NORMALIZED FREE ENERGY PREDICTED BY IDOCK:   -5.66 KCAL/MOL
REMARK 922        TOTAL FREE ENERGY PREDICTED BY IDOCK:   -7.04 KCAL/MOL
REMARK 923 INTER-LIGAND FREE ENERGY PREDICTED BY IDOCK:   -6.36 KCAL/MOL
REMARK 924 INTRA-LIGAND FREE ENERGY PREDICTED BY IDOCK:   -0.68 KCAL/MOL
REMARK 927      BINDING AFFINITY PREDICTED BY RF-SCORE:    0.00 PKD
ROOT
HETATM    1  C   UNL     1      -9.278  19.894  66.412  1.00  0.00    -0.380 C  
HETATM    2  O   UNL     1      -8.359  18.972  66.999  1.00  0.00    -0.265 OA 
ENDROOT
BRANCH   2   3
HETATM    3  C   UNL     1      -8.940  17.947  67.694  1.00  0.00    -0.250 A  
HETATM    4  C   UNL     1      -8.235  16.975  68.403  1.00  0.00    -0.250 A  
HETATM    5  C   UNL     1      -8.921  15.929  69.026  1.00  0.00    -0.245 A  
HETATM    6  O   UNL     1      -8.185  14.964  69.655  1.00  0.00    -0.405 OA 
HETATM    7  C   UNL     1     -10.319  15.851  68.970  1.00  0.00    -0.231 A  
HETATM    8  H   UNL     1      -8.651  14.253  70.079  1.00  0.00     0.000 HD 
HETATM    9  C   UNL     1     -11.023  16.884  68.336  1.00  0.00    -0.296 A  
HETATM   10  C   UNL     1     -10.334  17.919  67.693  1.00  0.00    -0.387 A  
BRANCH   7  11
HETATM   11  C   UNL     1     -11.050  14.737  69.640  1.00  0.00    -0.272 C  
HETATM   12  O   UNL     1     -11.000  13.605  69.165  1.00  0.00    -0.246 OA 
BRANCH  11  13
HETATM   13  C   UNL     1     -11.791  14.924  70.924  1.00  0.00    -0.375 A  
HETATM   14  C   UNL     1     -12.720  13.938  71.290  1.00  0.00    -0.444 A  
HETATM   15  C   UNL     1     -13.421  14.030  72.493  1.00  0.00    -0.661 A  
HETATM   16  C   UNL     1     -13.201  15.111  73.342  1.00  0.00    -0.488 A  
HETATM   17  C   UNL     1     -12.305  16.116  72.974  1.00  0.00    -0.625 A  
HETATM   18  C   UNL     1     -11.612  16.034  71.762  1.00  0.00    -0.534 A  
ENDBRANCH  11  13
ENDBRANCH   7  11
ENDBRANCH   2   3
TORSDOF 3
ENDMDL
MODEL       34
REMARK 921   NORMALIZED FREE ENERGY PREDICTED BY IDOCK:   -5.60 KCAL/MOL
REMARK 922        TOTAL FREE ENERGY PREDICTED BY IDOCK:   -6.97 KCAL/MOL
REMARK 923 INTER-LIGAND FREE ENERGY PREDICTED BY IDOCK:   -6.46 KCAL/MOL
REMARK 924 INTRA-LIGAND FREE ENERGY PREDICTED BY IDOCK:   -0.50 KCAL/MOL
REMARK 927      BINDING AFFINITY PREDICTED BY RF-SCORE:    0.00 PKD
ROOT
HETATM    1  C   UNL     1     -10.780  11.413  63.443  1.00  0.00    -0.332 C  
HETATM    2  O   UNL     1     -11.863  12.202  63.936  1.00  0.00    -0.399 OA 
ENDROOT
BRANCH   2   3
HETATM    3  C   UNL     1     -11.503  13.183  64.820  1.00  0.00    -0.323 A  
HETATM    4  C   UNL     1     -10.209  13.683  64.960  1.00  0.00    -0.356 A  
HETATM    5  C   UNL     1      -9.932  14.640  65.940  1.00  0.00    -0.328 A  
HETATM    6  O   UNL     1      -8.636  15.054  66.085  1.00  0.00    -0.429 OA 
HETATM    7  C   UNL     1     -10.945  15.128  66.776  1.00  0.00    -0.321 A  
HETATM    8  H   UNL     1      -8.449  15.705  66.751  1.00  0.00     0.000 HD 
HETATM    9  C   UNL     1     -12.260  14.690  66.563  1.00  0.00    -0.154 A  
HETATM   10  C   UNL     1     -12.532  13.714  65.597  1.00  0.00    -0.540 A  
BRANCH   7  11
HETATM   11  C   UNL     1     -10.649  16.154  67.818  1.00  0.00    -0.309 C  
HETATM   12  O   UNL     1     -10.473  15.804  68.983  1.00  0.00    -0.204 OA 
BRANCH  11  13
HETATM   13  C   UNL     1     -10.480  17.602  67.489  1.00  0.00    -0.365 A  
HETATM   14  C   UNL     1     -10.178  18.477  68.543  1.00  0.00    -0.389 A  
HETATM   15  C   UNL     1      -9.972  19.837  68.304  1.00  0.00    -0.557 A  
HETATM   16  C   UNL     1     -10.068  20.334  67.008  1.00  0.00    -0.567 A  
HETATM   17  C   UNL     1     -10.401  19.480  65.955  1.00  0.00    -0.604 A  
HETATM   18  C   UNL     1     -10.623  18.120  66.195  1.00  0.00    -0.289 A  
ENDBRANCH  11  13
ENDBRANCH   7  11
ENDBRANCH   2   3
TORSDOF 3
ENDMDL
MODEL       35
REMARK 921   NORMALIZED FREE ENERGY PREDICTED BY IDOCK:   -5.57 KCAL/MOL
REMARK 922        TOTAL FREE ENERGY PREDICTED BY IDOCK:   -6.93 KCAL/MOL
REMARK 923 INTER-LIGAND FREE ENERGY PREDICTED BY IDOCK:   -6.22 KCAL/MOL
REMARK 924 INTRA-LIGAND FREE ENERGY PREDICTED BY IDOCK:   -0.70 KCAL/MOL
REMARK 927      BINDING AFFINITY PREDICTED BY RF-SCORE:    0.00 PKD
ROOT
HETATM    1  C   UNL     1     -11.385  14.597  67.600  1.00  0.00    -0.336 C  
HETATM    2  O   UNL     1     -11.703  14.772  68.981  1.00  0.00    -0.286 OA 
ENDROOT
BRANCH   2   3
HETATM    3  C   UNL     1     -12.025  13.620  69.646  1.00  0.00    -0.343 A  
HETATM    4  C   UNL     1     -12.643  13.577  70.895  1.00  0.00    -0.414 A  
HETATM    5  C   UNL     1     -12.870  12.348  71.520  1.00  0.00    -0.274 A  
HETATM    6  O   UNL     1     -13.419  12.357  72.773  1.00  0.00    -0.547 OA 
HETATM    7  C   UNL     1     -12.507  11.146  70.898  1.00  0.00    -0.509 A  
HETATM    8  H   UNL     1     -13.574  11.521  73.197  1.00  0.00     0.000 HD 
HETATM    9  C   UNL     1     -11.974  11.196  69.602  1.00  0.00    -0.429 A  
HETATM   10  C   UNL     1     -11.726  12.429  68.987  1.00  0.00    -0.372 A  
BRANCH   7  11
HETATM   11  C   UNL     1     -12.755   9.835  71.564  1.00  0.00    -0.406 C  
HETATM   12  O   UNL     1     -13.843   9.616  72.090  1.00  0.00    -0.366 OA 
BRANCH  11  13
HETATM   13  C   UNL     1     -11.748   8.730  71.556  1.00  0.00    -0.377 A  
HETATM   14  C   UNL     1     -12.197   7.443  71.224  1.00  0.00    -0.374 A  
HETATM   15  C   UNL     1     -11.306   6.371  71.162  1.00  0.00    -0.376 A  
HETATM   16  C   UNL     1      -9.956   6.576  71.432  1.00  0.00    -0.202 A  
HETATM   17  C   UNL     1      -9.502   7.845  71.795  1.00  0.00    -0.205 A  
HETATM   18  C   UNL     1     -10.396   8.918  71.873  1.00  0.00    -0.407 A  
ENDBRANCH  11  13
ENDBRANCH   7  11
ENDBRANCH   2   3
TORSDOF 3
ENDMDL
MODEL       36
REMARK 921   NORMALIZED FREE ENERGY PREDICTED BY IDOCK:   -5.54 KCAL/MOL
REMARK 922        TOTAL FREE ENERGY PREDICTED BY IDOCK:   -6.89 KCAL/MOL
REMARK 923 INTER-LIGAND FREE ENERGY PREDICTED BY IDOCK:   -6.16 KCAL/MOL
REMARK 924 INTRA-LIGAND FREE ENERGY PREDICTED BY IDOCK:   -0.73 KCAL/MOL
REMARK 927      BINDING AFFINITY PREDICTED BY RF-SCORE:    0.00 PKD
ROOT
HETATM    1  C   UNL     1     -13.609  13.430  72.181  1.00  0.00    -0.567 C  
HETATM    2  O   UNL     1     -12.766  12.722  71.272  1.00  0.00    -0.368 OA 
ENDROOT
BRANCH   2   3
HETATM    3  C   UNL     1     -12.266  13.476  70.246  1.00  0.00    -0.347 A  
HETATM    4  C   UNL     1     -11.655  12.953  69.107  1.00  0.00    -0.375 A  
HETATM    5  C   UNL     1     -11.117  13.813  68.146  1.00  0.00    -0.259 A  
HETATM    6  O   UNL     1     -10.470  13.256  67.077  1.00  0.00    -0.247 OA 
HETATM    7  C   UNL     1     -11.200  15.203  68.296  1.00  0.00    -0.315 A  
HETATM    8  H   UNL     1     -10.104  13.840  66.424  1.00  0.00     0.000 HD 
HETATM    9  C   UNL     1     -11.900  15.718  69.397  1.00  0.00    -0.361 A  
HETATM   10  C   UNL     1     -12.419  14.856  70.371  1.00  0.00    -0.403 A  
BRANCH   7  11
HETATM   11  C   UNL     1     -10.630  16.119  67.267  1.00  0.00    -0.305 C  
HETATM   12  O   UNL     1     -10.721  15.828  66.076  1.00  0.00    -0.323 OA 
BRANCH  11  13
HETATM   13  C   UNL     1     -10.007  17.431  67.620  1.00  0.00    -0.300 A  
HETATM   14  C   UNL     1      -8.730  17.410  68.200  1.00  0.00    -0.256 A  
HETATM   15  C   UNL     1      -8.074  18.599  68.523  1.00  0.00    -0.370 A  
HETATM   16  C   UNL     1      -8.690  19.821  68.270  1.00  0.00    -0.323 A  
HETATM   17  C   UNL     1      -9.975  19.855  67.724  1.00  0.00    -0.552 A  
HETATM   18  C   UNL     1     -10.640  18.664  67.414  1.00  0.00    -0.490 A  
ENDBRANCH  11  13
ENDBRANCH   7  11
ENDBRANCH   2   3
TORSDOF 3
ENDMDL
MODEL       37
REMARK 921   NORMALIZED FREE ENERGY PREDICTED BY IDOCK:   -5.52 KCAL/MOL
REMARK 922        TOTAL FREE ENERGY PREDICTED BY IDOCK:   -6.88 KCAL/MOL
REMARK 923 INTER-LIGAND FREE ENERGY PREDICTED BY IDOCK:   -6.13 KCAL/MOL
REMARK 924 INTRA-LIGAND FREE ENERGY PREDICTED BY IDOCK:   -0.75 KCAL/MOL
REMARK 927      BINDING AFFINITY PREDICTED BY RF-SCORE:    0.00 PKD
ROOT
HETATM    1  C   UNL     1     -10.020  19.509  68.424  1.00  0.00    -0.443 C  
HETATM    2  O   UNL     1      -9.812  19.207  67.044  1.00  0.00    -0.311 OA 
ENDROOT
BRANCH   2   3
HETATM    3  C   UNL     1     -10.329  18.009  66.634  1.00  0.00    -0.371 A  
HETATM    4  C   UNL     1     -10.748  17.734  65.333  1.00  0.00     0.085 A  
HETATM    5  C   UNL     1     -11.324  16.497  65.031  1.00  0.00     0.038 A  
HETATM    6  O   UNL     1     -11.779  16.295  63.757  1.00  0.00    -1.511 OA 
HETATM    7  C   UNL     1     -11.469  15.511  66.016  1.00  0.00     0.090 A  
HETATM    8  H   UNL     1     -12.171  15.454  63.553  1.00  0.00     0.000 HD 
HETATM    9  C   UNL     1     -10.959  15.763  67.297  1.00  0.00    -0.259 A  
HETATM   10  C   UNL     1     -10.402  17.010  67.604  1.00  0.00    -0.332 A  
BRANCH   7  11
HETATM   11  C   UNL     1     -12.080  14.190  65.691  1.00  0.00    -0.415 C  
HETATM   12  O   UNL     1     -13.139  14.146  65.068  1.00  0.00    -0.728 OA 
BRANCH  11  13
HETATM   13  C   UNL     1     -11.414  12.895  66.030  1.00  0.00    -0.384 A  
HETATM   14  C   UNL     1     -10.378  12.457  65.191  1.00  0.00    -0.313 A  
HETATM   15  C   UNL     1      -9.688  11.276  65.467  1.00  0.00    -0.268 A  
HETATM   16  C   UNL     1     -10.028  10.521  66.585  1.00  0.00    -0.260 A  
HETATM   17  C   UNL     1     -11.079  10.928  67.409  1.00  0.00    -0.373 A  
HETATM   18  C   UNL     1     -11.782  12.103  67.125  1.00  0.00    -0.372 A  
ENDBRANCH  11  13
ENDBRANCH   7  11
ENDBRANCH   2   3
TORSDOF 3
ENDMDL
MODEL       38
REMARK 921   NORMALIZED FREE ENERGY PREDICTED BY IDOCK:   -5.51 KCAL/MOL
REMARK 922        TOTAL FREE ENERGY PREDICTED BY IDOCK:   -6.86 KCAL/MOL
REMARK 923 INTER-LIGAND FREE ENERGY PREDICTED BY IDOCK:   -6.20 KCAL/MOL
REMARK 924 INTRA-LIGAND FREE ENERGY PREDICTED BY IDOCK:   -0.67 KCAL/MOL
REMARK 927      BINDING AFFINITY PREDICTED BY RF-SCORE:    0.00 PKD
ROOT
HETATM    1  C   UNL     1      -9.936  20.082  66.729  1.00  0.00    -0.454 C  
HETATM    2  O   UNL     1      -9.141  19.043  67.301  1.00  0.00    -0.279 OA 
ENDROOT
BRANCH   2   3
HETATM    3  C   UNL     1      -9.711  17.799  67.270  1.00  0.00    -0.285 A  
HETATM    4  C   UNL     1     -10.784  17.404  68.066  1.00  0.00    -0.359 A  
HETATM    5  C   UNL     1     -11.251  16.088  68.005  1.00  0.00    -0.303 A  
HETATM    6  O   UNL     1     -12.263  15.726  68.851  1.00  0.00    -0.581 OA 
HETATM    7  C   UNL     1     -10.671  15.157  67.133  1.00  0.00    -0.310 A  
HETATM    8  H   UNL     1     -12.581  14.832  68.810  1.00  0.00     0.000 HD 
HETATM    9  C   UNL     1      -9.656  15.591  66.269  1.00  0.00    -0.338 A  
HETATM   10  C   UNL     1      -9.173  16.903  66.347  1.00  0.00    -0.308 A  
BRANCH   7  11
HETATM   11  C   UNL     1     -11.174  13.755  67.066  1.00  0.00    -0.311 C  
HETATM   12  O   UNL     1     -11.540  13.190  68.094  1.00  0.00    -0.296 OA 
BRANCH  11  13
HETATM   13  C   UNL     1     -11.324  13.020  65.773  1.00  0.00    -0.331 A  
HETATM   14  C   UNL     1     -10.307  12.124  65.412  1.00  0.00    -0.301 A  
HETATM   15  C   UNL     1     -10.398  11.377  64.237  1.00  0.00    -0.383 A  
HETATM   16  C   UNL     1     -11.508  11.522  63.409  1.00  0.00    -0.274 A  
HETATM   17  C   UNL     1     -12.511  12.435  63.740  1.00  0.00    -0.593 A  
HETATM   18  C   UNL     1     -12.414  13.195  64.910  1.00  0.00    -0.490 A  
ENDBRANCH  11  13
ENDBRANCH   7  11
ENDBRANCH   2   3
TORSDOF 3
ENDMDL
MODEL       39
REMARK 921   NORMALIZED FREE ENERGY PREDICTED BY IDOCK:   -5.49 KCAL/MOL
REMARK 922        TOTAL FREE ENERGY PREDICTED BY IDOCK:   -6.83 KCAL/MOL
REMARK 923 INTER-LIGAND FREE ENERGY PREDICTED BY IDOCK:   -6.33 KCAL/MOL
REMARK 924 INTRA-LIGAND FREE ENERGY PREDICTED BY IDOCK:   -0.51 KCAL/MOL
REMARK 927      BINDING AFFINITY PREDICTED BY RF-SCORE:    0.00 PKD
ROOT
HETATM    1  C   UNL     1     -11.689  14.393  65.898  1.00  0.00    -0.369 C  
HETATM    2  O   UNL     1     -10.803  14.332  67.016  1.00  0.00    -0.290 OA 
ENDROOT
BRANCH   2   3
HETATM    3  C   UNL     1     -11.324  13.734  68.131  1.00  0.00    -0.284 A  
HETATM    4  C   UNL     1     -11.629  14.403  69.315  1.00  0.00    -0.345 A  
HETATM    5  C   UNL     1     -12.097  13.687  70.421  1.00  0.00    -0.351 A  
HETATM    6  O   UNL     1     -12.321  14.374  71.582  1.00  0.00    -0.344 OA 
HETATM    7  C   UNL     1     -12.289  12.300  70.352  1.00  0.00    -0.309 A  
HETATM    8  H   UNL     1     -12.639  13.887  72.333  1.00  0.00     0.000 HD 
HETATM    9  C   UNL     1     -12.070  11.653  69.128  1.00  0.00    -0.315 A  
HETATM   10  C   UNL     1     -11.580  12.367  68.028  1.00  0.00    -0.403 A  
BRANCH   7  11
HETATM   11  C   UNL     1     -12.793  11.539  71.532  1.00  0.00    -0.380 C  
HETATM   12  O   UNL     1     -13.348  12.138  72.450  1.00  0.00    -0.427 OA 
BRANCH  11  13
HETATM   13  C   UNL     1     -12.719  10.049  71.613  1.00  0.00    -0.535 A  
HETATM   14  C   UNL     1     -13.929   9.337  71.630  1.00  0.00    -0.299 A  
HETATM   15  C   UNL     1     -13.934   7.942  71.669  1.00  0.00    -0.482 A  
HETATM   16  C   UNL     1     -12.730   7.245  71.691  1.00  0.00    -0.410 A  
HETATM   17  C   UNL     1     -11.520   7.942  71.708  1.00  0.00    -0.313 A  
HETATM   18  C   UNL     1     -11.513   9.340  71.685  1.00  0.00    -0.468 A  
ENDBRANCH  11  13
ENDBRANCH   7  11
ENDBRANCH   2   3
TORSDOF 3
ENDMDL
MODEL       40
REMARK 921   NORMALIZED FREE ENERGY PREDICTED BY IDOCK:   -5.48 KCAL/MOL
REMARK 922        TOTAL FREE ENERGY PREDICTED BY IDOCK:   -6.83 KCAL/MOL
REMARK 923 INTER-LIGAND FREE ENERGY PREDICTED BY IDOCK:   -6.22 KCAL/MOL
REMARK 924 INTRA-LIGAND FREE ENERGY PREDICTED BY IDOCK:   -0.61 KCAL/MOL
REMARK 927      BINDING AFFINITY PREDICTED BY RF-SCORE:    0.00 PKD
ROOT
HETATM    1  C   UNL     1      -9.670   4.415  71.433  1.00  0.00    -0.178 C  
HETATM    2  O   UNL     1      -9.404   5.702  70.875  1.00  0.00    -0.155 OA 
ENDROOT
BRANCH   2   3
HETATM    3  C   UNL     1     -10.349   6.653  71.149  1.00  0.00    -0.206 A  
HETATM    4  C   UNL     1     -11.709   6.516  70.872  1.00  0.00    -0.416 A  
HETATM    5  C   UNL     1     -12.584   7.575  71.130  1.00  0.00    -0.260 A  
HETATM    6  O   UNL     1     -13.898   7.420  70.783  1.00  0.00    -0.577 OA 
HETATM    7  C   UNL     1     -12.120   8.773  71.689  1.00  0.00    -0.401 A  
HETATM    8  H   UNL     1     -14.493   8.139  70.959  1.00  0.00     0.000 HD 
HETATM    9  C   UNL     1     -10.768   8.864  72.051  1.00  0.00    -0.389 A  
HETATM   10  C   UNL     1      -9.889   7.813  71.771  1.00  0.00    -0.210 A  
BRANCH   7  11
HETATM   11  C   UNL     1     -13.056   9.899  71.969  1.00  0.00    -0.448 C  
HETATM   12  O   UNL     1     -14.048   9.707  72.668  1.00  0.00    -0.247 OA 
BRANCH  11  13
HETATM   13  C   UNL     1     -12.799  11.291  71.489  1.00  0.00    -0.519 A  
HETATM   14  C   UNL     1     -12.096  11.445  70.284  1.00  0.00    -0.459 A  
HETATM   15  C   UNL     1     -11.852  12.714  69.758  1.00  0.00    -0.379 A  
HETATM   16  C   UNL     1     -12.306  13.843  70.433  1.00  0.00    -0.433 A  
HETATM   17  C   UNL     1     -12.977  13.705  71.650  1.00  0.00    -0.448 A  
HETATM   18  C   UNL     1     -13.210  12.435  72.186  1.00  0.00    -0.491 A  
ENDBRANCH  11  13
ENDBRANCH   7  11
ENDBRANCH   2   3
TORSDOF 3
ENDMDL
MODEL       41
REMARK 921   NORMALIZED FREE ENERGY PREDICTED BY IDOCK:   -5.48 KCAL/MOL
REMARK 922        TOTAL FREE ENERGY PREDICTED BY IDOCK:   -6.82 KCAL/MOL
REMARK 923 INTER-LIGAND FREE ENERGY PREDICTED BY IDOCK:   -6.14 KCAL/MOL
REMARK 924 INTRA-LIGAND FREE ENERGY PREDICTED BY IDOCK:   -0.68 KCAL/MOL
REMARK 927      BINDING AFFINITY PREDICTED BY RF-SCORE:    0.00 PKD
ROOT
HETATM    1  C   UNL     1     -11.068   5.115  73.195  1.00  0.00    -0.326 C  
HETATM    2  O   UNL     1     -10.506   5.832  72.095  1.00  0.00    -0.199 OA 
ENDROOT
BRANCH   2   3
HETATM    3  C   UNL     1     -11.045   7.071  71.882  1.00  0.00    -0.242 A  
HETATM    4  C   UNL     1     -12.409   7.325  71.749  1.00  0.00    -0.375 A  
HETATM    5  C   UNL     1     -12.854   8.620  71.466  1.00  0.00    -0.319 A  
HETATM    6  O   UNL     1     -14.195   8.811  71.280  1.00  0.00    -0.549 OA 
HETATM    7  C   UNL     1     -11.947   9.680  71.336  1.00  0.00    -0.480 A  
HETATM    8  H   UNL     1     -14.497   9.691  71.088  1.00  0.00     0.000 HD 
HETATM    9  C   UNL     1     -10.587   9.431  71.565  1.00  0.00    -0.331 A  
HETATM   10  C   UNL     1     -10.140   8.131  71.826  1.00  0.00    -0.267 A  
BRANCH   7  11
HETATM   11  C   UNL     1     -12.424  11.062  71.039  1.00  0.00    -0.409 C  
HETATM   12  O   UNL     1     -13.101  11.663  71.870  1.00  0.00    -0.478 OA 
BRANCH  11  13
HETATM   13  C   UNL     1     -12.047  11.787  69.787  1.00  0.00    -0.338 A  
HETATM   14  C   UNL     1     -12.076  13.190  69.814  1.00  0.00    -0.336 A  
HETATM   15  C   UNL     1     -11.702  13.931  68.693  1.00  0.00    -0.396 A  
HETATM   16  C   UNL     1     -11.297  13.277  67.533  1.00  0.00    -0.329 A  
HETATM   17  C   UNL     1     -11.296  11.882  67.483  1.00  0.00    -0.381 A  
HETATM   18  C   UNL     1     -11.685  11.137  68.601  1.00  0.00    -0.389 A  
ENDBRANCH  11  13
ENDBRANCH   7  11
ENDBRANCH   2   3
TORSDOF 3
ENDMDL
MODEL       42
REMARK 921   NORMALIZED FREE ENERGY PREDICTED BY IDOCK:   -5.46 KCAL/MOL
REMARK 922        TOTAL FREE ENERGY PREDICTED BY IDOCK:   -6.80 KCAL/MOL
REMARK 923 INTER-LIGAND FREE ENERGY PREDICTED BY IDOCK:   -6.33 KCAL/MOL
REMARK 924 INTRA-LIGAND FREE ENERGY PREDICTED BY IDOCK:   -0.47 KCAL/MOL
REMARK 927      BINDING AFFINITY PREDICTED BY RF-SCORE:    0.00 PKD
ROOT
HETATM    1  C   UNL     1      -8.904  10.222  62.439  1.00  0.00    -0.244 C  
HETATM    2  O   UNL     1      -9.395  11.547  62.641  1.00  0.00    -0.341 OA 
ENDROOT
BRANCH   2   3
HETATM    3  C   UNL     1     -10.055  11.741  63.824  1.00  0.00    -0.391 A  
HETATM    4  C   UNL     1     -11.305  12.347  63.940  1.00  0.00    -0.502 A  
HETATM    5  C   UNL     1     -11.864  12.557  65.204  1.00  0.00    -0.405 A  
HETATM    6  O   UNL     1     -13.063  13.213  65.273  1.00  0.00    -0.678 OA 
HETATM    7  C   UNL     1     -11.196  12.146  66.365  1.00  0.00    -0.380 A  
HETATM    8  H   UNL     1     -13.443  13.356  66.132  1.00  0.00     0.000 HD 
HETATM    9  C   UNL     1      -9.984  11.454  66.231  1.00  0.00    -0.259 A  
HETATM   10  C   UNL     1      -9.414  11.264  64.967  1.00  0.00    -0.237 A  
BRANCH   7  11
HETATM   11  C   UNL     1     -11.797  12.368  67.712  1.00  0.00    -0.298 C  
HETATM   12  O   UNL     1     -12.366  11.441  68.283  1.00  0.00    -0.506 OA 
BRANCH  11  13
HETATM   13  C   UNL     1     -11.671  13.667  68.440  1.00  0.00    -0.393 A  
HETATM   14  C   UNL     1     -11.071  14.738  67.760  1.00  0.00    -0.306 A  
HETATM   15  C   UNL     1     -10.953  15.990  68.366  1.00  0.00    -0.331 A  
HETATM   16  C   UNL     1     -11.432  16.182  69.659  1.00  0.00    -0.290 A  
HETATM   17  C   UNL     1     -12.000  15.115  70.358  1.00  0.00    -0.364 A  
HETATM   18  C   UNL     1     -12.105  13.856  69.758  1.00  0.00    -0.404 A  
ENDBRANCH  11  13
ENDBRANCH   7  11
ENDBRANCH   2   3
TORSDOF 3
ENDMDL
MODEL       43
REMARK 921   NORMALIZED FREE ENERGY PREDICTED BY IDOCK:   -5.45 KCAL/MOL
REMARK 922        TOTAL FREE ENERGY PREDICTED BY IDOCK:   -6.79 KCAL/MOL
REMARK 923 INTER-LIGAND FREE ENERGY PREDICTED BY IDOCK:   -6.28 KCAL/MOL
REMARK 924 INTRA-LIGAND FREE ENERGY PREDICTED BY IDOCK:   -0.51 KCAL/MOL
REMARK 927      BINDING AFFINITY PREDICTED BY RF-SCORE:    0.00 PKD
ROOT
HETATM    1  C   UNL     1     -11.120   6.440  72.650  1.00  0.00    -0.261 C  
HETATM    2  O   UNL     1     -11.390   7.774  73.080  1.00  0.00    -0.399 OA 
ENDROOT
BRANCH   2   3
HETATM    3  C   UNL     1     -11.443   8.702  72.076  1.00  0.00    -0.367 A  
HETATM    4  C   UNL     1     -10.364   9.047  71.263  1.00  0.00    -0.383 A  
HETATM    5  C   UNL     1     -10.505  10.057  70.307  1.00  0.00    -0.272 A  
HETATM    6  O   UNL     1      -9.403  10.407  69.577  1.00  0.00    -0.311 OA 
HETATM    7  C   UNL     1     -11.728  10.718  70.133  1.00  0.00    -0.425 A  
HETATM    8  H   UNL     1      -9.499  11.094  68.927  1.00  0.00     0.000 HD 
HETATM    9  C   UNL     1     -12.832  10.297  70.889  1.00  0.00    -0.463 A  
HETATM   10  C   UNL     1     -12.684   9.302  71.862  1.00  0.00    -0.474 A  
BRANCH   7  11
HETATM   11  C   UNL     1     -11.878  11.792  69.108  1.00  0.00    -0.326 C  
HETATM   12  O   UNL     1     -12.246  11.502  67.972  1.00  0.00    -0.582 OA 
BRANCH  11  13
HETATM   13  C   UNL     1     -11.668  13.237  69.428  1.00  0.00    -0.383 A  
HETATM   14  C   UNL     1     -12.589  13.853  70.289  1.00  0.00    -0.328 A  
HETATM   15  C   UNL     1     -12.435  15.190  70.659  1.00  0.00    -0.442 A  
HETATM   16  C   UNL     1     -11.358  15.924  70.170  1.00  0.00    -0.369 A  
HETATM   17  C   UNL     1     -10.454  15.332  69.286  1.00  0.00    -0.258 A  
HETATM   18  C   UNL     1     -10.616  13.997  68.902  1.00  0.00    -0.241 A  
ENDBRANCH  11  13
ENDBRANCH   7  11
ENDBRANCH   2   3
TORSDOF 3
ENDMDL
MODEL       44
REMARK 921   NORMALIZED FREE ENERGY PREDICTED BY IDOCK:   -5.43 KCAL/MOL
REMARK 922        TOTAL FREE ENERGY PREDICTED BY IDOCK:   -6.77 KCAL/MOL
REMARK 923 INTER-LIGAND FREE ENERGY PREDICTED BY IDOCK:   -6.08 KCAL/MOL
REMARK 924 INTRA-LIGAND FREE ENERGY PREDICTED BY IDOCK:   -0.69 KCAL/MOL
REMARK 927      BINDING AFFINITY PREDICTED BY RF-SCORE:    0.00 PKD
ROOT
HETATM    1  C   UNL     1     -13.532   9.282  72.267  1.00  0.00    -0.482 C  
HETATM    2  O   UNL     1     -12.112   9.256  72.118  1.00  0.00    -0.354 OA 
ENDROOT
BRANCH   2   3
HETATM    3  C   UNL     1     -11.636   9.937  71.031  1.00  0.00    -0.389 A  
HETATM    4  C   UNL     1     -10.480   9.596  70.331  1.00  0.00    -0.352 A  
HETATM    5  C   UNL     1     -10.042  10.397  69.273  1.00  0.00    -0.230 A  
HETATM    6  O   UNL     1      -8.868  10.061  68.657  1.00  0.00    -0.123 OA 
HETATM    7  C   UNL     1     -10.764  11.533  68.883  1.00  0.00    -0.245 A  
HETATM    8  H   UNL     1      -8.571  10.605  67.937  1.00  0.00     0.000 HD 
HETATM    9  C   UNL     1     -11.976  11.812  69.531  1.00  0.00    -0.364 A  
HETATM   10  C   UNL     1     -12.401  11.023  70.606  1.00  0.00    -0.480 A  
BRANCH   7  11
HETATM   11  C   UNL     1     -10.298  12.383  67.750  1.00  0.00    -0.216 C  
HETATM   12  O   UNL     1      -9.349  13.146  67.911  1.00  0.00    -0.199 OA 
BRANCH  11  13
HETATM   13  C   UNL     1     -10.898  12.293  66.384  1.00  0.00    -0.299 A  
HETATM   14  C   UNL     1     -10.249  11.483  65.440  1.00  0.00    -0.311 A  
HETATM   15  C   UNL     1     -10.772  11.324  64.156  1.00  0.00    -0.436 A  
HETATM   16  C   UNL     1     -11.950  11.976  63.803  1.00  0.00    -0.588 A  
HETATM   17  C   UNL     1     -12.587  12.812  64.721  1.00  0.00    -0.518 A  
HETATM   18  C   UNL     1     -12.056  12.984  66.004  1.00  0.00    -0.493 A  
ENDBRANCH  11  13
ENDBRANCH   7  11
ENDBRANCH   2   3
TORSDOF 3
ENDMDL
MODEL       45
REMARK 921   NORMALIZED FREE ENERGY PREDICTED BY IDOCK:   -5.43 KCAL/MOL
REMARK 922        TOTAL FREE ENERGY PREDICTED BY IDOCK:   -6.76 KCAL/MOL
REMARK 923 INTER-LIGAND FREE ENERGY PREDICTED BY IDOCK:   -6.21 KCAL/MOL
REMARK 924 INTRA-LIGAND FREE ENERGY PREDICTED BY IDOCK:   -0.55 KCAL/MOL
REMARK 927      BINDING AFFINITY PREDICTED BY RF-SCORE:    0.00 PKD
ROOT
HETATM    1  C   UNL     1      -9.682   8.340  67.841  1.00  0.00    -0.161 C  
HETATM    2  O   UNL     1     -10.619   8.702  68.856  1.00  0.00    -0.209 OA 
ENDROOT
BRANCH   2   3
HETATM    3  C   UNL     1     -10.946  10.030  68.889  1.00  0.00    -0.207 A  
HETATM    4  C   UNL     1     -10.593  10.954  67.907  1.00  0.00    -0.246 A  
HETATM    5  C   UNL     1     -10.920  12.303  68.067  1.00  0.00    -0.225 A  
HETATM    6  O   UNL     1     -10.497  13.184  67.110  1.00  0.00    -0.245 OA 
HETATM    7  C   UNL     1     -11.623  12.744  69.196  1.00  0.00    -0.373 A  
HETATM    8  H   UNL     1     -10.720  14.101  67.219  1.00  0.00     0.000 HD 
HETATM    9  C   UNL     1     -12.056  11.793  70.131  1.00  0.00    -0.398 A  
HETATM   10  C   UNL     1     -11.709  10.445  69.980  1.00  0.00    -0.366 A  
BRANCH   7  11
HETATM   11  C   UNL     1     -11.976  14.184  69.363  1.00  0.00    -0.337 C  
HETATM   12  O   UNL     1     -11.994  14.923  68.382  1.00  0.00    -0.299 OA 
BRANCH  11  13
HETATM   13  C   UNL     1     -12.386  14.759  70.680  1.00  0.00    -0.401 A  
HETATM   14  C   UNL     1     -13.758  14.807  70.971  1.00  0.00    -0.322 A  
HETATM   15  C   UNL     1     -14.210  15.298  72.196  1.00  0.00    -0.667 A  
HETATM   16  C   UNL     1     -13.295  15.749  73.142  1.00  0.00    -0.685 A  
HETATM   17  C   UNL     1     -11.929  15.739  72.852  1.00  0.00    -0.599 A  
HETATM   18  C   UNL     1     -11.474  15.261  71.618  1.00  0.00    -0.471 A  
ENDBRANCH  11  13
ENDBRANCH   7  11
ENDBRANCH   2   3
TORSDOF 3
ENDMDL
MODEL       46
REMARK 921   NORMALIZED FREE ENERGY PREDICTED BY IDOCK:   -5.37 KCAL/MOL
REMARK 922        TOTAL FREE ENERGY PREDICTED BY IDOCK:   -6.69 KCAL/MOL
REMARK 923 INTER-LIGAND FREE ENERGY PREDICTED BY IDOCK:   -6.12 KCAL/MOL
REMARK 924 INTRA-LIGAND FREE ENERGY PREDICTED BY IDOCK:   -0.57 KCAL/MOL
REMARK 927      BINDING AFFINITY PREDICTED BY RF-SCORE:    0.00 PKD
ROOT
HETATM    1  C   UNL     1     -12.764  15.409  73.396  1.00  0.00    -0.533 C  
HETATM    2  O   UNL     1     -11.904  16.110  72.497  1.00  0.00    -0.494 OA 
ENDROOT
BRANCH   2   3
HETATM    3  C   UNL     1     -11.793  15.549  71.254  1.00  0.00    -0.399 A  
HETATM    4  C   UNL     1     -11.305  16.214  70.130  1.00  0.00    -0.347 A  
HETATM    5  C   UNL     1     -11.294  15.571  68.888  1.00  0.00    -0.324 A  
HETATM    6  O   UNL     1     -10.867  16.284  67.801  1.00  0.00    -0.328 OA 
HETATM    7  C   UNL     1     -11.746  14.252  68.757  1.00  0.00    -0.378 A  
HETATM    8  H   UNL     1     -10.859  15.847  66.958  1.00  0.00     0.000 HD 
HETATM    9  C   UNL     1     -12.145  13.562  69.910  1.00  0.00    -0.408 A  
HETATM   10  C   UNL     1     -12.178  14.213  71.148  1.00  0.00    -0.435 A  
BRANCH   7  11
HETATM   11  C   UNL     1     -11.729  13.566  67.432  1.00  0.00    -0.380 C  
HETATM   12  O   UNL     1     -12.348  14.052  66.488  1.00  0.00    -0.457 OA 
BRANCH  11  13
HETATM   13  C   UNL     1     -10.919  12.336  67.179  1.00  0.00    -0.308 A  
HETATM   14  C   UNL     1     -11.412  11.119  67.676  1.00  0.00    -0.328 A  
HETATM   15  C   UNL     1     -10.726   9.926  67.446  1.00  0.00    -0.323 A  
HETATM   16  C   UNL     1      -9.540   9.938  66.718  1.00  0.00    -0.231 A  
HETATM   17  C   UNL     1      -9.022  11.146  66.247  1.00  0.00    -0.202 A  
HETATM   18  C   UNL     1      -9.700  12.345  66.490  1.00  0.00    -0.245 A  
ENDBRANCH  11  13
ENDBRANCH   7  11
ENDBRANCH   2   3
TORSDOF 3
ENDMDL
MODEL       47
REMARK 921   NORMALIZED FREE ENERGY PREDICTED BY IDOCK:   -5.35 KCAL/MOL
REMARK 922        TOTAL FREE ENERGY PREDICTED BY IDOCK:   -6.68 KCAL/MOL
REMARK 923 INTER-LIGAND FREE ENERGY PREDICTED BY IDOCK:   -5.93 KCAL/MOL
REMARK 924 INTRA-LIGAND FREE ENERGY PREDICTED BY IDOCK:   -0.75 KCAL/MOL
REMARK 927      BINDING AFFINITY PREDICTED BY RF-SCORE:    0.00 PKD
ROOT
HETATM    1  C   UNL     1     -12.351  12.017  63.616  1.00  0.00    -0.539 C  
HETATM    2  O   UNL     1     -13.052  12.665  64.677  1.00  0.00    -0.821 OA 
ENDROOT
BRANCH   2   3
HETATM    3  C   UNL     1     -12.333  13.621  65.341  1.00  0.00    -0.476 A  
HETATM    4  C   UNL     1     -12.281  13.748  66.728  1.00  0.00    -0.440 A  
HETATM    5  C   UNL     1     -11.568  14.802  67.307  1.00  0.00    -0.369 A  
HETATM    6  O   UNL     1     -11.598  14.924  68.669  1.00  0.00    -0.290 OA 
HETATM    7  C   UNL     1     -10.882  15.729  66.512  1.00  0.00    -0.230 A  
HETATM    8  H   UNL     1     -11.113  15.641  69.062  1.00  0.00     0.000 HD 
HETATM    9  C   UNL     1     -10.863  15.537  65.123  1.00  0.00    -0.452 A  
HETATM   10  C   UNL     1     -11.595  14.495  64.543  1.00  0.00    -0.385 A  
BRANCH   7  11
HETATM   11  C   UNL     1     -10.118  16.851  67.132  1.00  0.00    -0.287 C  
HETATM   12  O   UNL     1     -10.723  17.756  67.701  1.00  0.00    -0.386 OA 
BRANCH  11  13
HETATM   13  C   UNL     1      -8.624  16.884  67.155  1.00  0.00    -0.217 A  
HETATM   14  C   UNL     1      -7.949  15.668  67.341  1.00  0.00    -0.204 A  
HETATM   15  C   UNL     1      -6.554  15.620  67.338  1.00  0.00    -0.194 A  
HETATM   16  C   UNL     1      -5.821  16.788  67.150  1.00  0.00    -0.206 A  
HETATM   17  C   UNL     1      -6.480  18.009  66.998  1.00  0.00    -0.198 A  
HETATM   18  C   UNL     1      -7.878  18.062  67.016  1.00  0.00    -0.236 A  
ENDBRANCH  11  13
ENDBRANCH   7  11
ENDBRANCH   2   3
TORSDOF 3
ENDMDL
MODEL       48
REMARK 921   NORMALIZED FREE ENERGY PREDICTED BY IDOCK:   -5.35 KCAL/MOL
REMARK 922        TOTAL FREE ENERGY PREDICTED BY IDOCK:   -6.67 KCAL/MOL
REMARK 923 INTER-LIGAND FREE ENERGY PREDICTED BY IDOCK:   -6.15 KCAL/MOL
REMARK 924 INTRA-LIGAND FREE ENERGY PREDICTED BY IDOCK:   -0.52 KCAL/MOL
REMARK 927      BINDING AFFINITY PREDICTED BY RF-SCORE:    0.00 PKD
ROOT
HETATM    1  C   UNL     1     -13.652   9.315  72.325  1.00  0.00    -0.480 C  
HETATM    2  O   UNL     1     -13.189  10.664  72.257  1.00  0.00    -0.400 OA 
ENDROOT
BRANCH   2   3
HETATM    3  C   UNL     1     -12.512  10.982  71.111  1.00  0.00    -0.397 A  
HETATM    4  C   UNL     1     -11.876  10.054  70.287  1.00  0.00    -0.291 A  
HETATM    5  C   UNL     1     -11.154  10.489  69.172  1.00  0.00    -0.250 A  
HETATM    6  O   UNL     1     -10.493   9.549  68.430  1.00  0.00    -0.208 OA 
HETATM    7  C   UNL     1     -11.077  11.850  68.851  1.00  0.00    -0.299 A  
HETATM    8  H   UNL     1     -10.003   9.845  67.672  1.00  0.00     0.000 HD 
HETATM    9  C   UNL     1     -11.798  12.765  69.631  1.00  0.00    -0.384 A  
HETATM   10  C   UNL     1     -12.502  12.331  70.761  1.00  0.00    -0.356 A  
BRANCH   7  11
HETATM   11  C   UNL     1     -10.310  12.312  67.658  1.00  0.00    -0.204 C  
HETATM   12  O   UNL     1      -9.199  12.815  67.806  1.00  0.00    -0.183 OA 
BRANCH  11  13
HETATM   13  C   UNL     1     -10.810  12.119  66.263  1.00  0.00    -0.317 A  
HETATM   14  C   UNL     1     -12.022  12.735  65.915  1.00  0.00    -0.506 A  
HETATM   15  C   UNL     1     -12.530  12.627  64.620  1.00  0.00    -0.538 A  
HETATM   16  C   UNL     1     -11.831  11.901  63.660  1.00  0.00    -0.573 A  
HETATM   17  C   UNL     1     -10.642  11.255  64.002  1.00  0.00    -0.450 A  
HETATM   18  C   UNL     1     -10.138  11.349  65.304  1.00  0.00    -0.315 A  
ENDBRANCH  11  13
ENDBRANCH   7  11
ENDBRANCH   2   3
TORSDOF 3
ENDMDL
MODEL       49
REMARK 921   NORMALIZED FREE ENERGY PREDICTED BY IDOCK:   -5.33 KCAL/MOL
REMARK 922        TOTAL FREE ENERGY PREDICTED BY IDOCK:   -6.65 KCAL/MOL
REMARK 923 INTER-LIGAND FREE ENERGY PREDICTED BY IDOCK:   -6.07 KCAL/MOL
REMARK 924 INTRA-LIGAND FREE ENERGY PREDICTED BY IDOCK:   -0.59 KCAL/MOL
REMARK 927      BINDING AFFINITY PREDICTED BY RF-SCORE:    0.00 PKD
ROOT
HETATM    1  C   UNL     1     -12.114  11.906  63.705  1.00  0.00    -0.443 C  
HETATM    2  O   UNL     1     -12.549  12.395  64.974  1.00  0.00    -0.601 OA 
ENDROOT
BRANCH   2   3
HETATM    3  C   UNL     1     -11.646  13.193  65.623  1.00  0.00    -0.338 A  
HETATM    4  C   UNL     1     -11.249  13.020  66.948  1.00  0.00    -0.331 A  
HETATM    5  C   UNL     1     -10.369  13.932  67.538  1.00  0.00    -0.245 A  
HETATM    6  O   UNL     1     -10.058  13.760  68.858  1.00  0.00    -0.373 OA 
HETATM    7  C   UNL     1      -9.856  15.012  66.808  1.00  0.00    -0.252 A  
HETATM    8  H   UNL     1      -9.459  14.379  69.259  1.00  0.00     0.000 HD 
HETATM    9  C   UNL     1     -10.186  15.122  65.450  1.00  0.00    -0.402 A  
HETATM   10  C   UNL     1     -11.086  14.222  64.866  1.00  0.00    -0.396 A  
BRANCH   7  11
HETATM   11  C   UNL     1      -8.912  15.981  67.438  1.00  0.00    -0.191 C  
HETATM   12  O   UNL     1      -7.795  15.604  67.785  1.00  0.00    -0.130 OA 
BRANCH  11  13
HETATM   13  C   UNL     1      -9.244  17.429  67.601  1.00  0.00    -0.234 A  
HETATM   14  C   UNL     1      -8.238  18.276  68.091  1.00  0.00    -0.295 A  
HETATM   15  C   UNL     1      -8.467  19.645  68.235  1.00  0.00    -0.355 A  
HETATM   16  C   UNL     1      -9.704  20.180  67.892  1.00  0.00    -0.499 A  
HETATM   17  C   UNL     1     -10.725  19.344  67.436  1.00  0.00    -0.594 A  
HETATM   18  C   UNL     1     -10.502  17.969  67.305  1.00  0.00    -0.390 A  
ENDBRANCH  11  13
ENDBRANCH   7  11
ENDBRANCH   2   3
TORSDOF 3
ENDMDL
MODEL       50
REMARK 921   NORMALIZED FREE ENERGY PREDICTED BY IDOCK:   -5.33 KCAL/MOL
REMARK 922        TOTAL FREE ENERGY PREDICTED BY IDOCK:   -6.65 KCAL/MOL
REMARK 923 INTER-LIGAND FREE ENERGY PREDICTED BY IDOCK:   -5.92 KCAL/MOL
REMARK 924 INTRA-LIGAND FREE ENERGY PREDICTED BY IDOCK:   -0.73 KCAL/MOL
REMARK 927      BINDING AFFINITY PREDICTED BY RF-SCORE:    0.00 PKD
ROOT
HETATM    1  C   UNL     1     -12.164  14.082  64.035  1.00  0.00    -0.355 C  
HETATM    2  O   UNL     1     -11.501  14.712  65.132  1.00  0.00    -0.349 OA 
ENDROOT
BRANCH   2   3
HETATM    3  C   UNL     1     -11.178  13.876  66.165  1.00  0.00    -0.303 A  
HETATM    4  C   UNL     1     -10.224  14.160  67.142  1.00  0.00    -0.258 A  
HETATM    5  C   UNL     1      -9.920  13.209  68.119  1.00  0.00    -0.234 A  
HETATM    6  O   UNL     1      -8.932  13.506  69.018  1.00  0.00    -0.372 OA 
HETATM    7  C   UNL     1     -10.579  11.972  68.150  1.00  0.00    -0.233 A  
HETATM    8  H   UNL     1      -8.726  12.859  69.683  1.00  0.00     0.000 HD 
HETATM    9  C   UNL     1     -11.602  11.735  67.222  1.00  0.00    -0.344 A  
HETATM   10  C   UNL     1     -11.890  12.678  66.229  1.00  0.00    -0.471 A  
BRANCH   7  11
HETATM   11  C   UNL     1     -10.256  10.960  69.197  1.00  0.00    -0.195 C  
HETATM   12  O   UNL     1      -9.104  10.547  69.310  1.00  0.00    -0.189 OA 
BRANCH  11  13
HETATM   13  C   UNL     1     -11.273  10.474  70.179  1.00  0.00    -0.389 A  
HETATM   14  C   UNL     1     -12.159  11.418  70.720  1.00  0.00    -0.433 A  
HETATM   15  C   UNL     1     -13.156  11.029  71.615  1.00  0.00    -0.543 A  
HETATM   16  C   UNL     1     -13.276   9.691  71.979  1.00  0.00    -0.546 A  
HETATM   17  C   UNL     1     -12.380   8.747  71.475  1.00  0.00    -0.380 A  
HETATM   18  C   UNL     1     -11.370   9.138  70.589  1.00  0.00    -0.323 A  
ENDBRANCH  11  13
ENDBRANCH   7  11
ENDBRANCH   2   3
TORSDOF 3
ENDMDL
MODEL       51
REMARK 921   NORMALIZED FREE ENERGY PREDICTED BY IDOCK:   -5.32 KCAL/MOL
REMARK 922        TOTAL FREE ENERGY PREDICTED BY IDOCK:   -6.64 KCAL/MOL
REMARK 923 INTER-LIGAND FREE ENERGY PREDICTED BY IDOCK:   -6.23 KCAL/MOL
REMARK 924 INTRA-LIGAND FREE ENERGY PREDICTED BY IDOCK:   -0.41 KCAL/MOL
REMARK 927      BINDING AFFINITY PREDICTED BY RF-SCORE:    0.00 PKD
ROOT
HETATM    1  C   UNL     1     -11.254   8.290  71.558  1.00  0.00    -0.262 C  
HETATM    2  O   UNL     1     -12.538   8.908  71.644  1.00  0.00    -0.315 OA 
ENDROOT
BRANCH   2   3
HETATM    3  C   UNL     1     -12.542  10.258  71.422  1.00  0.00    -0.434 A  
HETATM    4  C   UNL     1     -13.248  11.181  72.192  1.00  0.00    -0.297 A  
HETATM    5  C   UNL     1     -13.239  12.534  71.842  1.00  0.00    -0.392 A  
HETATM    6  O   UNL     1     -13.998  13.395  72.586  1.00  0.00    -0.755 OA 
HETATM    7  C   UNL     1     -12.509  12.986  70.735  1.00  0.00    -0.384 A  
HETATM    8  H   UNL     1     -13.991  14.314  72.348  1.00  0.00     0.000 HD 
HETATM    9  C   UNL     1     -11.727  12.064  70.025  1.00  0.00    -0.346 A  
HETATM   10  C   UNL     1     -11.754  10.706  70.363  1.00  0.00    -0.446 A  
BRANCH   7  11
HETATM   11  C   UNL     1     -12.496  14.432  70.365  1.00  0.00    -0.357 C  
HETATM   12  O   UNL     1     -13.247  15.214  70.944  1.00  0.00    -0.425 OA 
BRANCH  11  13
HETATM   13  C   UNL     1     -11.544  14.992  69.359  1.00  0.00    -0.337 A  
HETATM   14  C   UNL     1     -10.466  15.753  69.836  1.00  0.00    -0.324 A  
HETATM   15  C   UNL     1      -9.519  16.277  68.956  1.00  0.00    -0.258 A  
HETATM   16  C   UNL     1      -9.641  16.045  67.589  1.00  0.00    -0.218 A  
HETATM   17  C   UNL     1     -10.727  15.318  67.098  1.00  0.00    -0.316 A  
HETATM   18  C   UNL     1     -11.686  14.805  67.978  1.00  0.00    -0.360 A  
ENDBRANCH  11  13
ENDBRANCH   7  11
ENDBRANCH   2   3
TORSDOF 3
ENDMDL
MODEL       52
REMARK 921   NORMALIZED FREE ENERGY PREDICTED BY IDOCK:   -5.30 KCAL/MOL
REMARK 922        TOTAL FREE ENERGY PREDICTED BY IDOCK:   -6.61 KCAL/MOL
REMARK 923 INTER-LIGAND FREE ENERGY PREDICTED BY IDOCK:   -6.13 KCAL/MOL
REMARK 924 INTRA-LIGAND FREE ENERGY PREDICTED BY IDOCK:   -0.49 KCAL/MOL
REMARK 927      BINDING AFFINITY PREDICTED BY RF-SCORE:    0.00 PKD
ROOT
HETATM    1  C   UNL     1      -9.751   7.446  73.726  1.00  0.00    -0.280 C  
HETATM    2  O   UNL     1      -9.693   7.305  72.307  1.00  0.00    -0.149 OA 
ENDROOT
BRANCH   2   3
HETATM    3  C   UNL     1     -10.281   8.320  71.603  1.00  0.00    -0.221 A  
HETATM    4  C   UNL     1     -11.647   8.600  71.616  1.00  0.00    -0.379 A  
HETATM    5  C   UNL     1     -12.158   9.621  70.809  1.00  0.00    -0.248 A  
HETATM    6  O   UNL     1     -13.511   9.818  70.805  1.00  0.00    -0.600 OA 
HETATM    7  C   UNL     1     -11.312  10.388  69.997  1.00  0.00    -0.384 A  
HETATM    8  H   UNL     1     -13.858  10.511  70.256  1.00  0.00     0.000 HD 
HETATM    9  C   UNL     1      -9.930  10.161  70.064  1.00  0.00    -0.213 A  
HETATM   10  C   UNL     1      -9.422   9.124  70.855  1.00  0.00    -0.343 A  
BRANCH   7  11
HETATM   11  C   UNL     1     -11.859  11.480  69.141  1.00  0.00    -0.340 C  
HETATM   12  O   UNL     1     -12.267  11.220  68.011  1.00  0.00    -0.621 OA 
BRANCH  11  13
HETATM   13  C   UNL     1     -12.003  12.885  69.630  1.00  0.00    -0.358 A  
HETATM   14  C   UNL     1     -12.466  13.073  70.942  1.00  0.00    -0.396 A  
HETATM   15  C   UNL     1     -12.590  14.355  71.477  1.00  0.00    -0.424 A  
HETATM   16  C   UNL     1     -12.255  15.464  70.705  1.00  0.00    -0.431 A  
HETATM   17  C   UNL     1     -11.825  15.292  69.387  1.00  0.00    -0.367 A  
HETATM   18  C   UNL     1     -11.714  14.008  68.844  1.00  0.00    -0.375 A  
ENDBRANCH  11  13
ENDBRANCH   7  11
ENDBRANCH   2   3
TORSDOF 3
ENDMDL
MODEL       53
REMARK 921   NORMALIZED FREE ENERGY PREDICTED BY IDOCK:   -5.27 KCAL/MOL
REMARK 922        TOTAL FREE ENERGY PREDICTED BY IDOCK:   -6.57 KCAL/MOL
REMARK 923 INTER-LIGAND FREE ENERGY PREDICTED BY IDOCK:   -6.10 KCAL/MOL
REMARK 924 INTRA-LIGAND FREE ENERGY PREDICTED BY IDOCK:   -0.48 KCAL/MOL
REMARK 927      BINDING AFFINITY PREDICTED BY RF-SCORE:    0.00 PKD
ROOT
HETATM    1  C   UNL     1     -12.644  13.750  65.355  1.00  0.00    -0.497 C  
HETATM    2  O   UNL     1     -12.302  14.134  66.687  1.00  0.00    -0.455 OA 
ENDROOT
BRANCH   2   3
HETATM    3  C   UNL     1     -11.959  13.098  67.513  1.00  0.00    -0.317 A  
HETATM    4  C   UNL     1     -11.529  11.847  67.073  1.00  0.00    -0.384 A  
HETATM    5  C   UNL     1     -11.265  10.834  67.998  1.00  0.00    -0.307 A  
HETATM    6  O   UNL     1     -10.909   9.603  67.518  1.00  0.00    -0.333 OA 
HETATM    7  C   UNL     1     -11.404  11.061  69.374  1.00  0.00    -0.352 A  
HETATM    8  H   UNL     1     -10.729   8.915  68.148  1.00  0.00     0.000 HD 
HETATM    9  C   UNL     1     -11.744  12.349  69.810  1.00  0.00    -0.361 A  
HETATM   10  C   UNL     1     -12.030  13.357  68.882  1.00  0.00    -0.362 A  
BRANCH   7  11
HETATM   11  C   UNL     1     -11.117   9.980  70.360  1.00  0.00    -0.327 C  
HETATM   12  O   UNL     1      -9.958   9.770  70.714  1.00  0.00    -0.241 OA 
BRANCH  11  13
HETATM   13  C   UNL     1     -12.200   9.176  71.004  1.00  0.00    -0.302 A  
HETATM   14  C   UNL     1     -13.180   9.868  71.731  1.00  0.00    -0.535 A  
HETATM   15  C   UNL     1     -14.240   9.185  72.328  1.00  0.00    -0.370 A  
HETATM   16  C   UNL     1     -14.331   7.802  72.204  1.00  0.00    -0.376 A  
HETATM   17  C   UNL     1     -13.344   7.097  71.511  1.00  0.00    -0.413 A  
HETATM   18  C   UNL     1     -12.272   7.779  70.926  1.00  0.00    -0.166 A  
ENDBRANCH  11  13
ENDBRANCH   7  11
ENDBRANCH   2   3
TORSDOF 3
ENDMDL
MODEL       54
REMARK 921   NORMALIZED FREE ENERGY PREDICTED BY IDOCK:   -5.26 KCAL/MOL
REMARK 922        TOTAL FREE ENERGY PREDICTED BY IDOCK:   -6.57 KCAL/MOL
REMARK 923 INTER-LIGAND FREE ENERGY PREDICTED BY IDOCK:   -6.04 KCAL/MOL
REMARK 924 INTRA-LIGAND FREE ENERGY PREDICTED BY IDOCK:   -0.53 KCAL/MOL
REMARK 927      BINDING AFFINITY PREDICTED BY RF-SCORE:    0.00 PKD
ROOT
HETATM    1  C   UNL     1     -10.097  10.319  66.998  1.00  0.00    -0.218 C  
HETATM    2  O   UNL     1     -11.210  11.191  67.196  1.00  0.00    -0.298 OA 
ENDROOT
BRANCH   2   3
HETATM    3  C   UNL     1     -11.022  12.473  66.759  1.00  0.00    -0.265 A  
HETATM    4  C   UNL     1      -9.778  13.034  66.472  1.00  0.00    -0.266 A  
HETATM    5  C   UNL     1      -9.687  14.376  66.094  1.00  0.00    -0.312 A  
HETATM    6  O   UNL     1      -8.442  14.901  65.885  1.00  0.00    -0.096 OA 
HETATM    7  C   UNL     1     -10.836  15.169  65.974  1.00  0.00    -0.335 A  
HETATM    8  H   UNL     1      -8.380  15.814  65.628  1.00  0.00     0.000 HD 
HETATM    9  C   UNL     1     -12.088  14.570  66.171  1.00  0.00    -0.300 A  
HETATM   10  C   UNL     1     -12.176  13.232  66.573  1.00  0.00    -0.389 A  
BRANCH   7  11
HETATM   11  C   UNL     1     -10.738  16.600  65.565  1.00  0.00    -0.223 C  
HETATM   12  O   UNL     1     -10.879  16.906  64.383  1.00  0.00    -0.770 OA 
BRANCH  11  13
HETATM   13  C   UNL     1     -10.545  17.703  66.554  1.00  0.00    -0.207 A  
HETATM   14  C   UNL     1     -10.450  17.352  67.910  1.00  0.00    -0.383 A  
HETATM   15  C   UNL     1     -10.234  18.327  68.885  1.00  0.00    -0.299 A  
HETATM   16  C   UNL     1     -10.112  19.663  68.514  1.00  0.00    -0.557 A  
HETATM   17  C   UNL     1     -10.238  20.029  67.173  1.00  0.00    -0.580 A  
HETATM   18  C   UNL     1     -10.470  19.056  66.196  1.00  0.00    -0.541 A  
ENDBRANCH  11  13
ENDBRANCH   7  11
ENDBRANCH   2   3
TORSDOF 3
ENDMDL
MODEL       55
REMARK 921   NORMALIZED FREE ENERGY PREDICTED BY IDOCK:   -5.24 KCAL/MOL
REMARK 922        TOTAL FREE ENERGY PREDICTED BY IDOCK:   -6.55 KCAL/MOL
REMARK 923 INTER-LIGAND FREE ENERGY PREDICTED BY IDOCK:   -6.20 KCAL/MOL
REMARK 924 INTRA-LIGAND FREE ENERGY PREDICTED BY IDOCK:   -0.35 KCAL/MOL
REMARK 927      BINDING AFFINITY PREDICTED BY RF-SCORE:    0.00 PKD
ROOT
HETATM    1  C   UNL     1      -8.849   8.779  66.521  1.00  0.00    -0.131 C  
HETATM    2  O   UNL     1      -9.765   9.861  66.348  1.00  0.00    -0.186 OA 
ENDROOT
BRANCH   2   3
HETATM    3  C   UNL     1     -10.376  10.285  67.497  1.00  0.00    -0.229 A  
HETATM    4  C   UNL     1     -10.119   9.767  68.765  1.00  0.00    -0.187 A  
HETATM    5  C   UNL     1     -10.847  10.224  69.867  1.00  0.00    -0.302 A  
HETATM    6  O   UNL     1     -10.606   9.641  71.081  1.00  0.00    -0.321 OA 
HETATM    7  C   UNL     1     -11.822  11.219  69.723  1.00  0.00    -0.437 A  
HETATM    8  H   UNL     1     -11.101   9.953  71.830  1.00  0.00     0.000 HD 
HETATM    9  C   UNL     1     -12.006  11.801  68.460  1.00  0.00    -0.279 A  
HETATM   10  C   UNL     1     -11.293  11.326  67.353  1.00  0.00    -0.349 A  
BRANCH   7  11
HETATM   11  C   UNL     1     -12.594  11.710  70.901  1.00  0.00    -0.313 C  
HETATM   12  O   UNL     1     -13.131  10.902  71.656  1.00  0.00    -0.430 OA 
BRANCH  11  13
HETATM   13  C   UNL     1     -12.682  13.160  71.253  1.00  0.00    -0.396 A  
HETATM   14  C   UNL     1     -13.417  13.509  72.397  1.00  0.00    -0.685 A  
HETATM   15  C   UNL     1     -13.511  14.840  72.804  1.00  0.00    -0.572 A  
HETATM   16  C   UNL     1     -12.874  15.836  72.070  1.00  0.00    -0.511 A  
HETATM   17  C   UNL     1     -12.168  15.506  70.911  1.00  0.00    -0.450 A  
HETATM   18  C   UNL     1     -12.085  14.174  70.493  1.00  0.00    -0.420 A  
ENDBRANCH  11  13
ENDBRANCH   7  11
ENDBRANCH   2   3
TORSDOF 3
ENDMDL
MODEL       56
REMARK 921   NORMALIZED FREE ENERGY PREDICTED BY IDOCK:   -5.22 KCAL/MOL
REMARK 922        TOTAL FREE ENERGY PREDICTED BY IDOCK:   -6.52 KCAL/MOL
REMARK 923 INTER-LIGAND FREE ENERGY PREDICTED BY IDOCK:   -5.89 KCAL/MOL
REMARK 924 INTRA-LIGAND FREE ENERGY PREDICTED BY IDOCK:   -0.63 KCAL/MOL
REMARK 927      BINDING AFFINITY PREDICTED BY RF-SCORE:    0.00 PKD
ROOT
HETATM    1  C   UNL     1      -8.699   8.413  68.057  1.00  0.00    -0.139 C  
HETATM    2  O   UNL     1      -9.534   8.392  66.899  1.00  0.00    -0.159 OA 
ENDROOT
BRANCH   2   3
HETATM    3  C   UNL     1     -10.116   9.591  66.589  1.00  0.00    -0.252 A  
HETATM    4  C   UNL     1     -10.000  10.228  65.355  1.00  0.00    -0.371 A  
HETATM    5  C   UNL     1     -10.580  11.485  65.160  1.00  0.00    -0.293 A  
HETATM    6  O   UNL     1     -10.386  12.101  63.955  1.00  0.00    -0.348 OA 
HETATM    7  C   UNL     1     -11.302  12.111  66.185  1.00  0.00    -0.414 A  
HETATM    8  H   UNL     1     -10.780  12.955  63.823  1.00  0.00     0.000 HD 
HETATM    9  C   UNL     1     -11.493  11.419  67.389  1.00  0.00    -0.328 A  
HETATM   10  C   UNL     1     -10.893  10.171  67.591  1.00  0.00    -0.346 A  
BRANCH   7  11
HETATM   11  C   UNL     1     -11.925  13.450  65.973  1.00  0.00    -0.415 C  
HETATM   12  O   UNL     1     -12.960  13.543  65.319  1.00  0.00    -0.701 OA 
BRANCH  11  13
HETATM   13  C   UNL     1     -11.376  14.694  66.594  1.00  0.00    -0.358 A  
HETATM   14  C   UNL     1     -10.584  15.528  65.790  1.00  0.00    -0.370 A  
HETATM   15  C   UNL     1     -10.069  16.723  66.293  1.00  0.00    -0.338 A  
HETATM   16  C   UNL     1     -10.339  17.095  67.606  1.00  0.00    -0.344 A  
HETATM   17  C   UNL     1     -11.097  16.258  68.427  1.00  0.00    -0.362 A  
HETATM   18  C   UNL     1     -11.601  15.052  67.930  1.00  0.00    -0.350 A  
ENDBRANCH  11  13
ENDBRANCH   7  11
ENDBRANCH   2   3
TORSDOF 3
ENDMDL
MODEL       57
REMARK 921   NORMALIZED FREE ENERGY PREDICTED BY IDOCK:   -5.22 KCAL/MOL
REMARK 922        TOTAL FREE ENERGY PREDICTED BY IDOCK:   -6.52 KCAL/MOL
REMARK 923 INTER-LIGAND FREE ENERGY PREDICTED BY IDOCK:   -6.11 KCAL/MOL
REMARK 924 INTRA-LIGAND FREE ENERGY PREDICTED BY IDOCK:   -0.41 KCAL/MOL
REMARK 927      BINDING AFFINITY PREDICTED BY RF-SCORE:    0.00 PKD
ROOT
HETATM    1  C   UNL     1      -9.064  18.384  67.770  1.00  0.00    -0.277 C  
HETATM    2  O   UNL     1     -10.441  18.018  67.685  1.00  0.00    -0.379 OA 
ENDROOT
BRANCH   2   3
HETATM    3  C   UNL     1     -10.668  16.694  67.424  1.00  0.00    -0.253 A  
HETATM    4  C   UNL     1     -10.199  16.020  66.298  1.00  0.00    -0.329 A  
HETATM    5  C   UNL     1     -10.542  14.681  66.092  1.00  0.00    -0.312 A  
HETATM    6  O   UNL     1     -10.114  14.078  64.941  1.00  0.00    -0.553 OA 
HETATM    7  C   UNL     1     -11.338  13.991  67.017  1.00  0.00    -0.346 A  
HETATM    8  H   UNL     1     -10.347  13.168  64.801  1.00  0.00     0.000 HD 
HETATM    9  C   UNL     1     -11.724  14.650  68.192  1.00  0.00    -0.360 A  
HETATM   10  C   UNL     1     -11.399  15.998  68.386  1.00  0.00    -0.355 A  
BRANCH   7  11
HETATM   11  C   UNL     1     -11.699  12.560  66.797  1.00  0.00    -0.384 C  
HETATM   12  O   UNL     1     -12.276  12.230  65.764  1.00  0.00    -0.622 OA 
BRANCH  11  13
HETATM   13  C   UNL     1     -11.318  11.483  67.760  1.00  0.00    -0.364 A  
HETATM   14  C   UNL     1     -11.833  11.563  69.063  1.00  0.00    -0.408 A  
HETATM   15  C   UNL     1     -11.548  10.572  70.004  1.00  0.00    -0.392 A  
HETATM   16  C   UNL     1     -10.744   9.493  69.652  1.00  0.00    -0.257 A  
HETATM   17  C   UNL     1     -10.198   9.419  68.369  1.00  0.00    -0.224 A  
HETATM   18  C   UNL     1     -10.470  10.418  67.429  1.00  0.00    -0.299 A  
ENDBRANCH  11  13
ENDBRANCH   7  11
ENDBRANCH   2   3
TORSDOF 3
ENDMDL
MODEL       58
REMARK 921   NORMALIZED FREE ENERGY PREDICTED BY IDOCK:   -5.22 KCAL/MOL
REMARK 922        TOTAL FREE ENERGY PREDICTED BY IDOCK:   -6.51 KCAL/MOL
REMARK 923 INTER-LIGAND FREE ENERGY PREDICTED BY IDOCK:   -5.84 KCAL/MOL
REMARK 924 INTRA-LIGAND FREE ENERGY PREDICTED BY IDOCK:   -0.67 KCAL/MOL
REMARK 927      BINDING AFFINITY PREDICTED BY RF-SCORE:    0.00 PKD
ROOT
HETATM    1  C   UNL     1     -11.383   7.640  72.242  1.00  0.00    -0.306 C  
HETATM    2  O   UNL     1     -11.869   8.982  72.199  1.00  0.00    -0.358 OA 
ENDROOT
BRANCH   2   3
HETATM    3  C   UNL     1     -11.435   9.716  71.129  1.00  0.00    -0.384 A  
HETATM    4  C   UNL     1     -10.215   9.525  70.484  1.00  0.00    -0.349 A  
HETATM    5  C   UNL     1      -9.836  10.373  69.439  1.00  0.00    -0.213 A  
HETATM    6  O   UNL     1      -8.602  10.190  68.879  1.00  0.00    -0.123 OA 
HETATM    7  C   UNL     1     -10.679  11.407  69.010  1.00  0.00    -0.245 A  
HETATM    8  H   UNL     1      -8.345  10.766  68.169  1.00  0.00     0.000 HD 
HETATM    9  C   UNL     1     -11.944  11.531  69.602  1.00  0.00    -0.407 A  
HETATM   10  C   UNL     1     -12.312  10.695  70.663  1.00  0.00    -0.462 A  
BRANCH   7  11
HETATM   11  C   UNL     1     -10.275  12.309  67.892  1.00  0.00    -0.200 C  
HETATM   12  O   UNL     1      -9.443  13.190  68.092  1.00  0.00    -0.213 OA 
BRANCH  11  13
HETATM   13  C   UNL     1     -10.791  12.137  66.500  1.00  0.00    -0.307 A  
HETATM   14  C   UNL     1     -11.922  12.880  66.129  1.00  0.00    -0.491 A  
HETATM   15  C   UNL     1     -12.437  12.796  64.835  1.00  0.00    -0.563 A  
HETATM   16  C   UNL     1     -11.827  11.967  63.899  1.00  0.00    -0.509 A  
HETATM   17  C   UNL     1     -10.721  11.196  64.265  1.00  0.00    -0.403 A  
HETATM   18  C   UNL     1     -10.213  11.267  65.566  1.00  0.00    -0.312 A  
ENDBRANCH  11  13
ENDBRANCH   7  11
ENDBRANCH   2   3
TORSDOF 3
ENDMDL
MODEL       59
REMARK 921   NORMALIZED FREE ENERGY PREDICTED BY IDOCK:   -5.19 KCAL/MOL
REMARK 922        TOTAL FREE ENERGY PREDICTED BY IDOCK:   -6.49 KCAL/MOL
REMARK 923 INTER-LIGAND FREE ENERGY PREDICTED BY IDOCK:   -6.00 KCAL/MOL
REMARK 924 INTRA-LIGAND FREE ENERGY PREDICTED BY IDOCK:   -0.49 KCAL/MOL
REMARK 927      BINDING AFFINITY PREDICTED BY RF-SCORE:    0.00 PKD
ROOT
HETATM    1  C   UNL     1      -7.683  18.873  68.128  1.00  0.00    -0.287 C  
HETATM    2  O   UNL     1      -8.338  18.505  66.914  1.00  0.00    -0.249 OA 
ENDROOT
BRANCH   2   3
HETATM    3  C   UNL     1      -9.102  17.373  66.993  1.00  0.00    -0.242 A  
HETATM    4  C   UNL     1      -8.884  16.220  66.241  1.00  0.00    -0.367 A  
HETATM    5  C   UNL     1      -9.764  15.139  66.348  1.00  0.00    -0.278 A  
HETATM    6  O   UNL     1      -9.549  14.054  65.544  1.00  0.00    -0.521 OA 
HETATM    7  C   UNL     1     -10.857  15.185  67.224  1.00  0.00    -0.316 A  
HETATM    8  H   UNL     1     -10.146  13.319  65.618  1.00  0.00     0.000 HD 
HETATM    9  C   UNL     1     -11.012  16.311  68.044  1.00  0.00    -0.328 A  
HETATM   10  C   UNL     1     -10.144  17.402  67.919  1.00  0.00    -0.326 A  
BRANCH   7  11
HETATM   11  C   UNL     1     -11.792  14.029  67.341  1.00  0.00    -0.409 C  
HETATM   12  O   UNL     1     -12.407  13.641  66.350  1.00  0.00    -0.424 OA 
BRANCH  11  13
HETATM   13  C   UNL     1     -11.961  13.262  68.613  1.00  0.00    -0.345 A  
HETATM   14  C   UNL     1     -11.771  11.873  68.566  1.00  0.00    -0.388 A  
HETATM   15  C   UNL     1     -11.877  11.099  69.722  1.00  0.00    -0.422 A  
HETATM   16  C   UNL     1     -12.176  11.708  70.938  1.00  0.00    -0.401 A  
HETATM   17  C   UNL     1     -12.400  13.085  70.992  1.00  0.00    -0.335 A  
HETATM   18  C   UNL     1     -12.309  13.860  69.831  1.00  0.00    -0.358 A  
ENDBRANCH  11  13
ENDBRANCH   7  11
ENDBRANCH   2   3
TORSDOF 3
ENDMDL
MODEL       60
REMARK 921   NORMALIZED FREE ENERGY PREDICTED BY IDOCK:   -5.18 KCAL/MOL
REMARK 922        TOTAL FREE ENERGY PREDICTED BY IDOCK:   -6.48 KCAL/MOL
REMARK 923 INTER-LIGAND FREE ENERGY PREDICTED BY IDOCK:   -5.95 KCAL/MOL
REMARK 924 INTRA-LIGAND FREE ENERGY PREDICTED BY IDOCK:   -0.52 KCAL/MOL
REMARK 927      BINDING AFFINITY PREDICTED BY RF-SCORE:    0.00 PKD
ROOT
HETATM    1  C   UNL     1     -12.812   9.744  71.657  1.00  0.00    -0.421 C  
HETATM    2  O   UNL     1     -12.445  11.115  71.815  1.00  0.00    -0.237 OA 
ENDROOT
BRANCH   2   3
HETATM    3  C   UNL     1     -12.316  11.813  70.645  1.00  0.00    -0.328 A  
HETATM    4  C   UNL     1     -12.089  11.230  69.399  1.00  0.00    -0.384 A  
HETATM    5  C   UNL     1     -11.906  12.038  68.273  1.00  0.00    -0.287 A  
HETATM    6  O   UNL     1     -11.621  11.425  67.084  1.00  0.00    -0.519 OA 
HETATM    7  C   UNL     1     -11.971  13.434  68.370  1.00  0.00    -0.359 A  
HETATM    8  H   UNL     1     -11.497  11.974  66.319  1.00  0.00     0.000 HD 
HETATM    9  C   UNL     1     -12.294  14.006  69.609  1.00  0.00    -0.309 A  
HETATM   10  C   UNL     1     -12.454  13.198  70.740  1.00  0.00    -0.389 A  
BRANCH   7  11
HETATM   11  C   UNL     1     -11.780  14.294  67.167  1.00  0.00    -0.404 C  
HETATM   12  O   UNL     1     -12.560  14.199  66.222  1.00  0.00    -0.449 OA 
BRANCH  11  13
HETATM   13  C   UNL     1     -10.710  15.334  67.088  1.00  0.00    -0.316 A  
HETATM   14  C   UNL     1     -10.876  16.498  67.854  1.00  0.00    -0.326 A  
HETATM   15  C   UNL     1      -9.900  17.495  67.856  1.00  0.00    -0.293 A  
HETATM   16  C   UNL     1      -8.747  17.338  67.092  1.00  0.00    -0.231 A  
HETATM   17  C   UNL     1      -8.585  16.200  66.299  1.00  0.00    -0.373 A  
HETATM   18  C   UNL     1      -9.570  15.207  66.283  1.00  0.00    -0.325 A  
ENDBRANCH  11  13
ENDBRANCH   7  11
ENDBRANCH   2   3
TORSDOF 3
ENDMDL
MODEL       61
REMARK 921   NORMALIZED FREE ENERGY PREDICTED BY IDOCK:   -5.17 KCAL/MOL
REMARK 922        TOTAL FREE ENERGY PREDICTED BY IDOCK:   -6.46 KCAL/MOL
REMARK 923 INTER-LIGAND FREE ENERGY PREDICTED BY IDOCK:   -5.94 KCAL/MOL
REMARK 924 INTRA-LIGAND FREE ENERGY PREDICTED BY IDOCK:   -0.52 KCAL/MOL
REMARK 927      BINDING AFFINITY PREDICTED BY RF-SCORE:    0.00 PKD
ROOT
HETATM    1  C   UNL     1     -13.106   9.533  71.473  1.00  0.00    -0.389 C  
HETATM    2  O   UNL     1     -12.417  10.740  71.801  1.00  0.00    -0.328 OA 
ENDROOT
BRANCH   2   3
HETATM    3  C   UNL     1     -12.228  11.597  70.752  1.00  0.00    -0.344 A  
HETATM    4  C   UNL     1     -12.431  12.975  70.812  1.00  0.00    -0.384 A  
HETATM    5  C   UNL     1     -12.272  13.755  69.664  1.00  0.00    -0.305 A  
HETATM    6  O   UNL     1     -12.545  15.093  69.754  1.00  0.00    -0.567 OA 
HETATM    7  C   UNL     1     -11.887  13.176  68.447  1.00  0.00    -0.386 A  
HETATM    8  H   UNL     1     -12.437  15.623  68.973  1.00  0.00     0.000 HD 
HETATM    9  C   UNL     1     -11.593  11.805  68.421  1.00  0.00    -0.380 A  
HETATM   10  C   UNL     1     -11.774  11.021  69.566  1.00  0.00    -0.400 A  
BRANCH   7  11
HETATM   11  C   UNL     1     -11.713  14.011  67.224  1.00  0.00    -0.389 C  
HETATM   12  O   UNL     1     -12.628  14.090  66.406  1.00  0.00    -0.428 OA 
BRANCH  11  13
HETATM   13  C   UNL     1     -10.486  14.828  66.980  1.00  0.00    -0.270 A  
HETATM   14  C   UNL     1      -9.253  14.282  67.371  1.00  0.00    -0.200 A  
HETATM   15  C   UNL     1      -8.063  14.973  67.142  1.00  0.00    -0.245 A  
HETATM   16  C   UNL     1      -8.093  16.218  66.521  1.00  0.00    -0.337 A  
HETATM   17  C   UNL     1      -9.316  16.788  66.158  1.00  0.00    -0.288 A  
HETATM   18  C   UNL     1     -10.511  16.103  66.401  1.00  0.00    -0.304 A  
ENDBRANCH  11  13
ENDBRANCH   7  11
ENDBRANCH   2   3
TORSDOF 3
ENDMDL
MODEL       62
REMARK 921   NORMALIZED FREE ENERGY PREDICTED BY IDOCK:   -5.17 KCAL/MOL
REMARK 922        TOTAL FREE ENERGY PREDICTED BY IDOCK:   -6.46 KCAL/MOL
REMARK 923 INTER-LIGAND FREE ENERGY PREDICTED BY IDOCK:   -5.85 KCAL/MOL
REMARK 924 INTRA-LIGAND FREE ENERGY PREDICTED BY IDOCK:   -0.61 KCAL/MOL
REMARK 927      BINDING AFFINITY PREDICTED BY RF-SCORE:    0.00 PKD
ROOT
HETATM    1  C   UNL     1     -12.021  10.925  69.333  1.00  0.00    -0.322 C  
HETATM    2  O   UNL     1     -12.124  11.761  68.180  1.00  0.00    -0.556 OA 
ENDROOT
BRANCH   2   3
HETATM    3  C   UNL     1     -11.321  12.868  68.199  1.00  0.00    -0.289 A  
HETATM    4  C   UNL     1     -10.322  13.135  67.264  1.00  0.00    -0.243 A  
HETATM    5  C   UNL     1      -9.511  14.264  67.410  1.00  0.00    -0.211 A  
HETATM    6  O   UNL     1      -8.502  14.450  66.506  1.00  0.00    -0.423 OA 
HETATM    7  C   UNL     1      -9.701  15.153  68.477  1.00  0.00    -0.214 A  
HETATM    8  H   UNL     1      -7.951  15.218  66.606  1.00  0.00     0.000 HD 
HETATM    9  C   UNL     1     -10.769  14.927  69.356  1.00  0.00    -0.264 A  
HETATM   10  C   UNL     1     -11.566  13.784  69.222  1.00  0.00    -0.362 A  
BRANCH   7  11
HETATM   11  C   UNL     1      -8.838  16.360  68.628  1.00  0.00    -0.234 C  
HETATM   12  O   UNL     1      -7.736  16.256  69.162  1.00  0.00    -0.226 OA 
BRANCH  11  13
HETATM   13  C   UNL     1      -9.228  17.696  68.085  1.00  0.00    -0.282 A  
HETATM   14  C   UNL     1      -8.357  18.772  68.315  1.00  0.00    -0.360 A  
HETATM   15  C   UNL     1      -8.641  20.040  67.806  1.00  0.00    -0.347 A  
HETATM   16  C   UNL     1      -9.801  20.245  67.063  1.00  0.00    -0.607 A  
HETATM   17  C   UNL     1     -10.692  19.191  66.856  1.00  0.00    -0.515 A  
HETATM   18  C   UNL     1     -10.417  17.922  67.379  1.00  0.00    -0.390 A  
ENDBRANCH  11  13
ENDBRANCH   7  11
ENDBRANCH   2   3
TORSDOF 3
ENDMDL
MODEL       63
REMARK 921   NORMALIZED FREE ENERGY PREDICTED BY IDOCK:   -5.13 KCAL/MOL
REMARK 922        TOTAL FREE ENERGY PREDICTED BY IDOCK:   -6.41 KCAL/MOL
REMARK 923 INTER-LIGAND FREE ENERGY PREDICTED BY IDOCK:   -5.77 KCAL/MOL
REMARK 924 INTRA-LIGAND FREE ENERGY PREDICTED BY IDOCK:   -0.64 KCAL/MOL
REMARK 927      BINDING AFFINITY PREDICTED BY RF-SCORE:    0.00 PKD
ROOT
HETATM    1  C   UNL     1      -6.355  19.914  69.993  1.00  0.00    -0.346 C  
HETATM    2  O   UNL     1      -6.327  19.064  68.847  1.00  0.00    -0.239 OA 
ENDROOT
BRANCH   2   3
HETATM    3  C   UNL     1      -7.486  18.374  68.615  1.00  0.00    -0.296 A  
HETATM    4  C   UNL     1      -8.647  18.938  68.088  1.00  0.00    -0.349 A  
HETATM    5  C   UNL     1      -9.801  18.161  67.951  1.00  0.00    -0.313 A  
HETATM    6  O   UNL     1     -10.935  18.772  67.491  1.00  0.00    -0.407 OA 
HETATM    7  C   UNL     1      -9.804  16.807  68.315  1.00  0.00    -0.257 A  
HETATM    8  H   UNL     1     -11.718  18.243  67.398  1.00  0.00     0.000 HD 
HETATM    9  C   UNL     1      -8.605  16.228  68.753  1.00  0.00    -0.240 A  
HETATM   10  C   UNL     1      -7.457  17.012  68.912  1.00  0.00    -0.237 A  
BRANCH   7  11
HETATM   11  C   UNL     1     -11.035  15.978  68.163  1.00  0.00    -0.339 C  
HETATM   12  O   UNL     1     -11.945  16.085  68.981  1.00  0.00    -0.342 OA 
BRANCH  11  13
HETATM   13  C   UNL     1     -11.244  15.064  66.999  1.00  0.00    -0.328 A  
HETATM   14  C   UNL     1     -10.512  15.320  65.830  1.00  0.00    -0.365 A  
HETATM   15  C   UNL     1     -10.631  14.486  64.717  1.00  0.00    -0.401 A  
HETATM   16  C   UNL     1     -11.485  13.388  64.763  1.00  0.00    -0.359 A  
HETATM   17  C   UNL     1     -12.245  13.142  65.908  1.00  0.00    -0.497 A  
HETATM   18  C   UNL     1     -12.138  13.985  67.019  1.00  0.00    -0.455 A  
ENDBRANCH  11  13
ENDBRANCH   7  11
ENDBRANCH   2   3
TORSDOF 3
ENDMDL
MODEL       64
REMARK 921   NORMALIZED FREE ENERGY PREDICTED BY IDOCK:   -5.11 KCAL/MOL
REMARK 922        TOTAL FREE ENERGY PREDICTED BY IDOCK:   -6.39 KCAL/MOL
REMARK 923 INTER-LIGAND FREE ENERGY PREDICTED BY IDOCK:   -6.36 KCAL/MOL
REMARK 924 INTRA-LIGAND FREE ENERGY PREDICTED BY IDOCK:   -0.03 KCAL/MOL
REMARK 927      BINDING AFFINITY PREDICTED BY RF-SCORE:    0.00 PKD
ROOT
HETATM    1  C   UNL     1     -10.164  10.793  63.288  1.00  0.00    -0.180 C  
HETATM    2  O   UNL     1     -10.425  12.144  63.669  1.00  0.00    -0.393 OA 
ENDROOT
BRANCH   2   3
HETATM    3  C   UNL     1     -10.820  12.308  64.968  1.00  0.00    -0.298 A  
HETATM    4  C   UNL     1     -11.505  13.423  65.450  1.00  0.00    -0.322 A  
HETATM    5  C   UNL     1     -11.805  13.524  66.811  1.00  0.00    -0.406 A  
HETATM    6  O   UNL     1     -12.420  14.664  67.249  1.00  0.00    -0.530 OA 
HETATM    7  C   UNL     1     -11.448  12.506  67.705  1.00  0.00    -0.392 A  
HETATM    8  H   UNL     1     -12.625  14.733  68.174  1.00  0.00     0.000 HD 
HETATM    9  C   UNL     1     -10.845  11.347  67.195  1.00  0.00    -0.316 A  
HETATM   10  C   UNL     1     -10.524  11.257  65.836  1.00  0.00    -0.314 A  
BRANCH   7  11
HETATM   11  C   UNL     1     -11.774  12.613  69.156  1.00  0.00    -0.321 C  
HETATM   12  O   UNL     1     -12.089  13.703  69.630  1.00  0.00    -0.316 OA 
BRANCH  11  13
HETATM   13  C   UNL     1     -11.807  11.423  70.059  1.00  0.00    -0.440 A  
HETATM   14  C   UNL     1     -12.866  11.330  70.976  1.00  0.00    -0.395 A  
HETATM   15  C   UNL     1     -12.979  10.228  71.824  1.00  0.00    -0.574 A  
HETATM   16  C   UNL     1     -12.034   9.208  71.766  1.00  0.00    -0.449 A  
HETATM   17  C   UNL     1     -10.957   9.305  70.882  1.00  0.00    -0.368 A  
HETATM   18  C   UNL     1     -10.833  10.416  70.041  1.00  0.00    -0.348 A  
ENDBRANCH  11  13
ENDBRANCH   7  11
ENDBRANCH   2   3
TORSDOF 3
ENDMDL
MODEL       65
REMARK 921   NORMALIZED FREE ENERGY PREDICTED BY IDOCK:   -5.09 KCAL/MOL
REMARK 922        TOTAL FREE ENERGY PREDICTED BY IDOCK:   -6.37 KCAL/MOL
REMARK 923 INTER-LIGAND FREE ENERGY PREDICTED BY IDOCK:   -6.02 KCAL/MOL
REMARK 924 INTRA-LIGAND FREE ENERGY PREDICTED BY IDOCK:   -0.34 KCAL/MOL
REMARK 927      BINDING AFFINITY PREDICTED BY RF-SCORE:    0.00 PKD
ROOT
HETATM    1  C   UNL     1     -10.990   8.897  71.497  1.00  0.00    -0.328 C  
HETATM    2  O   UNL     1     -11.672  10.150  71.560  1.00  0.00    -0.343 OA 
ENDROOT
BRANCH   2   3
HETATM    3  C   UNL     1     -11.654  10.872  70.398  1.00  0.00    -0.323 A  
HETATM    4  C   UNL     1     -12.015  12.215  70.298  1.00  0.00    -0.389 A  
HETATM    5  C   UNL     1     -12.026  12.845  69.051  1.00  0.00    -0.251 A  
HETATM    6  O   UNL     1     -12.449  14.144  68.991  1.00  0.00    -0.531 OA 
HETATM    7  C   UNL     1     -11.655  12.151  67.891  1.00  0.00    -0.413 A  
HETATM    8  H   UNL     1     -12.456  14.572  68.143  1.00  0.00     0.000 HD 
HETATM    9  C   UNL     1     -11.203  10.830  68.016  1.00  0.00    -0.372 A  
HETATM   10  C   UNL     1     -11.214  10.193  69.262  1.00  0.00    -0.247 A  
BRANCH   7  11
HETATM   11  C   UNL     1     -11.662  12.826  66.561  1.00  0.00    -0.400 C  
HETATM   12  O   UNL     1     -12.394  12.404  65.668  1.00  0.00    -0.639 OA 
BRANCH  11  13
HETATM   13  C   UNL     1     -10.861  14.057  66.285  1.00  0.00    -0.291 A  
HETATM   14  C   UNL     1     -11.399  14.996  65.391  1.00  0.00    -0.328 A  
HETATM   15  C   UNL     1     -10.722  16.185  65.114  1.00  0.00    -0.391 A  
HETATM   16  C   UNL     1      -9.501  16.446  65.728  1.00  0.00    -0.191 A  
HETATM   17  C   UNL     1      -8.939  15.505  66.593  1.00  0.00    -0.320 A  
HETATM   18  C   UNL     1      -9.608  14.306  66.860  1.00  0.00    -0.268 A  
ENDBRANCH  11  13
ENDBRANCH   7  11
ENDBRANCH   2   3
TORSDOF 3
ENDMDL
MODEL       66
REMARK 921   NORMALIZED FREE ENERGY PREDICTED BY IDOCK:   -5.07 KCAL/MOL
REMARK 922        TOTAL FREE ENERGY PREDICTED BY IDOCK:   -6.34 KCAL/MOL
REMARK 923 INTER-LIGAND FREE ENERGY PREDICTED BY IDOCK:   -5.69 KCAL/MOL
REMARK 924 INTRA-LIGAND FREE ENERGY PREDICTED BY IDOCK:   -0.65 KCAL/MOL
REMARK 927      BINDING AFFINITY PREDICTED BY RF-SCORE:    0.00 PKD
ROOT
HETATM    1  C   UNL     1     -12.349  13.749  70.835  1.00  0.00    -0.380 C  
HETATM    2  O   UNL     1     -12.423  12.622  69.961  1.00  0.00    -0.130 OA 
ENDROOT
BRANCH   2   3
HETATM    3  C   UNL     1     -12.149  11.418  70.551  1.00  0.00    -0.394 A  
HETATM    4  C   UNL     1     -12.966  10.799  71.496  1.00  0.00    -0.562 A  
HETATM    5  C   UNL     1     -12.563   9.599  72.088  1.00  0.00    -0.308 A  
HETATM    6  O   UNL     1     -13.364   9.060  73.057  1.00  0.00    -0.847 OA 
HETATM    7  C   UNL     1     -11.352   8.990  71.730  1.00  0.00    -0.447 A  
HETATM    8  H   UNL     1     -13.090   8.244  73.459  1.00  0.00     0.000 HD 
HETATM    9  C   UNL     1     -10.585   9.572  70.711  1.00  0.00    -0.387 A  
HETATM   10  C   UNL     1     -10.979  10.785  70.135  1.00  0.00    -0.230 A  
BRANCH   7  11
HETATM   11  C   UNL     1     -10.926   7.707  72.360  1.00  0.00    -0.301 C  
HETATM   12  O   UNL     1     -11.102   7.532  73.564  1.00  0.00    -0.312 OA 
BRANCH  11  13
HETATM   13  C   UNL     1     -10.353   6.578  71.566  1.00  0.00    -0.238 A  
HETATM   14  C   UNL     1      -9.139   6.026  72.002  1.00  0.00    -0.144 A  
HETATM   15  C   UNL     1      -8.564   4.947  71.330  1.00  0.00    -0.132 A  
HETATM   16  C   UNL     1      -9.198   4.409  70.214  1.00  0.00    -0.193 A  
HETATM   17  C   UNL     1     -10.389   4.970  69.749  1.00  0.00    -0.286 A  
HETATM   18  C   UNL     1     -10.959   6.062  70.413  1.00  0.00    -0.399 A  
ENDBRANCH  11  13
ENDBRANCH   7  11
ENDBRANCH   2   3
TORSDOF 3
ENDMDL
MODEL       67
REMARK 921   NORMALIZED FREE ENERGY PREDICTED BY IDOCK:   -5.06 KCAL/MOL
REMARK 922        TOTAL FREE ENERGY PREDICTED BY IDOCK:   -6.33 KCAL/MOL
REMARK 923 INTER-LIGAND FREE ENERGY PREDICTED BY IDOCK:   -5.81 KCAL/MOL
REMARK 924 INTRA-LIGAND FREE ENERGY PREDICTED BY IDOCK:   -0.52 KCAL/MOL
REMARK 927      BINDING AFFINITY PREDICTED BY RF-SCORE:    0.00 PKD
ROOT
HETATM    1  C   UNL     1      -6.259  19.754  69.601  1.00  0.00    -0.330 C  
HETATM    2  O   UNL     1      -6.573  18.984  68.440  1.00  0.00    -0.236 OA 
ENDROOT
BRANCH   2   3
HETATM    3  C   UNL     1      -7.758  18.302  68.506  1.00  0.00    -0.305 A  
HETATM    4  C   UNL     1      -8.997  18.839  68.162  1.00  0.00    -0.337 A  
HETATM    5  C   UNL     1     -10.158  18.079  68.328  1.00  0.00    -0.385 A  
HETATM    6  O   UNL     1     -11.358  18.669  68.038  1.00  0.00     0.000 OA 
HETATM    7  C   UNL     1     -10.096  16.767  68.816  1.00  0.00    -0.286 A  
HETATM    8  H   UNL     1     -12.147  18.152  68.151  1.00  0.00     0.000 HD 
HETATM    9  C   UNL     1      -8.837  16.205  69.069  1.00  0.00    -0.251 A  
HETATM   10  C   UNL     1      -7.677  16.974  68.924  1.00  0.00    -0.231 A  
BRANCH   7  11
HETATM   11  C   UNL     1     -11.336  15.956  68.988  1.00  0.00    -0.371 C  
HETATM   12  O   UNL     1     -11.788  15.326  68.035  1.00  0.00    -0.314 OA 
BRANCH  11  13
HETATM   13  C   UNL     1     -12.023  15.814  70.308  1.00  0.00    -0.383 A  
HETATM   14  C   UNL     1     -11.411  16.402  71.426  1.00  0.00    -0.264 A  
HETATM   15  C   UNL     1     -12.014  16.340  72.683  1.00  0.00    -0.644 A  
HETATM   16  C   UNL     1     -13.234  15.688  72.835  1.00  0.00    -0.630 A  
HETATM   17  C   UNL     1     -13.836  15.069  71.737  1.00  0.00    -0.576 A  
HETATM   18  C   UNL     1     -13.226  15.117  70.479  1.00  0.00    -0.268 A  
ENDBRANCH  11  13
ENDBRANCH   7  11
ENDBRANCH   2   3
TORSDOF 3
ENDMDL
MODEL       68
REMARK 921   NORMALIZED FREE ENERGY PREDICTED BY IDOCK:   -5.06 KCAL/MOL
REMARK 922        TOTAL FREE ENERGY PREDICTED BY IDOCK:   -6.33 KCAL/MOL
REMARK 923 INTER-LIGAND FREE ENERGY PREDICTED BY IDOCK:   -5.64 KCAL/MOL
REMARK 924 INTRA-LIGAND FREE ENERGY PREDICTED BY IDOCK:   -0.69 KCAL/MOL
REMARK 927      BINDING AFFINITY PREDICTED BY RF-SCORE:    0.00 PKD
ROOT
HETATM    1  C   UNL     1     -10.227  14.004  68.611  1.00  0.00    -0.233 C  
HETATM    2  O   UNL     1     -11.225  13.076  68.185  1.00  0.00    -0.243 OA 
ENDROOT
BRANCH   2   3
HETATM    3  C   UNL     1     -11.573  12.139  69.119  1.00  0.00    -0.319 A  
HETATM    4  C   UNL     1     -12.402  12.385  70.212  1.00  0.00    -0.264 A  
HETATM    5  C   UNL     1     -12.645  11.375  71.147  1.00  0.00    -0.386 A  
HETATM    6  O   UNL     1     -13.411  11.680  72.238  1.00  0.00    -0.625 OA 
HETATM    7  C   UNL     1     -12.083  10.100  70.991  1.00  0.00    -0.476 A  
HETATM    8  H   UNL     1     -13.576  10.993  72.873  1.00  0.00     0.000 HD 
HETATM    9  C   UNL     1     -11.330   9.836  69.839  1.00  0.00    -0.238 A  
HETATM   10  C   UNL     1     -11.069  10.855  68.915  1.00  0.00    -0.307 A  
BRANCH   7  11
HETATM   11  C   UNL     1     -12.347   9.022  71.987  1.00  0.00    -0.384 C  
HETATM   12  O   UNL     1     -13.426   8.987  72.575  1.00  0.00    -0.454 OA 
BRANCH  11  13
HETATM   13  C   UNL     1     -11.371   7.921  72.252  1.00  0.00    -0.393 A  
HETATM   14  C   UNL     1     -11.740   6.620  71.876  1.00  0.00    -0.355 A  
HETATM   15  C   UNL     1     -10.863   5.550  72.060  1.00  0.00    -0.287 A  
HETATM   16  C   UNL     1      -9.610   5.770  72.624  1.00  0.00    -0.165 A  
HETATM   17  C   UNL     1      -9.244   7.054  73.033  1.00  0.00    -0.163 A  
HETATM   18  C   UNL     1     -10.127   8.126  72.863  1.00  0.00    -0.349 A  
ENDBRANCH  11  13
ENDBRANCH   7  11
ENDBRANCH   2   3
TORSDOF 3
ENDMDL
MODEL       69
REMARK 921   NORMALIZED FREE ENERGY PREDICTED BY IDOCK:   -5.05 KCAL/MOL
REMARK 922        TOTAL FREE ENERGY PREDICTED BY IDOCK:   -6.32 KCAL/MOL
REMARK 923 INTER-LIGAND FREE ENERGY PREDICTED BY IDOCK:   -5.67 KCAL/MOL
REMARK 924 INTRA-LIGAND FREE ENERGY PREDICTED BY IDOCK:   -0.65 KCAL/MOL
REMARK 927      BINDING AFFINITY PREDICTED BY RF-SCORE:    0.00 PKD
ROOT
HETATM    1  C   UNL     1     -11.235   6.897  71.626  1.00  0.00    -0.247 C  
HETATM    2  O   UNL     1     -12.133   8.004  71.550  1.00  0.00    -0.283 OA 
ENDROOT
BRANCH   2   3
HETATM    3  C   UNL     1     -11.714   9.030  70.748  1.00  0.00    -0.242 A  
HETATM    4  C   UNL     1     -12.029  10.372  70.955  1.00  0.00    -0.478 A  
HETATM    5  C   UNL     1     -11.605  11.338  70.038  1.00  0.00    -0.321 A  
HETATM    6  O   UNL     1     -11.992  12.634  70.246  1.00  0.00    -0.433 OA 
HETATM    7  C   UNL     1     -10.843  10.982  68.917  1.00  0.00    -0.262 A  
HETATM    8  H   UNL     1     -11.703  13.290  69.623  1.00  0.00     0.000 HD 
HETATM    9  C   UNL     1     -10.452   9.644  68.770  1.00  0.00    -0.238 A  
HETATM   10  C   UNL     1     -10.896   8.674  69.676  1.00  0.00    -0.163 A  
BRANCH   7  11
HETATM   11  C   UNL     1     -10.388  12.015  67.942  1.00  0.00    -0.197 C  
HETATM   12  O   UNL     1      -9.534  12.833  68.277  1.00  0.00    -0.214 OA 
BRANCH  11  13
HETATM   13  C   UNL     1     -10.878  12.055  66.531  1.00  0.00    -0.314 A  
HETATM   14  C   UNL     1     -10.185  11.290  65.580  1.00  0.00    -0.304 A  
HETATM   15  C   UNL     1     -10.608  11.251  64.251  1.00  0.00    -0.422 A  
HETATM   16  C   UNL     1     -11.728  11.978  63.859  1.00  0.00    -0.537 A  
HETATM   17  C   UNL     1     -12.406  12.770  64.788  1.00  0.00    -0.540 A  
HETATM   18  C   UNL     1     -11.975  12.822  66.117  1.00  0.00    -0.476 A  
ENDBRANCH  11  13
ENDBRANCH   7  11
ENDBRANCH   2   3
TORSDOF 3
ENDMDL
MODEL       70
REMARK 921   NORMALIZED FREE ENERGY PREDICTED BY IDOCK:   -5.04 KCAL/MOL
REMARK 922        TOTAL FREE ENERGY PREDICTED BY IDOCK:   -6.30 KCAL/MOL
REMARK 923 INTER-LIGAND FREE ENERGY PREDICTED BY IDOCK:   -5.58 KCAL/MOL
REMARK 924 INTRA-LIGAND FREE ENERGY PREDICTED BY IDOCK:   -0.73 KCAL/MOL
REMARK 927      BINDING AFFINITY PREDICTED BY RF-SCORE:    0.00 PKD
ROOT
HETATM    1  C   UNL     1      -9.867  17.341  67.386  1.00  0.00    -0.272 C  
HETATM    2  O   UNL     1     -10.746  16.648  66.501  1.00  0.00    -0.250 OA 
ENDROOT
BRANCH   2   3
HETATM    3  C   UNL     1     -10.782  15.291  66.673  1.00  0.00    -0.309 A  
HETATM    4  C   UNL     1     -11.536  14.416  65.892  1.00  0.00    -0.341 A  
HETATM    5  C   UNL     1     -11.555  13.051  66.192  1.00  0.00    -0.366 A  
HETATM    6  O   UNL     1     -12.359  12.240  65.440  1.00  0.00    -0.582 OA 
HETATM    7  C   UNL     1     -10.804  12.538  67.259  1.00  0.00    -0.277 A  
HETATM    8  H   UNL     1     -12.371  11.312  65.644  1.00  0.00     0.000 HD 
HETATM    9  C   UNL     1      -9.976  13.412  67.977  1.00  0.00    -0.239 A  
HETATM   10  C   UNL     1      -9.975  14.782  67.690  1.00  0.00    -0.226 A  
BRANCH   7  11
HETATM   11  C   UNL     1     -10.822  11.080  67.574  1.00  0.00    -0.263 C  
HETATM   12  O   UNL     1     -10.647  10.261  66.675  1.00  0.00    -0.223 OA 
BRANCH  11  13
HETATM   13  C   UNL     1     -10.972  10.566  68.969  1.00  0.00    -0.289 A  
HETATM   14  C   UNL     1     -12.045  11.053  69.731  1.00  0.00    -0.424 A  
HETATM   15  C   UNL     1     -12.267  10.589  71.028  1.00  0.00    -0.505 A  
HETATM   16  C   UNL     1     -11.416   9.635  71.578  1.00  0.00    -0.439 A  
HETATM   17  C   UNL     1     -10.324   9.167  70.843  1.00  0.00    -0.349 A  
HETATM   18  C   UNL     1     -10.092   9.642  69.548  1.00  0.00    -0.223 A  
ENDBRANCH  11  13
ENDBRANCH   7  11
ENDBRANCH   2   3
TORSDOF 3
ENDMDL
MODEL       71
REMARK 921   NORMALIZED FREE ENERGY PREDICTED BY IDOCK:   -5.00 KCAL/MOL
REMARK 922        TOTAL FREE ENERGY PREDICTED BY IDOCK:   -6.26 KCAL/MOL
REMARK 923 INTER-LIGAND FREE ENERGY PREDICTED BY IDOCK:   -5.54 KCAL/MOL
REMARK 924 INTRA-LIGAND FREE ENERGY PREDICTED BY IDOCK:   -0.72 KCAL/MOL
REMARK 927      BINDING AFFINITY PREDICTED BY RF-SCORE:    0.00 PKD
ROOT
HETATM    1  C   UNL     1      -9.115   6.992  73.814  1.00  0.00    -0.185 C  
HETATM    2  O   UNL     1     -10.497   7.324  73.679  1.00  0.00    -0.365 OA 
ENDROOT
BRANCH   2   3
HETATM    3  C   UNL     1     -10.793   8.127  72.612  1.00  0.00    -0.359 A  
HETATM    4  C   UNL     1     -12.086   8.455  72.206  1.00  0.00    -0.456 A  
HETATM    5  C   UNL     1     -12.282   9.231  71.061  1.00  0.00    -0.255 A  
HETATM    6  O   UNL     1     -13.569   9.475  70.664  1.00  0.00    -0.588 OA 
HETATM    7  C   UNL     1     -11.194   9.708  70.318  1.00  0.00    -0.324 A  
HETATM    8  H   UNL     1     -13.702  10.002  69.885  1.00  0.00     0.000 HD 
HETATM    9  C   UNL     1      -9.898   9.452  70.788  1.00  0.00    -0.348 A  
HETATM   10  C   UNL     1      -9.702   8.656  71.923  1.00  0.00    -0.383 A  
BRANCH   7  11
HETATM   11  C   UNL     1     -11.406  10.540  69.099  1.00  0.00    -0.257 C  
HETATM   12  O   UNL     1     -12.137  11.526  69.155  1.00  0.00    -0.325 OA 
BRANCH  11  13
HETATM   13  C   UNL     1     -10.699  10.266  67.811  1.00  0.00    -0.324 A  
HETATM   14  C   UNL     1     -10.165  11.362  67.116  1.00  0.00    -0.234 A  
HETATM   15  C   UNL     1      -9.462  11.177  65.925  1.00  0.00    -0.241 A  
HETATM   16  C   UNL     1      -9.286   9.893  65.417  1.00  0.00    -0.297 A  
HETATM   17  C   UNL     1      -9.841   8.798  66.081  1.00  0.00    -0.297 A  
HETATM   18  C   UNL     1     -10.560   8.983  67.267  1.00  0.00    -0.301 A  
ENDBRANCH  11  13
ENDBRANCH   7  11
ENDBRANCH   2   3
TORSDOF 3
ENDMDL
MODEL       72
REMARK 921   NORMALIZED FREE ENERGY PREDICTED BY IDOCK:   -5.00 KCAL/MOL
REMARK 922        TOTAL FREE ENERGY PREDICTED BY IDOCK:   -6.26 KCAL/MOL
REMARK 923 INTER-LIGAND FREE ENERGY PREDICTED BY IDOCK:   -5.69 KCAL/MOL
REMARK 924 INTRA-LIGAND FREE ENERGY PREDICTED BY IDOCK:   -0.56 KCAL/MOL
REMARK 927      BINDING AFFINITY PREDICTED BY RF-SCORE:    0.00 PKD
ROOT
HETATM    1  C   UNL     1      -7.849  20.379  67.223  1.00  0.00    -0.334 C  
HETATM    2  O   UNL     1      -7.626  19.079  67.769  1.00  0.00    -0.239 OA 
ENDROOT
BRANCH   2   3
HETATM    3  C   UNL     1      -8.436  18.098  67.267  1.00  0.00    -0.242 A  
HETATM    4  C   UNL     1      -9.378  18.293  66.258  1.00  0.00    -0.223 A  
HETATM    5  C   UNL     1     -10.204  17.238  65.861  1.00  0.00    -0.261 A  
HETATM    6  O   UNL     1     -11.157  17.491  64.913  1.00  0.00    -0.860 OA 
HETATM    7  C   UNL     1     -10.087  15.971  66.448  1.00  0.00    -0.314 A  
HETATM    8  H   UNL     1     -11.719  16.774  64.643  1.00  0.00     0.000 HD 
HETATM    9  C   UNL     1      -9.074  15.762  67.394  1.00  0.00    -0.206 A  
HETATM   10  C   UNL     1      -8.262  16.824  67.807  1.00  0.00    -0.190 A  
BRANCH   7  11
HETATM   11  C   UNL     1     -10.967  14.845  66.019  1.00  0.00    -0.334 C  
HETATM   12  O   UNL     1     -11.410  14.822  64.873  1.00  0.00    -0.376 OA 
BRANCH  11  13
HETATM   13  C   UNL     1     -11.278  13.688  66.913  1.00  0.00    -0.326 A  
HETATM   14  C   UNL     1     -11.036  12.398  66.415  1.00  0.00    -0.343 A  
HETATM   15  C   UNL     1     -11.270  11.274  67.207  1.00  0.00    -0.364 A  
HETATM   16  C   UNL     1     -11.749  11.428  68.505  1.00  0.00    -0.386 A  
HETATM   17  C   UNL     1     -12.025  12.704  69.000  1.00  0.00    -0.282 A  
HETATM   18  C   UNL     1     -11.806  13.831  68.202  1.00  0.00    -0.411 A  
ENDBRANCH  11  13
ENDBRANCH   7  11
ENDBRANCH   2   3
TORSDOF 3
ENDMDL
MODEL       73
REMARK 921   NORMALIZED FREE ENERGY PREDICTED BY IDOCK:   -4.99 KCAL/MOL
REMARK 922        TOTAL FREE ENERGY PREDICTED BY IDOCK:   -6.25 KCAL/MOL
REMARK 923 INTER-LIGAND FREE ENERGY PREDICTED BY IDOCK:   -5.57 KCAL/MOL
REMARK 924 INTRA-LIGAND FREE ENERGY PREDICTED BY IDOCK:   -0.68 KCAL/MOL
REMARK 927      BINDING AFFINITY PREDICTED BY RF-SCORE:    0.00 PKD
ROOT
HETATM    1  C   UNL     1      -8.515   6.925  65.646  1.00  0.00    -0.136 C  
HETATM    2  O   UNL     1      -9.182   7.473  66.784  1.00  0.00    -0.141 OA 
ENDROOT
BRANCH   2   3
HETATM    3  C   UNL     1      -9.716   8.718  66.592  1.00  0.00    -0.242 A  
HETATM    4  C   UNL     1     -10.537   9.374  67.508  1.00  0.00    -0.333 A  
HETATM    5  C   UNL     1     -11.086  10.619  67.187  1.00  0.00    -0.196 A  
HETATM    6  O   UNL     1     -11.938  11.196  68.089  1.00  0.00    -0.615 OA 
HETATM    7  C   UNL     1     -10.805  11.235  65.960  1.00  0.00    -0.273 A  
HETATM    8  H   UNL     1     -12.310  12.042  67.871  1.00  0.00     0.000 HD 
HETATM    9  C   UNL     1      -9.903  10.611  65.087  1.00  0.00    -0.344 A  
HETATM   10  C   UNL     1      -9.372   9.354  65.399  1.00  0.00    -0.311 A  
BRANCH   7  11
HETATM   11  C   UNL     1     -11.388  12.566  65.622  1.00  0.00    -0.335 C  
HETATM   12  O   UNL     1     -12.548  12.638  65.223  1.00  0.00    -0.630 OA 
BRANCH  11  13
HETATM   13  C   UNL     1     -10.636  13.842  65.821  1.00  0.00    -0.300 A  
HETATM   14  C   UNL     1     -11.063  14.968  65.101  1.00  0.00    -0.408 A  
HETATM   15  C   UNL     1     -10.431  16.201  65.264  1.00  0.00    -0.356 A  
HETATM   16  C   UNL     1      -9.363  16.320  66.149  1.00  0.00    -0.374 A  
HETATM   17  C   UNL     1      -8.907  15.200  66.847  1.00  0.00    -0.284 A  
HETATM   18  C   UNL     1      -9.530  13.960  66.673  1.00  0.00    -0.296 A  
ENDBRANCH  11  13
ENDBRANCH   7  11
ENDBRANCH   2   3
TORSDOF 3
ENDMDL
MODEL       74
REMARK 921   NORMALIZED FREE ENERGY PREDICTED BY IDOCK:   -4.98 KCAL/MOL
REMARK 922        TOTAL FREE ENERGY PREDICTED BY IDOCK:   -6.24 KCAL/MOL
REMARK 923 INTER-LIGAND FREE ENERGY PREDICTED BY IDOCK:   -5.71 KCAL/MOL
REMARK 924 INTRA-LIGAND FREE ENERGY PREDICTED BY IDOCK:   -0.53 KCAL/MOL
REMARK 927      BINDING AFFINITY PREDICTED BY RF-SCORE:    0.00 PKD
ROOT
HETATM    1  C   UNL     1      -9.211   3.429  71.704  1.00  0.00    -0.123 C  
HETATM    2  O   UNL     1      -9.423   4.318  70.607  1.00  0.00    -0.139 OA 
ENDROOT
BRANCH   2   3
HETATM    3  C   UNL     1     -10.251   5.374  70.875  1.00  0.00    -0.234 A  
HETATM    4  C   UNL     1     -10.361   5.994  72.118  1.00  0.00    -0.232 A  
HETATM    5  C   UNL     1     -11.287   7.024  72.306  1.00  0.00    -0.268 A  
HETATM    6  O   UNL     1     -11.406   7.559  73.559  1.00  0.00    -0.620 OA 
HETATM    7  C   UNL     1     -12.096   7.465  71.250  1.00  0.00    -0.359 A  
HETATM    8  H   UNL     1     -12.035   8.260  73.686  1.00  0.00     0.000 HD 
HETATM    9  C   UNL     1     -11.910   6.900  69.981  1.00  0.00    -0.207 A  
HETATM   10  C   UNL     1     -10.999   5.853  69.800  1.00  0.00    -0.452 A  
BRANCH   7  11
HETATM   11  C   UNL     1     -13.080   8.569  71.451  1.00  0.00    -0.230 C  
HETATM   12  O   UNL     1     -14.158   8.332  71.991  1.00  0.00    -0.387 OA 
BRANCH  11  13
HETATM   13  C   UNL     1     -12.777   9.986  71.085  1.00  0.00    -0.484 A  
HETATM   14  C   UNL     1     -13.245  10.993  71.943  1.00  0.00    -0.503 A  
HETATM   15  C   UNL     1     -12.968  12.336  71.683  1.00  0.00    -0.416 A  
HETATM   16  C   UNL     1     -12.222  12.685  70.561  1.00  0.00    -0.383 A  
HETATM   17  C   UNL     1     -11.779  11.695  69.682  1.00  0.00    -0.418 A  
HETATM   18  C   UNL     1     -12.068  10.349  69.933  1.00  0.00    -0.252 A  
ENDBRANCH  11  13
ENDBRANCH   7  11
ENDBRANCH   2   3
TORSDOF 3
ENDMDL
MODEL       75
REMARK 921   NORMALIZED FREE ENERGY PREDICTED BY IDOCK:   -4.97 KCAL/MOL
REMARK 922        TOTAL FREE ENERGY PREDICTED BY IDOCK:   -6.23 KCAL/MOL
REMARK 923 INTER-LIGAND FREE ENERGY PREDICTED BY IDOCK:   -5.63 KCAL/MOL
REMARK 924 INTRA-LIGAND FREE ENERGY PREDICTED BY IDOCK:   -0.61 KCAL/MOL
REMARK 927      BINDING AFFINITY PREDICTED BY RF-SCORE:    0.00 PKD
ROOT
HETATM    1  C   UNL     1      -7.534  11.938  68.705  1.00  0.00    -0.118 C  
HETATM    2  O   UNL     1      -8.913  11.986  68.341  1.00  0.00    -0.183 OA 
ENDROOT
BRANCH   2   3
HETATM    3  C   UNL     1      -9.292  13.117  67.672  1.00  0.00    -0.205 A  
HETATM    4  C   UNL     1      -9.624  13.160  66.319  1.00  0.00    -0.241 A  
HETATM    5  C   UNL     1      -9.935  14.382  65.714  1.00  0.00    -0.329 A  
HETATM    6  O   UNL     1     -10.190  14.386  64.371  1.00  0.00    -0.576 OA 
HETATM    7  C   UNL     1      -9.941  15.571  66.455  1.00  0.00    -0.283 A  
HETATM    8  H   UNL     1     -10.402  15.216  63.960  1.00  0.00     0.000 HD 
HETATM    9  C   UNL     1      -9.700  15.503  67.835  1.00  0.00    -0.211 A  
HETATM   10  C   UNL     1      -9.366  14.283  68.435  1.00  0.00    -0.208 A  
BRANCH   7  11
HETATM   11  C   UNL     1     -10.278  16.873  65.809  1.00  0.00    -0.268 C  
HETATM   12  O   UNL     1     -10.941  16.885  64.775  1.00  0.00    -0.772 OA 
BRANCH  11  13
HETATM   13  C   UNL     1      -9.902  18.186  66.414  1.00  0.00    -0.353 A  
HETATM   14  C   UNL     1      -8.603  18.662  66.181  1.00  0.00    -0.155 A  
HETATM   15  C   UNL     1      -8.195  19.898  66.685  1.00  0.00    -0.359 A  
HETATM   16  C   UNL     1      -9.083  20.670  67.429  1.00  0.00    -0.392 A  
HETATM   17  C   UNL     1     -10.367  20.193  67.696  1.00  0.00    -0.466 A  
HETATM   18  C   UNL     1     -10.773  18.948  67.205  1.00  0.00    -0.506 A  
ENDBRANCH  11  13
ENDBRANCH   7  11
ENDBRANCH   2   3
TORSDOF 3
ENDMDL
MODEL       76
REMARK 921   NORMALIZED FREE ENERGY PREDICTED BY IDOCK:   -4.97 KCAL/MOL
REMARK 922        TOTAL FREE ENERGY PREDICTED BY IDOCK:   -6.22 KCAL/MOL
REMARK 923 INTER-LIGAND FREE ENERGY PREDICTED BY IDOCK:   -5.72 KCAL/MOL
REMARK 924 INTRA-LIGAND FREE ENERGY PREDICTED BY IDOCK:   -0.51 KCAL/MOL
REMARK 927      BINDING AFFINITY PREDICTED BY RF-SCORE:    0.00 PKD
ROOT
HETATM    1  C   UNL     1     -12.639   8.597  71.837  1.00  0.00    -0.359 C  
HETATM    2  O   UNL     1     -11.288   8.976  71.569  1.00  0.00    -0.292 OA 
ENDROOT
BRANCH   2   3
HETATM    3  C   UNL     1     -11.147  10.022  70.698  1.00  0.00    -0.335 A  
HETATM    4  C   UNL     1     -10.141  10.119  69.738  1.00  0.00    -0.269 A  
HETATM    5  C   UNL     1     -10.046  11.262  68.939  1.00  0.00    -0.170 A  
HETATM    6  O   UNL     1      -9.005  11.342  68.055  1.00  0.00    -0.144 OA 
HETATM    7  C   UNL     1     -10.965  12.311  69.071  1.00  0.00    -0.250 A  
HETATM    8  H   UNL     1      -8.940  12.118  67.512  1.00  0.00     0.000 HD 
HETATM    9  C   UNL     1     -12.028  12.162  69.973  1.00  0.00    -0.391 A  
HETATM   10  C   UNL     1     -12.110  11.027  70.788  1.00  0.00    -0.467 A  
BRANCH   7  11
HETATM   11  C   UNL     1     -10.864  13.528  68.214  1.00  0.00    -0.259 C  
HETATM   12  O   UNL     1     -10.316  14.537  68.652  1.00  0.00    -0.230 OA 
BRANCH  11  13
HETATM   13  C   UNL     1     -11.342  13.550  66.798  1.00  0.00    -0.351 A  
HETATM   14  C   UNL     1     -11.235  14.760  66.094  1.00  0.00    -0.337 A  
HETATM   15  C   UNL     1     -11.629  14.844  64.758  1.00  0.00    -0.410 A  
HETATM   16  C   UNL     1     -12.135  13.720  64.113  1.00  0.00    -0.478 A  
HETATM   17  C   UNL     1     -12.277  12.519  64.811  1.00  0.00    -0.532 A  
HETATM   18  C   UNL     1     -11.898  12.437  66.155  1.00  0.00    -0.442 A  
ENDBRANCH  11  13
ENDBRANCH   7  11
ENDBRANCH   2   3
TORSDOF 3
ENDMDL
MODEL       77
REMARK 921   NORMALIZED FREE ENERGY PREDICTED BY IDOCK:   -4.94 KCAL/MOL
REMARK 922        TOTAL FREE ENERGY PREDICTED BY IDOCK:   -6.19 KCAL/MOL
REMARK 923 INTER-LIGAND FREE ENERGY PREDICTED BY IDOCK:   -5.53 KCAL/MOL
REMARK 924 INTRA-LIGAND FREE ENERGY PREDICTED BY IDOCK:   -0.66 KCAL/MOL
REMARK 927      BINDING AFFINITY PREDICTED BY RF-SCORE:    0.00 PKD
ROOT
HETATM    1  C   UNL     1     -12.335  15.147  74.219  1.00  0.00    -0.533 C  
HETATM    2  O   UNL     1     -13.084  14.458  73.217  1.00  0.00    -0.587 OA 
ENDROOT
BRANCH   2   3
HETATM    3  C   UNL     1     -12.571  14.549  71.952  1.00  0.00    -0.341 A  
HETATM    4  C   UNL     1     -12.616  13.525  71.007  1.00  0.00    -0.438 A  
HETATM    5  C   UNL     1     -12.003  13.696  69.763  1.00  0.00    -0.341 A  
HETATM    6  O   UNL     1     -12.015  12.642  68.891  1.00  0.00    -0.302 OA 
HETATM    7  C   UNL     1     -11.359  14.897  69.436  1.00  0.00    -0.312 A  
HETATM    8  H   UNL     1     -11.599  12.759  68.045  1.00  0.00     0.000 HD 
HETATM    9  C   UNL     1     -11.403  15.954  70.357  1.00  0.00    -0.399 A  
HETATM   10  C   UNL     1     -11.997  15.773  71.612  1.00  0.00    -0.527 A  
BRANCH   7  11
HETATM   11  C   UNL     1     -10.710  15.080  68.105  1.00  0.00    -0.256 C  
HETATM   12  O   UNL     1     -11.396  15.059  67.086  1.00  0.00    -0.338 OA 
BRANCH  11  13
HETATM   13  C   UNL     1      -9.250  15.364  67.960  1.00  0.00    -0.184 A  
HETATM   14  C   UNL     1      -8.398  14.935  68.988  1.00  0.00    -0.175 A  
HETATM   15  C   UNL     1      -7.020  15.135  68.902  1.00  0.00    -0.124 A  
HETATM   16  C   UNL     1      -6.480  15.769  67.787  1.00  0.00    -0.176 A  
HETATM   17  C   UNL     1      -7.321  16.231  66.772  1.00  0.00    -0.244 A  
HETATM   18  C   UNL     1      -8.704  16.045  66.864  1.00  0.00    -0.259 A  
ENDBRANCH  11  13
ENDBRANCH   7  11
ENDBRANCH   2   3
TORSDOF 3
ENDMDL
MODEL       78
REMARK 921   NORMALIZED FREE ENERGY PREDICTED BY IDOCK:   -4.93 KCAL/MOL
REMARK 922        TOTAL FREE ENERGY PREDICTED BY IDOCK:   -6.18 KCAL/MOL
REMARK 923 INTER-LIGAND FREE ENERGY PREDICTED BY IDOCK:   -5.54 KCAL/MOL
REMARK 924 INTRA-LIGAND FREE ENERGY PREDICTED BY IDOCK:   -0.65 KCAL/MOL
REMARK 927      BINDING AFFINITY PREDICTED BY RF-SCORE:    0.00 PKD
ROOT
HETATM    1  C   UNL     1     -11.985   8.191  72.213  1.00  0.00    -0.377 C  
HETATM    2  O   UNL     1     -11.635   9.543  71.916  1.00  0.00    -0.371 OA 
ENDROOT
BRANCH   2   3
HETATM    3  C   UNL     1     -11.393   9.796  70.594  1.00  0.00    -0.330 A  
HETATM    4  C   UNL     1     -10.539   9.043  69.790  1.00  0.00    -0.236 A  
HETATM    5  C   UNL     1     -10.309   9.426  68.465  1.00  0.00    -0.209 A  
HETATM    6  O   UNL     1      -9.414   8.695  67.733  1.00  0.00    -0.139 OA 
HETATM    7  C   UNL     1     -10.944  10.549  67.919  1.00  0.00    -0.352 A  
HETATM    8  H   UNL     1      -9.258   8.955  66.832  1.00  0.00     0.000 HD 
HETATM    9  C   UNL     1     -11.874  11.243  68.707  1.00  0.00    -0.396 A  
HETATM   10  C   UNL     1     -12.086  10.872  70.040  1.00  0.00    -0.433 A  
BRANCH   7  11
HETATM   11  C   UNL     1     -10.701  10.952  66.504  1.00  0.00    -0.209 C  
HETATM   12  O   UNL     1     -10.376  10.104  65.677  1.00  0.00    -0.240 OA 
BRANCH  11  13
HETATM   13  C   UNL     1     -10.910  12.352  66.024  1.00  0.00    -0.308 A  
HETATM   14  C   UNL     1     -12.058  12.614  65.260  1.00  0.00    -0.519 A  
HETATM   15  C   UNL     1     -12.335  13.905  64.809  1.00  0.00    -0.429 A  
HETATM   16  C   UNL     1     -11.466  14.948  65.117  1.00  0.00    -0.357 A  
HETATM   17  C   UNL     1     -10.304  14.695  65.848  1.00  0.00    -0.334 A  
HETATM   18  C   UNL     1     -10.016  13.398  66.288  1.00  0.00    -0.298 A  
ENDBRANCH  11  13
ENDBRANCH   7  11
ENDBRANCH   2   3
TORSDOF 3
ENDMDL
MODEL       79
REMARK 921   NORMALIZED FREE ENERGY PREDICTED BY IDOCK:   -4.89 KCAL/MOL
REMARK 922        TOTAL FREE ENERGY PREDICTED BY IDOCK:   -6.13 KCAL/MOL
REMARK 923 INTER-LIGAND FREE ENERGY PREDICTED BY IDOCK:   -5.42 KCAL/MOL
REMARK 924 INTRA-LIGAND FREE ENERGY PREDICTED BY IDOCK:   -0.71 KCAL/MOL
REMARK 927      BINDING AFFINITY PREDICTED BY RF-SCORE:    0.00 PKD
ROOT
HETATM    1  C   UNL     1      -9.566  11.024  64.591  1.00  0.00    -0.254 C  
HETATM    2  O   UNL     1      -8.977  11.333  65.855  1.00  0.00    -0.204 OA 
ENDROOT
BRANCH   2   3
HETATM    3  C   UNL     1      -9.459  12.466  66.451  1.00  0.00    -0.240 A  
HETATM    4  C   UNL     1     -10.803  12.835  66.473  1.00  0.00    -0.280 A  
HETATM    5  C   UNL     1     -11.184  14.048  67.053  1.00  0.00    -0.313 A  
HETATM    6  O   UNL     1     -12.505  14.401  66.994  1.00  0.00    -0.579 OA 
HETATM    7  C   UNL     1     -10.235  14.897  67.639  1.00  0.00    -0.236 A  
HETATM    8  H   UNL     1     -12.764  15.225  67.388  1.00  0.00     0.000 HD 
HETATM    9  C   UNL     1      -8.901  14.471  67.696  1.00  0.00    -0.189 A  
HETATM   10  C   UNL     1      -8.516  13.267  67.095  1.00  0.00    -0.182 A  
BRANCH   7  11
HETATM   11  C   UNL     1     -10.645  16.188  68.262  1.00  0.00    -0.288 C  
HETATM   12  O   UNL     1     -11.416  16.185  69.219  1.00  0.00    -0.334 OA 
BRANCH  11  13
HETATM   13  C   UNL     1     -10.094  17.503  67.814  1.00  0.00    -0.330 A  
HETATM   14  C   UNL     1     -10.656  18.089  66.669  1.00  0.00    -0.268 A  
HETATM   15  C   UNL     1     -10.215  19.332  66.215  1.00  0.00    -0.546 A  
HETATM   16  C   UNL     1      -9.205  20.001  66.899  1.00  0.00    -0.497 A  
HETATM   17  C   UNL     1      -8.613  19.414  68.019  1.00  0.00    -0.362 A  
HETATM   18  C   UNL     1      -9.044  18.161  68.468  1.00  0.00    -0.318 A  
ENDBRANCH  11  13
ENDBRANCH   7  11
ENDBRANCH   2   3
TORSDOF 3
ENDMDL
MODEL       80
REMARK 921   NORMALIZED FREE ENERGY PREDICTED BY IDOCK:   -4.84 KCAL/MOL
REMARK 922        TOTAL FREE ENERGY PREDICTED BY IDOCK:   -6.08 KCAL/MOL
REMARK 923 INTER-LIGAND FREE ENERGY PREDICTED BY IDOCK:   -5.60 KCAL/MOL
REMARK 924 INTRA-LIGAND FREE ENERGY PREDICTED BY IDOCK:   -0.47 KCAL/MOL
REMARK 927      BINDING AFFINITY PREDICTED BY RF-SCORE:    0.00 PKD
ROOT
HETATM    1  C   UNL     1     -11.587   7.038  72.166  1.00  0.00    -0.282 C  
HETATM    2  O   UNL     1     -10.851   7.258  70.962  1.00  0.00    -0.234 OA 
ENDROOT
BRANCH   2   3
HETATM    3  C   UNL     1     -11.075   8.468  70.364  1.00  0.00    -0.231 A  
HETATM    4  C   UNL     1     -10.512   8.865  69.153  1.00  0.00    -0.236 A  
HETATM    5  C   UNL     1     -10.753  10.151  68.659  1.00  0.00    -0.222 A  
HETATM    6  O   UNL     1     -10.128  10.520  67.499  1.00  0.00    -0.176 OA 
HETATM    7  C   UNL     1     -11.576  11.047  69.354  1.00  0.00    -0.383 A  
HETATM    8  H   UNL     1     -10.292  11.393  67.164  1.00  0.00     0.000 HD 
HETATM    9  C   UNL     1     -12.213  10.604  70.522  1.00  0.00    -0.449 A  
HETATM   10  C   UNL     1     -11.953   9.325  71.027  1.00  0.00    -0.369 A  
BRANCH   7  11
HETATM   11  C   UNL     1     -11.836  12.416  68.823  1.00  0.00    -0.311 C  
HETATM   12  O   UNL     1     -12.153  12.561  67.645  1.00  0.00    -0.436 OA 
BRANCH  11  13
HETATM   13  C   UNL     1     -11.798  13.631  69.692  1.00  0.00    -0.396 A  
HETATM   14  C   UNL     1     -10.823  14.601  69.413  1.00  0.00    -0.261 A  
HETATM   15  C   UNL     1     -10.753  15.777  70.161  1.00  0.00    -0.354 A  
HETATM   16  C   UNL     1     -11.657  15.995  71.196  1.00  0.00    -0.492 A  
HETATM   17  C   UNL     1     -12.610  15.023  71.506  1.00  0.00    -0.410 A  
HETATM   18  C   UNL     1     -12.673  13.836  70.767  1.00  0.00    -0.361 A  
ENDBRANCH  11  13
ENDBRANCH   7  11
ENDBRANCH   2   3
TORSDOF 3
ENDMDL
MODEL       81
REMARK 921   NORMALIZED FREE ENERGY PREDICTED BY IDOCK:   -4.84 KCAL/MOL
REMARK 922        TOTAL FREE ENERGY PREDICTED BY IDOCK:   -6.07 KCAL/MOL
REMARK 923 INTER-LIGAND FREE ENERGY PREDICTED BY IDOCK:   -5.54 KCAL/MOL
REMARK 924 INTRA-LIGAND FREE ENERGY PREDICTED BY IDOCK:   -0.53 KCAL/MOL
REMARK 927      BINDING AFFINITY PREDICTED BY RF-SCORE:    0.00 PKD
ROOT
HETATM    1  C   UNL     1     -11.421  16.076  71.552  1.00  0.00    -0.385 C  
HETATM    2  O   UNL     1     -12.083  14.811  71.566  1.00  0.00    -0.322 OA 
ENDROOT
BRANCH   2   3
HETATM    3  C   UNL     1     -11.972  14.091  70.408  1.00  0.00    -0.328 A  
HETATM    4  C   UNL     1     -12.245  12.729  70.296  1.00  0.00    -0.351 A  
HETATM    5  C   UNL     1     -12.035  12.072  69.080  1.00  0.00    -0.268 A  
HETATM    6  O   UNL     1     -12.254  10.722  69.034  1.00  0.00    -0.697 OA 
HETATM    7  C   UNL     1     -11.575  12.769  67.955  1.00  0.00    -0.388 A  
HETATM    8  H   UNL     1     -12.112  10.276  68.208  1.00  0.00     0.000 HD 
HETATM    9  C   UNL     1     -11.395  14.156  68.053  1.00  0.00    -0.324 A  
HETATM   10  C   UNL     1     -11.583  14.808  69.277  1.00  0.00    -0.331 A  
BRANCH   7  11
HETATM   11  C   UNL     1     -11.357  12.067  66.657  1.00  0.00    -0.340 C  
HETATM   12  O   UNL     1     -12.148  12.239  65.732  1.00  0.00    -0.587 OA 
BRANCH  11  13
HETATM   13  C   UNL     1     -10.161  11.207  66.404  1.00  0.00    -0.279 A  
HETATM   14  C   UNL     1      -8.901  11.825  66.414  1.00  0.00    -0.170 A  
HETATM   15  C   UNL     1      -7.739  11.078  66.220  1.00  0.00    -0.132 A  
HETATM   16  C   UNL     1      -7.825   9.705  66.013  1.00  0.00    -0.102 A  
HETATM   17  C   UNL     1      -9.074   9.082  65.967  1.00  0.00    -0.257 A  
HETATM   18  C   UNL     1     -10.241   9.832  66.146  1.00  0.00    -0.278 A  
ENDBRANCH  11  13
ENDBRANCH   7  11
ENDBRANCH   2   3
TORSDOF 3
ENDMDL
MODEL       82
REMARK 921   NORMALIZED FREE ENERGY PREDICTED BY IDOCK:   -4.83 KCAL/MOL
REMARK 922        TOTAL FREE ENERGY PREDICTED BY IDOCK:   -6.06 KCAL/MOL
REMARK 923 INTER-LIGAND FREE ENERGY PREDICTED BY IDOCK:   -5.54 KCAL/MOL
REMARK 924 INTRA-LIGAND FREE ENERGY PREDICTED BY IDOCK:   -0.51 KCAL/MOL
REMARK 927      BINDING AFFINITY PREDICTED BY RF-SCORE:    0.00 PKD
ROOT
HETATM    1  C   UNL     1     -12.309   7.047  71.182  1.00  0.00    -0.378 C  
HETATM    2  O   UNL     1     -11.219   6.685  70.334  1.00  0.00    -0.291 OA 
ENDROOT
BRANCH   2   3
HETATM    3  C   UNL     1     -10.872   7.632  69.410  1.00  0.00    -0.127 A  
HETATM    4  C   UNL     1     -10.584   7.362  68.073  1.00  0.00    -0.235 A  
HETATM    5  C   UNL     1     -10.174   8.394  67.224  1.00  0.00    -0.279 A  
HETATM    6  O   UNL     1      -9.840   8.072  65.938  1.00  0.00    -0.443 OA 
HETATM    7  C   UNL     1     -10.069   9.711  67.691  1.00  0.00    -0.241 A  
HETATM    8  H   UNL     1      -9.561   8.774  65.361  1.00  0.00     0.000 HD 
HETATM    9  C   UNL     1     -10.453   9.988  69.011  1.00  0.00    -0.233 A  
HETATM   10  C   UNL     1     -10.841   8.950  69.866  1.00  0.00    -0.219 A  
BRANCH   7  11
HETATM   11  C   UNL     1      -9.637  10.812  66.782  1.00  0.00    -0.172 C  
HETATM   12  O   UNL     1      -8.469  11.195  66.803  1.00  0.00    -0.141 OA 
BRANCH  11  13
HETATM   13  C   UNL     1     -10.557  11.430  65.780  1.00  0.00    -0.315 A  
HETATM   14  C   UNL     1     -10.312  11.168  64.423  1.00  0.00    -0.407 A  
HETATM   15  C   UNL     1     -11.152  11.682  63.434  1.00  0.00    -0.422 A  
HETATM   16  C   UNL     1     -12.245  12.465  63.793  1.00  0.00    -0.626 A  
HETATM   17  C   UNL     1     -12.480  12.761  65.137  1.00  0.00    -0.565 A  
HETATM   18  C   UNL     1     -11.631  12.259  66.128  1.00  0.00    -0.450 A  
ENDBRANCH  11  13
ENDBRANCH   7  11
ENDBRANCH   2   3
TORSDOF 3
ENDMDL
MODEL       83
REMARK 921   NORMALIZED FREE ENERGY PREDICTED BY IDOCK:   -4.82 KCAL/MOL
REMARK 922        TOTAL FREE ENERGY PREDICTED BY IDOCK:   -6.05 KCAL/MOL
REMARK 923 INTER-LIGAND FREE ENERGY PREDICTED BY IDOCK:   -5.72 KCAL/MOL
REMARK 924 INTRA-LIGAND FREE ENERGY PREDICTED BY IDOCK:   -0.33 KCAL/MOL
REMARK 927      BINDING AFFINITY PREDICTED BY RF-SCORE:    0.00 PKD
ROOT
HETATM    1  C   UNL     1     -11.912   6.613  70.613  1.00  0.00    -0.343 C  
HETATM    2  O   UNL     1     -10.836   7.551  70.642  1.00  0.00    -0.231 OA 
ENDROOT
BRANCH   2   3
HETATM    3  C   UNL     1     -11.219   8.863  70.696  1.00  0.00    -0.266 A  
HETATM    4  C   UNL     1     -12.173   9.371  71.576  1.00  0.00    -0.448 A  
HETATM    5  C   UNL     1     -12.543  10.717  71.505  1.00  0.00    -0.395 A  
HETATM    6  O   UNL     1     -13.529  11.157  72.344  1.00  0.00    -0.590 OA 
HETATM    7  C   UNL     1     -11.949  11.579  70.573  1.00  0.00    -0.439 A  
HETATM    8  H   UNL     1     -13.780  12.072  72.296  1.00  0.00     0.000 HD 
HETATM    9  C   UNL     1     -10.923  11.080  69.757  1.00  0.00    -0.258 A  
HETATM   10  C   UNL     1     -10.570   9.727  69.813  1.00  0.00    -0.285 A  
BRANCH   7  11
HETATM   11  C   UNL     1     -12.340  13.016  70.502  1.00  0.00    -0.287 C  
HETATM   12  O   UNL     1     -13.145  13.468  71.313  1.00  0.00    -0.321 OA 
BRANCH  11  13
HETATM   13  C   UNL     1     -11.732  13.964  69.519  1.00  0.00    -0.369 A  
HETATM   14  C   UNL     1     -12.039  13.780  68.162  1.00  0.00    -0.316 A  
HETATM   15  C   UNL     1     -11.535  14.649  67.194  1.00  0.00    -0.380 A  
HETATM   16  C   UNL     1     -10.717  15.709  67.572  1.00  0.00    -0.303 A  
HETATM   17  C   UNL     1     -10.377  15.883  68.915  1.00  0.00    -0.228 A  
HETATM   18  C   UNL     1     -10.868  15.004  69.886  1.00  0.00    -0.266 A  
ENDBRANCH  11  13
ENDBRANCH   7  11
ENDBRANCH   2   3
TORSDOF 3
ENDMDL
MODEL       84
REMARK 921   NORMALIZED FREE ENERGY PREDICTED BY IDOCK:   -4.82 KCAL/MOL
REMARK 922        TOTAL FREE ENERGY PREDICTED BY IDOCK:   -6.05 KCAL/MOL
REMARK 923 INTER-LIGAND FREE ENERGY PREDICTED BY IDOCK:   -5.33 KCAL/MOL
REMARK 924 INTRA-LIGAND FREE ENERGY PREDICTED BY IDOCK:   -0.71 KCAL/MOL
REMARK 927      BINDING AFFINITY PREDICTED BY RF-SCORE:    0.00 PKD
ROOT
HETATM    1  C   UNL     1     -11.463  10.519  68.278  1.00  0.00    -0.199 C  
HETATM    2  O   UNL     1     -11.805  11.445  67.247  1.00  0.00    -0.594 OA 
ENDROOT
BRANCH   2   3
HETATM    3  C   UNL     1     -11.384  12.729  67.465  1.00  0.00    -0.312 A  
HETATM    4  C   UNL     1     -10.667  13.144  68.586  1.00  0.00    -0.274 A  
HETATM    5  C   UNL     1     -10.340  14.494  68.746  1.00  0.00    -0.243 A  
HETATM    6  O   UNL     1      -9.693  14.866  69.892  1.00  0.00    -0.448 OA 
HETATM    7  C   UNL     1     -10.704  15.442  67.780  1.00  0.00    -0.289 A  
HETATM    8  H   UNL     1      -9.472  15.783  70.001  1.00  0.00     0.000 HD 
HETATM    9  C   UNL     1     -11.340  14.998  66.612  1.00  0.00    -0.289 A  
HETATM   10  C   UNL     1     -11.687  13.650  66.464  1.00  0.00    -0.414 A  
BRANCH   7  11
HETATM   11  C   UNL     1     -10.350  16.881  67.950  1.00  0.00    -0.332 C  
HETATM   12  O   UNL     1     -10.962  17.565  68.768  1.00  0.00    -0.118 OA 
BRANCH  11  13
HETATM   13  C   UNL     1      -9.219  17.519  67.212  1.00  0.00    -0.240 A  
HETATM   14  C   UNL     1      -9.334  18.881  66.894  1.00  0.00    -0.333 A  
HETATM   15  C   UNL     1      -8.301  19.550  66.238  1.00  0.00    -0.359 A  
HETATM   16  C   UNL     1      -7.141  18.863  65.891  1.00  0.00    -0.294 A  
HETATM   17  C   UNL     1      -7.027  17.500  66.171  1.00  0.00    -0.323 A  
HETATM   18  C   UNL     1      -8.069  16.824  66.815  1.00  0.00    -0.273 A  
ENDBRANCH  11  13
ENDBRANCH   7  11
ENDBRANCH   2   3
TORSDOF 3
ENDMDL
MODEL       85
REMARK 921   NORMALIZED FREE ENERGY PREDICTED BY IDOCK:   -4.81 KCAL/MOL
REMARK 922        TOTAL FREE ENERGY PREDICTED BY IDOCK:   -6.04 KCAL/MOL
REMARK 923 INTER-LIGAND FREE ENERGY PREDICTED BY IDOCK:   -5.93 KCAL/MOL
REMARK 924 INTRA-LIGAND FREE ENERGY PREDICTED BY IDOCK:   -0.12 KCAL/MOL
REMARK 927      BINDING AFFINITY PREDICTED BY RF-SCORE:    0.00 PKD
ROOT
HETATM    1  C   UNL     1     -12.679  14.387  70.929  1.00  0.00    -0.355 C  
HETATM    2  O   UNL     1     -13.443  13.389  71.605  1.00  0.00    -0.360 OA 
ENDROOT
BRANCH   2   3
HETATM    3  C   UNL     1     -12.995  12.108  71.432  1.00  0.00    -0.257 A  
HETATM    4  C   UNL     1     -13.507  10.996  72.100  1.00  0.00    -0.200 A  
HETATM    5  C   UNL     1     -12.934   9.737  71.901  1.00  0.00    -0.440 A  
HETATM    6  O   UNL     1     -13.427   8.687  72.626  1.00  0.00    -0.621 OA 
HETATM    7  C   UNL     1     -11.860   9.566  71.018  1.00  0.00    -0.408 A  
HETATM    8  H   UNL     1     -13.037   7.831  72.491  1.00  0.00     0.000 HD 
HETATM    9  C   UNL     1     -11.415  10.672  70.281  1.00  0.00    -0.422 A  
HETATM   10  C   UNL     1     -11.975  11.937  70.497  1.00  0.00    -0.360 A  
BRANCH   7  11
HETATM   11  C   UNL     1     -11.253   8.220  70.804  1.00  0.00    -0.264 C  
HETATM   12  O   UNL     1     -10.950   7.863  69.668  1.00  0.00    -0.214 OA 
BRANCH  11  13
HETATM   13  C   UNL     1     -10.926   7.301  71.936  1.00  0.00    -0.260 A  
HETATM   14  C   UNL     1     -10.105   7.798  72.961  1.00  0.00    -0.382 A  
HETATM   15  C   UNL     1      -9.788   7.008  74.066  1.00  0.00    -0.345 A  
HETATM   16  C   UNL     1     -10.287   5.711  74.157  1.00  0.00    -0.299 A  
HETATM   17  C   UNL     1     -11.076   5.194  73.128  1.00  0.00    -0.391 A  
HETATM   18  C   UNL     1     -11.383   5.979  72.012  1.00  0.00    -0.345 A  
ENDBRANCH  11  13
ENDBRANCH   7  11
ENDBRANCH   2   3
TORSDOF 3
ENDMDL
MODEL       86
REMARK 921   NORMALIZED FREE ENERGY PREDICTED BY IDOCK:   -4.81 KCAL/MOL
REMARK 922        TOTAL FREE ENERGY PREDICTED BY IDOCK:   -6.03 KCAL/MOL
REMARK 923 INTER-LIGAND FREE ENERGY PREDICTED BY IDOCK:   -5.27 KCAL/MOL
REMARK 924 INTRA-LIGAND FREE ENERGY PREDICTED BY IDOCK:   -0.77 KCAL/MOL
REMARK 927      BINDING AFFINITY PREDICTED BY RF-SCORE:    0.00 PKD
ROOT
HETATM    1  C   UNL     1      -8.378   8.723  64.135  1.00  0.00    -0.149 C  
HETATM    2  O   UNL     1      -9.350   9.636  64.645  1.00  0.00    -0.260 OA 
ENDROOT
BRANCH   2   3
HETATM    3  C   UNL     1      -9.427   9.691  66.010  1.00  0.00    -0.225 A  
HETATM    4  C   UNL     1      -8.944  10.744  66.785  1.00  0.00    -0.157 A  
HETATM    5  C   UNL     1      -9.012  10.673  68.180  1.00  0.00    -0.141 A  
HETATM    6  O   UNL     1      -8.468  11.699  68.901  1.00  0.00    -0.340 OA 
HETATM    7  C   UNL     1      -9.582   9.563  68.817  1.00  0.00    -0.159 A  
HETATM    8  H   UNL     1      -8.515  11.651  69.849  1.00  0.00     0.000 HD 
HETATM    9  C   UNL     1     -10.150   8.554  68.026  1.00  0.00    -0.245 A  
HETATM   10  C   UNL     1     -10.061   8.615  66.631  1.00  0.00    -0.364 A  
BRANCH   7  11
HETATM   11  C   UNL     1      -9.658   9.492  70.305  1.00  0.00    -0.265 C  
HETATM   12  O   UNL     1      -8.624   9.498  70.968  1.00  0.00    -0.273 OA 
BRANCH  11  13
HETATM   13  C   UNL     1     -10.960   9.487  71.040  1.00  0.00    -0.424 A  
HETATM   14  C   UNL     1     -11.851  10.542  70.791  1.00  0.00    -0.465 A  
HETATM   15  C   UNL     1     -13.099  10.583  71.414  1.00  0.00    -0.509 A  
HETATM   16  C   UNL     1     -13.467   9.570  72.295  1.00  0.00    -0.521 A  
HETATM   17  C   UNL     1     -12.575   8.533  72.578  1.00  0.00    -0.346 A  
HETATM   18  C   UNL     1     -11.318   8.498  71.965  1.00  0.00    -0.425 A  
ENDBRANCH  11  13
ENDBRANCH   7  11
ENDBRANCH   2   3
TORSDOF 3
ENDMDL
MODEL       87
REMARK 921   NORMALIZED FREE ENERGY PREDICTED BY IDOCK:   -4.80 KCAL/MOL
REMARK 922        TOTAL FREE ENERGY PREDICTED BY IDOCK:   -6.03 KCAL/MOL
REMARK 923 INTER-LIGAND FREE ENERGY PREDICTED BY IDOCK:   -5.49 KCAL/MOL
REMARK 924 INTRA-LIGAND FREE ENERGY PREDICTED BY IDOCK:   -0.54 KCAL/MOL
REMARK 927      BINDING AFFINITY PREDICTED BY RF-SCORE:    0.00 PKD
ROOT
HETATM    1  C   UNL     1      -5.863  17.633  68.878  1.00  0.00    -0.186 C  
HETATM    2  O   UNL     1      -6.119  17.386  67.495  1.00  0.00    -0.137 OA 
ENDROOT
BRANCH   2   3
HETATM    3  C   UNL     1      -7.289  16.725  67.237  1.00  0.00    -0.175 A  
HETATM    4  C   UNL     1      -8.278  17.183  66.368  1.00  0.00    -0.327 A  
HETATM    5  C   UNL     1      -9.468  16.464  66.224  1.00  0.00    -0.317 A  
HETATM    6  O   UNL     1     -10.437  16.984  65.411  1.00  0.00    -0.619 OA 
HETATM    7  C   UNL     1      -9.677  15.268  66.925  1.00  0.00    -0.243 A  
HETATM    8  H   UNL     1     -11.246  16.495  65.313  1.00  0.00     0.000 HD 
HETATM    9  C   UNL     1      -8.637  14.768  67.721  1.00  0.00    -0.169 A  
HETATM   10  C   UNL     1      -7.455  15.500  67.883  1.00  0.00    -0.150 A  
BRANCH   7  11
HETATM   11  C   UNL     1     -10.945  14.500  66.765  1.00  0.00    -0.316 C  
HETATM   12  O   UNL     1     -11.873  14.689  67.548  1.00  0.00    -0.380 OA 
BRANCH  11  13
HETATM   13  C   UNL     1     -11.167  13.550  65.633  1.00  0.00    -0.304 A  
HETATM   14  C   UNL     1     -10.526  12.303  65.695  1.00  0.00    -0.293 A  
HETATM   15  C   UNL     1     -10.717  11.353  64.690  1.00  0.00    -0.378 A  
HETATM   16  C   UNL     1     -11.550  11.641  63.614  1.00  0.00    -0.435 A  
HETATM   17  C   UNL     1     -12.168  12.890  63.523  1.00  0.00    -0.595 A  
HETATM   18  C   UNL     1     -11.965  13.849  64.521  1.00  0.00    -0.464 A  
ENDBRANCH  11  13
ENDBRANCH   7  11
ENDBRANCH   2   3
TORSDOF 3
ENDMDL
MODEL       88
REMARK 921   NORMALIZED FREE ENERGY PREDICTED BY IDOCK:   -4.80 KCAL/MOL
REMARK 922        TOTAL FREE ENERGY PREDICTED BY IDOCK:   -6.02 KCAL/MOL
REMARK 923 INTER-LIGAND FREE ENERGY PREDICTED BY IDOCK:   -5.37 KCAL/MOL
REMARK 924 INTRA-LIGAND FREE ENERGY PREDICTED BY IDOCK:   -0.65 KCAL/MOL
REMARK 927      BINDING AFFINITY PREDICTED BY RF-SCORE:    0.00 PKD
ROOT
HETATM    1  C   UNL     1      -8.069   8.959  64.523  1.00  0.00    -0.150 C  
HETATM    2  O   UNL     1      -8.989   8.866  65.610  1.00  0.00    -0.182 OA 
ENDROOT
BRANCH   2   3
HETATM    3  C   UNL     1      -9.699  10.008  65.862  1.00  0.00    -0.247 A  
HETATM    4  C   UNL     1      -9.700  11.134  65.040  1.00  0.00    -0.298 A  
HETATM    5  C   UNL     1     -10.408  12.277  65.421  1.00  0.00    -0.269 A  
HETATM    6  O   UNL     1     -10.328  13.380  64.616  1.00  0.00    -0.432 OA 
HETATM    7  C   UNL     1     -11.144  12.304  66.613  1.00  0.00    -0.344 A  
HETATM    8  H   UNL     1     -10.809  14.156  64.875  1.00  0.00     0.000 HD 
HETATM    9  C   UNL     1     -11.214  11.135  67.384  1.00  0.00    -0.363 A  
HETATM   10  C   UNL     1     -10.486   9.998  67.014  1.00  0.00    -0.302 A  
BRANCH   7  11
HETATM   11  C   UNL     1     -11.903  13.523  67.016  1.00  0.00    -0.402 C  
HETATM   12  O   UNL     1     -12.775  13.969  66.273  1.00  0.00    -0.414 OA 
BRANCH  11  13
HETATM   13  C   UNL     1     -11.699  14.193  68.336  1.00  0.00    -0.380 A  
HETATM   14  C   UNL     1     -10.838  15.301  68.377  1.00  0.00    -0.257 A  
HETATM   15  C   UNL     1     -10.629  15.997  69.568  1.00  0.00    -0.290 A  
HETATM   16  C   UNL     1     -11.277  15.591  70.731  1.00  0.00    -0.384 A  
HETATM   17  C   UNL     1     -12.109  14.470  70.711  1.00  0.00    -0.398 A  
HETATM   18  C   UNL     1     -12.308  13.761  69.521  1.00  0.00    -0.258 A  
ENDBRANCH  11  13
ENDBRANCH   7  11
ENDBRANCH   2   3
TORSDOF 3
ENDMDL
MODEL       89
REMARK 921   NORMALIZED FREE ENERGY PREDICTED BY IDOCK:   -4.79 KCAL/MOL
REMARK 922        TOTAL FREE ENERGY PREDICTED BY IDOCK:   -6.01 KCAL/MOL
REMARK 923 INTER-LIGAND FREE ENERGY PREDICTED BY IDOCK:   -5.31 KCAL/MOL
REMARK 924 INTRA-LIGAND FREE ENERGY PREDICTED BY IDOCK:   -0.70 KCAL/MOL
REMARK 927      BINDING AFFINITY PREDICTED BY RF-SCORE:    0.00 PKD
ROOT
HETATM    1  C   UNL     1      -9.816  10.656  63.650  1.00  0.00    -0.333 C  
HETATM    2  O   UNL     1      -8.929  10.876  64.746  1.00  0.00    -0.191 OA 
ENDROOT
BRANCH   2   3
HETATM    3  C   UNL     1      -9.533  10.937  65.972  1.00  0.00    -0.203 A  
HETATM    4  C   UNL     1      -9.564  12.071  66.781  1.00  0.00    -0.215 A  
HETATM    5  C   UNL     1     -10.152  12.010  68.048  1.00  0.00    -0.198 A  
HETATM    6  O   UNL     1     -10.102  13.129  68.833  1.00  0.00    -0.419 OA 
HETATM    7  C   UNL     1     -10.736  10.825  68.513  1.00  0.00    -0.245 A  
HETATM    8  H   UNL     1     -10.502  13.087  69.694  1.00  0.00     0.000 HD 
HETATM    9  C   UNL     1     -10.784   9.718  67.654  1.00  0.00    -0.334 A  
HETATM   10  C   UNL     1     -10.175   9.774  66.395  1.00  0.00    -0.288 A  
BRANCH   7  11
HETATM   11  C   UNL     1     -11.368  10.763  69.863  1.00  0.00    -0.311 C  
HETATM   12  O   UNL     1     -12.277  11.540  70.146  1.00  0.00    -0.317 OA 
BRANCH  11  13
HETATM   13  C   UNL     1     -10.987   9.734  70.878  1.00  0.00    -0.411 A  
HETATM   14  C   UNL     1      -9.625   9.423  71.011  1.00  0.00    -0.272 A  
HETATM   15  C   UNL     1      -9.195   8.498  71.962  1.00  0.00    -0.326 A  
HETATM   16  C   UNL     1     -10.123   7.872  72.790  1.00  0.00    -0.365 A  
HETATM   17  C   UNL     1     -11.484   8.147  72.645  1.00  0.00    -0.454 A  
HETATM   18  C   UNL     1     -11.919   9.063  71.681  1.00  0.00    -0.426 A  
ENDBRANCH  11  13
ENDBRANCH   7  11
ENDBRANCH   2   3
TORSDOF 3
ENDMDL
MODEL       90
REMARK 921   NORMALIZED FREE ENERGY PREDICTED BY IDOCK:   -4.79 KCAL/MOL
REMARK 922        TOTAL FREE ENERGY PREDICTED BY IDOCK:   -6.01 KCAL/MOL
REMARK 923 INTER-LIGAND FREE ENERGY PREDICTED BY IDOCK:   -5.33 KCAL/MOL
REMARK 924 INTRA-LIGAND FREE ENERGY PREDICTED BY IDOCK:   -0.68 KCAL/MOL
REMARK 927      BINDING AFFINITY PREDICTED BY RF-SCORE:    0.00 PKD
ROOT
HETATM    1  C   UNL     1     -12.677  11.717  70.650  1.00  0.00    -0.138 C  
HETATM    2  O   UNL     1     -12.706  13.060  71.133  1.00  0.00    -0.354 OA 
ENDROOT
BRANCH   2   3
HETATM    3  C   UNL     1     -12.118  13.980  70.308  1.00  0.00    -0.355 A  
HETATM    4  C   UNL     1     -12.029  13.854  68.922  1.00  0.00    -0.393 A  
HETATM    5  C   UNL     1     -11.348  14.820  68.176  1.00  0.00    -0.307 A  
HETATM    6  O   UNL     1     -11.230  14.622  66.827  1.00  0.00    -0.328 OA 
HETATM    7  C   UNL     1     -10.769  15.934  68.797  1.00  0.00    -0.265 A  
HETATM    8  H   UNL     1     -10.768  15.279  66.320  1.00  0.00     0.000 HD 
HETATM    9  C   UNL     1     -10.946  16.099  70.178  1.00  0.00    -0.359 A  
HETATM   10  C   UNL     1     -11.608  15.120  70.928  1.00  0.00    -0.380 A  
BRANCH   7  11
HETATM   11  C   UNL     1     -10.047  16.966  67.998  1.00  0.00    -0.293 C  
HETATM   12  O   UNL     1     -10.524  17.354  66.934  1.00  0.00    -0.324 OA 
BRANCH  11  13
HETATM   13  C   UNL     1      -8.788  17.613  68.477  1.00  0.00    -0.285 A  
HETATM   14  C   UNL     1      -7.729  16.774  68.857  1.00  0.00    -0.242 A  
HETATM   15  C   UNL     1      -6.513  17.310  69.280  1.00  0.00    -0.243 A  
HETATM   16  C   UNL     1      -6.343  18.690  69.330  1.00  0.00    -0.282 A  
HETATM   17  C   UNL     1      -7.400  19.536  68.987  1.00  0.00    -0.392 A  
HETATM   18  C   UNL     1      -8.625  19.001  68.577  1.00  0.00    -0.393 A  
ENDBRANCH  11  13
ENDBRANCH   7  11
ENDBRANCH   2   3
TORSDOF 3
ENDMDL
MODEL       91
REMARK 921   NORMALIZED FREE ENERGY PREDICTED BY IDOCK:   -4.77 KCAL/MOL
REMARK 922        TOTAL FREE ENERGY PREDICTED BY IDOCK:   -5.99 KCAL/MOL
REMARK 923 INTER-LIGAND FREE ENERGY PREDICTED BY IDOCK:   -5.39 KCAL/MOL
REMARK 924 INTRA-LIGAND FREE ENERGY PREDICTED BY IDOCK:   -0.60 KCAL/MOL
REMARK 927      BINDING AFFINITY PREDICTED BY RF-SCORE:    0.00 PKD
ROOT
HETATM    1  C   UNL     1      -6.641  20.521  67.381  1.00  0.00    -0.265 C  
HETATM    2  O   UNL     1      -6.551  19.310  66.630  1.00  0.00    -0.188 OA 
ENDROOT
BRANCH   2   3
HETATM    3  C   UNL     1      -7.554  18.410  66.869  1.00  0.00    -0.218 A  
HETATM    4  C   UNL     1      -8.584  18.603  67.788  1.00  0.00    -0.294 A  
HETATM    5  C   UNL     1      -9.525  17.592  68.005  1.00  0.00    -0.280 A  
HETATM    6  O   UNL     1     -10.480  17.798  68.962  1.00  0.00    -0.396 OA 
HETATM    7  C   UNL     1      -9.463  16.386  67.292  1.00  0.00    -0.231 A  
HETATM    8  H   UNL     1     -11.119  17.111  69.109  1.00  0.00     0.000 HD 
HETATM    9  C   UNL     1      -8.480  16.241  66.303  1.00  0.00    -0.369 A  
HETATM   10  C   UNL     1      -7.526  17.245  66.103  1.00  0.00    -0.321 A  
BRANCH   7  11
HETATM   11  C   UNL     1     -10.471  15.311  67.522  1.00  0.00    -0.265 C  
HETATM   12  O   UNL     1     -10.922  15.130  68.651  1.00  0.00    -0.236 OA 
BRANCH  11  13
HETATM   13  C   UNL     1     -11.019  14.478  66.409  1.00  0.00    -0.324 A  
HETATM   14  C   UNL     1     -11.008  13.084  66.572  1.00  0.00    -0.307 A  
HETATM   15  C   UNL     1     -11.536  12.247  65.589  1.00  0.00    -0.433 A  
HETATM   16  C   UNL     1     -12.080  12.795  64.431  1.00  0.00    -0.484 A  
HETATM   17  C   UNL     1     -12.067  14.179  64.241  1.00  0.00    -0.471 A  
HETATM   18  C   UNL     1     -11.524  15.019  65.219  1.00  0.00    -0.308 A  
ENDBRANCH  11  13
ENDBRANCH   7  11
ENDBRANCH   2   3
TORSDOF 3
ENDMDL
MODEL       92
REMARK 921   NORMALIZED FREE ENERGY PREDICTED BY IDOCK:   -4.76 KCAL/MOL
REMARK 922        TOTAL FREE ENERGY PREDICTED BY IDOCK:   -5.98 KCAL/MOL
REMARK 923 INTER-LIGAND FREE ENERGY PREDICTED BY IDOCK:   -5.50 KCAL/MOL
REMARK 924 INTRA-LIGAND FREE ENERGY PREDICTED BY IDOCK:   -0.49 KCAL/MOL
REMARK 927      BINDING AFFINITY PREDICTED BY RF-SCORE:    0.00 PKD
ROOT
HETATM    1  C   UNL     1     -11.654   7.029  70.194  1.00  0.00    -0.225 C  
HETATM    2  O   UNL     1     -10.539   7.875  69.911  1.00  0.00    -0.235 OA 
ENDROOT
BRANCH   2   3
HETATM    3  C   UNL     1     -10.854   9.190  69.703  1.00  0.00    -0.197 A  
HETATM    4  C   UNL     1     -11.447  10.019  70.654  1.00  0.00    -0.425 A  
HETATM    5  C   UNL     1     -11.789  11.333  70.320  1.00  0.00    -0.357 A  
HETATM    6  O   UNL     1     -12.428  12.089  71.264  1.00  0.00    -0.307 OA 
HETATM    7  C   UNL     1     -11.524  11.843  69.042  1.00  0.00    -0.355 A  
HETATM    8  H   UNL     1     -12.660  12.982  71.036  1.00  0.00     0.000 HD 
HETATM    9  C   UNL     1     -10.842  11.031  68.125  1.00  0.00    -0.274 A  
HETATM   10  C   UNL     1     -10.520   9.709  68.453  1.00  0.00    -0.258 A  
BRANCH   7  11
HETATM   11  C   UNL     1     -11.886  13.246  68.689  1.00  0.00    -0.345 C  
HETATM   12  O   UNL     1     -12.336  13.994  69.553  1.00  0.00    -0.332 OA 
BRANCH  11  13
HETATM   13  C   UNL     1     -11.652  13.813  67.326  1.00  0.00    -0.391 A  
HETATM   14  C   UNL     1     -10.474  14.548  67.120  1.00  0.00    -0.267 A  
HETATM   15  C   UNL     1     -10.174  15.076  65.864  1.00  0.00    -0.335 A  
HETATM   16  C   UNL     1     -11.050  14.875  64.801  1.00  0.00    -0.395 A  
HETATM   17  C   UNL     1     -12.242  14.175  65.001  1.00  0.00    -0.450 A  
HETATM   18  C   UNL     1     -12.552  13.658  66.263  1.00  0.00    -0.346 A  
ENDBRANCH  11  13
ENDBRANCH   7  11
ENDBRANCH   2   3
TORSDOF 3
ENDMDL
MODEL       93
REMARK 921   NORMALIZED FREE ENERGY PREDICTED BY IDOCK:   -4.76 KCAL/MOL
REMARK 922        TOTAL FREE ENERGY PREDICTED BY IDOCK:   -5.98 KCAL/MOL
REMARK 923 INTER-LIGAND FREE ENERGY PREDICTED BY IDOCK:   -5.33 KCAL/MOL
REMARK 924 INTRA-LIGAND FREE ENERGY PREDICTED BY IDOCK:   -0.65 KCAL/MOL
REMARK 927      BINDING AFFINITY PREDICTED BY RF-SCORE:    0.00 PKD
ROOT
HETATM    1  C   UNL     1     -12.139  14.521  64.471  1.00  0.00    -0.484 C  
HETATM    2  O   UNL     1     -11.891  14.436  65.874  1.00  0.00    -0.368 OA 
ENDROOT
BRANCH   2   3
HETATM    3  C   UNL     1     -11.527  13.194  66.319  1.00  0.00    -0.334 A  
HETATM    4  C   UNL     1     -10.835  12.255  65.556  1.00  0.00    -0.319 A  
HETATM    5  C   UNL     1     -10.568  10.988  66.082  1.00  0.00    -0.228 A  
HETATM    6  O   UNL     1      -9.944  10.076  65.275  1.00  0.00    -0.315 OA 
HETATM    7  C   UNL     1     -10.966  10.650  67.382  1.00  0.00    -0.361 A  
HETATM    8  H   UNL     1      -9.763   9.215  65.633  1.00  0.00     0.000 HD 
HETATM    9  C   UNL     1     -11.576  11.633  68.174  1.00  0.00    -0.389 A  
HETATM   10  C   UNL     1     -11.864  12.894  67.638  1.00  0.00    -0.400 A  
BRANCH   7  11
HETATM   11  C   UNL     1     -10.676   9.299  67.944  1.00  0.00    -0.188 C  
HETATM   12  O   UNL     1     -10.659   8.321  67.199  1.00  0.00    -0.317 OA 
BRANCH  11  13
HETATM   13  C   UNL     1     -10.327   9.088  69.381  1.00  0.00    -0.217 A  
HETATM   14  C   UNL     1      -8.973   9.169  69.741  1.00  0.00    -0.168 A  
HETATM   15  C   UNL     1      -8.578   9.019  71.071  1.00  0.00    -0.264 A  
HETATM   16  C   UNL     1      -9.535   8.785  72.055  1.00  0.00    -0.336 A  
HETATM   17  C   UNL     1     -10.881   8.668  71.706  1.00  0.00    -0.395 A  
HETATM   18  C   UNL     1     -11.277   8.803  70.371  1.00  0.00    -0.247 A  
ENDBRANCH  11  13
ENDBRANCH   7  11
ENDBRANCH   2   3
TORSDOF 3
ENDMDL
MODEL       94
REMARK 921   NORMALIZED FREE ENERGY PREDICTED BY IDOCK:   -4.72 KCAL/MOL
REMARK 922        TOTAL FREE ENERGY PREDICTED BY IDOCK:   -5.94 KCAL/MOL
REMARK 923 INTER-LIGAND FREE ENERGY PREDICTED BY IDOCK:   -5.28 KCAL/MOL
REMARK 924 INTRA-LIGAND FREE ENERGY PREDICTED BY IDOCK:   -0.66 KCAL/MOL
REMARK 927      BINDING AFFINITY PREDICTED BY RF-SCORE:    0.00 PKD
ROOT
HETATM    1  C   UNL     1      -8.015  17.831  67.500  1.00  0.00    -0.212 C  
HETATM    2  O   UNL     1      -8.326  16.824  68.463  1.00  0.00    -0.222 OA 
ENDROOT
BRANCH   2   3
HETATM    3  C   UNL     1      -9.105  15.802  67.994  1.00  0.00    -0.187 A  
HETATM    4  C   UNL     1     -10.461  15.650  68.280  1.00  0.00    -0.252 A  
HETATM    5  C   UNL     1     -11.153  14.532  67.805  1.00  0.00    -0.285 A  
HETATM    6  O   UNL     1     -12.466  14.391  68.163  1.00  0.00    -0.579 OA 
HETATM    7  C   UNL     1     -10.509  13.565  67.021  1.00  0.00    -0.265 A  
HETATM    8  H   UNL     1     -12.936  13.631  67.840  1.00  0.00     0.000 HD 
HETATM    9  C   UNL     1      -9.171  13.777  66.661  1.00  0.00    -0.238 A  
HETATM   10  C   UNL     1      -8.472  14.885  67.156  1.00  0.00    -0.244 A  
BRANCH   7  11
HETATM   11  C   UNL     1     -11.251  12.376  66.511  1.00  0.00    -0.319 C  
HETATM   12  O   UNL     1     -12.333  12.529  65.949  1.00  0.00    -0.626 OA 
BRANCH  11  13
HETATM   13  C   UNL     1     -10.694  10.992  66.589  1.00  0.00    -0.305 A  
HETATM   14  C   UNL     1      -9.980  10.514  65.479  1.00  0.00    -0.342 A  
HETATM   15  C   UNL     1      -9.401   9.245  65.496  1.00  0.00    -0.303 A  
HETATM   16  C   UNL     1      -9.532   8.439  66.624  1.00  0.00    -0.267 A  
HETATM   17  C   UNL     1     -10.267   8.889  67.722  1.00  0.00    -0.283 A  
HETATM   18  C   UNL     1     -10.861  10.156  67.701  1.00  0.00    -0.346 A  
ENDBRANCH  11  13
ENDBRANCH   7  11
ENDBRANCH   2   3
TORSDOF 3
ENDMDL
MODEL       95
REMARK 921   NORMALIZED FREE ENERGY PREDICTED BY IDOCK:   -4.71 KCAL/MOL
REMARK 922        TOTAL FREE ENERGY PREDICTED BY IDOCK:   -5.92 KCAL/MOL
REMARK 923 INTER-LIGAND FREE ENERGY PREDICTED BY IDOCK:   -5.68 KCAL/MOL
REMARK 924 INTRA-LIGAND FREE ENERGY PREDICTED BY IDOCK:   -0.24 KCAL/MOL
REMARK 927      BINDING AFFINITY PREDICTED BY RF-SCORE:    0.00 PKD
ROOT
HETATM    1  C   UNL     1     -10.930  12.205  64.798  1.00  0.00    -0.310 C  
HETATM    2  O   UNL     1     -10.623  12.819  66.050  1.00  0.00    -0.262 OA 
ENDROOT
BRANCH   2   3
HETATM    3  C   UNL     1     -10.916  12.059  67.150  1.00  0.00    -0.270 A  
HETATM    4  C   UNL     1     -10.821  10.669  67.197  1.00  0.00    -0.328 A  
HETATM    5  C   UNL     1     -11.208   9.981  68.350  1.00  0.00    -0.127 A  
HETATM    6  O   UNL     1     -11.159   8.614  68.328  1.00  0.00    -0.446 OA 
HETATM    7  C   UNL     1     -11.672  10.670  69.478  1.00  0.00    -0.356 A  
HETATM    8  H   UNL     1     -11.422   8.147  69.112  1.00  0.00     0.000 HD 
HETATM    9  C   UNL     1     -11.673  12.072  69.454  1.00  0.00    -0.402 A  
HETATM   10  C   UNL     1     -11.307  12.759  68.291  1.00  0.00    -0.335 A  
BRANCH   7  11
HETATM   11  C   UNL     1     -12.079   9.934  70.710  1.00  0.00    -0.308 C  
HETATM   12  O   UNL     1     -13.253   9.957  71.072  1.00  0.00    -0.373 OA 
BRANCH  11  13
HETATM   13  C   UNL     1     -11.122   9.096  71.494  1.00  0.00    -0.436 A  
HETATM   14  C   UNL     1     -11.658   8.212  72.443  1.00  0.00    -0.463 A  
HETATM   15  C   UNL     1     -10.825   7.374  73.186  1.00  0.00    -0.435 A  
HETATM   16  C   UNL     1      -9.448   7.413  72.988  1.00  0.00    -0.233 A  
HETATM   17  C   UNL     1      -8.900   8.312  72.071  1.00  0.00    -0.256 A  
HETATM   18  C   UNL     1      -9.731   9.164  71.337  1.00  0.00    -0.338 A  
ENDBRANCH  11  13
ENDBRANCH   7  11
ENDBRANCH   2   3
TORSDOF 3
ENDMDL
MODEL       96
REMARK 921   NORMALIZED FREE ENERGY PREDICTED BY IDOCK:   -4.71 KCAL/MOL
REMARK 922        TOTAL FREE ENERGY PREDICTED BY IDOCK:   -5.92 KCAL/MOL
REMARK 923 INTER-LIGAND FREE ENERGY PREDICTED BY IDOCK:   -5.20 KCAL/MOL
REMARK 924 INTRA-LIGAND FREE ENERGY PREDICTED BY IDOCK:   -0.72 KCAL/MOL
REMARK 927      BINDING AFFINITY PREDICTED BY RF-SCORE:    0.00 PKD
ROOT
HETATM    1  C   UNL     1     -11.775  12.812  68.242  1.00  0.00    -0.344 C  
HETATM    2  O   UNL     1     -12.130  11.432  68.329  1.00  0.00    -0.606 OA 
ENDROOT
BRANCH   2   3
HETATM    3  C   UNL     1     -11.415  10.711  69.245  1.00  0.00    -0.281 A  
HETATM    4  C   UNL     1     -10.067  10.381  69.110  1.00  0.00    -0.236 A  
HETATM    5  C   UNL     1      -9.444   9.582  70.073  1.00  0.00    -0.232 A  
HETATM    6  O   UNL     1      -8.138   9.229  69.866  1.00  0.00    -0.096 OA 
HETATM    7  C   UNL     1     -10.149   9.122  71.193  1.00  0.00    -0.384 A  
HETATM    8  H   UNL     1      -7.715   8.687  70.521  1.00  0.00     0.000 HD 
HETATM    9  C   UNL     1     -11.476   9.538  71.367  1.00  0.00    -0.462 A  
HETATM   10  C   UNL     1     -12.106  10.319  70.391  1.00  0.00    -0.373 A  
BRANCH   7  11
HETATM   11  C   UNL     1      -9.481   8.274  72.222  1.00  0.00    -0.271 C  
HETATM   12  O   UNL     1      -8.580   8.748  72.910  1.00  0.00    -0.398 OA 
BRANCH  11  13
HETATM   13  C   UNL     1      -9.915   6.873  72.508  1.00  0.00    -0.187 A  
HETATM   14  C   UNL     1      -9.725   5.914  71.501  1.00  0.00    -0.189 A  
HETATM   15  C   UNL     1     -10.073   4.579  71.712  1.00  0.00    -0.254 A  
HETATM   16  C   UNL     1     -10.617   4.190  72.933  1.00  0.00    -0.245 A  
HETATM   17  C   UNL     1     -10.843   5.140  73.931  1.00  0.00    -0.307 A  
HETATM   18  C   UNL     1     -10.508   6.481  73.715  1.00  0.00    -0.335 A  
ENDBRANCH  11  13
ENDBRANCH   7  11
ENDBRANCH   2   3
TORSDOF 3
ENDMDL
MODEL       97
REMARK 921   NORMALIZED FREE ENERGY PREDICTED BY IDOCK:   -4.63 KCAL/MOL
REMARK 922        TOTAL FREE ENERGY PREDICTED BY IDOCK:   -5.83 KCAL/MOL
REMARK 923 INTER-LIGAND FREE ENERGY PREDICTED BY IDOCK:   -5.16 KCAL/MOL
REMARK 924 INTRA-LIGAND FREE ENERGY PREDICTED BY IDOCK:   -0.67 KCAL/MOL
REMARK 927      BINDING AFFINITY PREDICTED BY RF-SCORE:    0.00 PKD
ROOT
HETATM    1  C   UNL     1     -11.979  12.605  66.249  1.00  0.00    -0.374 C  
HETATM    2  O   UNL     1     -12.222  13.992  66.485  1.00  0.00    -0.447 OA 
ENDROOT
BRANCH   2   3
HETATM    3  C   UNL     1     -11.135  14.700  66.919  1.00  0.00    -0.333 A  
HETATM    4  C   UNL     1      -9.830  14.492  66.477  1.00  0.00    -0.297 A  
HETATM    5  C   UNL     1      -8.778  15.225  67.033  1.00  0.00    -0.234 A  
HETATM    6  O   UNL     1      -7.507  14.942  66.615  1.00  0.00    -0.251 OA 
HETATM    7  C   UNL     1      -9.016  16.191  68.019  1.00  0.00    -0.185 A  
HETATM    8  H   UNL     1      -6.792  15.441  66.992  1.00  0.00     0.000 HD 
HETATM    9  C   UNL     1     -10.342  16.460  68.388  1.00  0.00    -0.282 A  
HETATM   10  C   UNL     1     -11.392  15.709  67.847  1.00  0.00    -0.302 A  
BRANCH   7  11
HETATM   11  C   UNL     1      -7.893  16.977  68.607  1.00  0.00    -0.257 C  
HETATM   12  O   UNL     1      -7.158  16.455  69.443  1.00  0.00    -0.221 OA 
BRANCH  11  13
HETATM   13  C   UNL     1      -7.571  18.368  68.164  1.00  0.00    -0.287 A  
HETATM   14  C   UNL     1      -6.740  19.138  68.992  1.00  0.00    -0.342 A  
HETATM   15  C   UNL     1      -6.370  20.432  68.623  1.00  0.00    -0.340 A  
HETATM   16  C   UNL     1      -6.828  20.969  67.423  1.00  0.00    -0.434 A  
HETATM   17  C   UNL     1      -7.683  20.225  66.607  1.00  0.00    -0.309 A  
HETATM   18  C   UNL     1      -8.068  18.933  66.983  1.00  0.00    -0.272 A  
ENDBRANCH  11  13
ENDBRANCH   7  11
ENDBRANCH   2   3
TORSDOF 3
ENDMDL
MODEL       98
REMARK 921   NORMALIZED FREE ENERGY PREDICTED BY IDOCK:   -4.62 KCAL/MOL
REMARK 922        TOTAL FREE ENERGY PREDICTED BY IDOCK:   -5.81 KCAL/MOL
REMARK 923 INTER-LIGAND FREE ENERGY PREDICTED BY IDOCK:   -5.27 KCAL/MOL
REMARK 924 INTRA-LIGAND FREE ENERGY PREDICTED BY IDOCK:   -0.54 KCAL/MOL
REMARK 927      BINDING AFFINITY PREDICTED BY RF-SCORE:    0.00 PKD
ROOT
HETATM    1  C   UNL     1      -9.625  19.794  66.368  1.00  0.00    -0.411 C  
HETATM    2  O   UNL     1      -8.566  18.859  66.160  1.00  0.00    -0.423 OA 
ENDROOT
BRANCH   2   3
HETATM    3  C   UNL     1      -8.887  17.557  66.430  1.00  0.00    -0.241 A  
HETATM    4  C   UNL     1      -7.956  16.544  66.652  1.00  0.00    -0.320 A  
HETATM    5  C   UNL     1      -8.388  15.230  66.854  1.00  0.00    -0.243 A  
HETATM    6  O   UNL     1      -7.437  14.258  67.003  1.00  0.00    -0.312 OA 
HETATM    7  C   UNL     1      -9.753  14.914  66.862  1.00  0.00    -0.248 A  
HETATM    8  H   UNL     1      -7.731  13.365  67.141  1.00  0.00     0.000 HD 
HETATM    9  C   UNL     1     -10.683  15.955  66.733  1.00  0.00    -0.281 A  
HETATM   10  C   UNL     1     -10.249  17.267  66.507  1.00  0.00    -0.325 A  
BRANCH   7  11
HETATM   11  C   UNL     1     -10.212  13.512  67.083  1.00  0.00    -0.247 C  
HETATM   12  O   UNL     1     -10.689  13.193  68.169  1.00  0.00    -0.229 OA 
BRANCH  11  13
HETATM   13  C   UNL     1     -10.183  12.481  66.001  1.00  0.00    -0.269 A  
HETATM   14  C   UNL     1      -9.821  11.173  66.358  1.00  0.00    -0.248 A  
HETATM   15  C   UNL     1      -9.808  10.153  65.406  1.00  0.00    -0.375 A  
HETATM   16  C   UNL     1     -10.156  10.430  64.088  1.00  0.00    -0.262 A  
HETATM   17  C   UNL     1     -10.486  11.734  63.713  1.00  0.00    -0.466 A  
HETATM   18  C   UNL     1     -10.485  12.762  64.662  1.00  0.00    -0.373 A  
ENDBRANCH  11  13
ENDBRANCH   7  11
ENDBRANCH   2   3
TORSDOF 3
ENDMDL
MODEL       99
REMARK 921   NORMALIZED FREE ENERGY PREDICTED BY IDOCK:   -4.60 KCAL/MOL
REMARK 922        TOTAL FREE ENERGY PREDICTED BY IDOCK:   -5.79 KCAL/MOL
REMARK 923 INTER-LIGAND FREE ENERGY PREDICTED BY IDOCK:   -5.49 KCAL/MOL
REMARK 924 INTRA-LIGAND FREE ENERGY PREDICTED BY IDOCK:   -0.29 KCAL/MOL
REMARK 927      BINDING AFFINITY PREDICTED BY RF-SCORE:    0.00 PKD
ROOT
HETATM    1  C   UNL     1      -7.618  19.633  67.714  1.00  0.00    -0.278 C  
HETATM    2  O   UNL     1      -7.563  18.386  68.407  1.00  0.00    -0.272 OA 
ENDROOT
BRANCH   2   3
HETATM    3  C   UNL     1      -8.460  17.448  67.974  1.00  0.00    -0.235 A  
HETATM    4  C   UNL     1      -9.078  17.465  66.725  1.00  0.00    -0.276 A  
HETATM    5  C   UNL     1     -10.032  16.495  66.404  1.00  0.00    -0.303 A  
HETATM    6  O   UNL     1     -10.660  16.589  65.192  1.00  0.00    -0.632 OA 
HETATM    7  C   UNL     1     -10.364  15.483  67.314  1.00  0.00    -0.267 A  
HETATM    8  H   UNL     1     -11.307  15.929  64.974  1.00  0.00     0.000 HD 
HETATM    9  C   UNL     1      -9.668  15.420  68.530  1.00  0.00    -0.204 A  
HETATM   10  C   UNL     1      -8.730  16.405  68.859  1.00  0.00    -0.253 A  
BRANCH   7  11
HETATM   11  C   UNL     1     -11.378  14.446  66.968  1.00  0.00    -0.346 C  
HETATM   12  O   UNL     1     -12.221  14.683  66.105  1.00  0.00    -0.290 OA 
BRANCH  11  13
HETATM   13  C   UNL     1     -11.369  13.082  67.580  1.00  0.00    -0.342 A  
HETATM   14  C   UNL     1     -11.693  12.979  68.942  1.00  0.00    -0.371 A  
HETATM   15  C   UNL     1     -11.739  11.734  69.570  1.00  0.00    -0.408 A  
HETATM   16  C   UNL     1     -11.460  10.580  68.844  1.00  0.00    -0.292 A  
HETATM   17  C   UNL     1     -11.104  10.672  67.497  1.00  0.00    -0.367 A  
HETATM   18  C   UNL     1     -11.042  11.921  66.869  1.00  0.00    -0.356 A  
ENDBRANCH  11  13
ENDBRANCH   7  11
ENDBRANCH   2   3
TORSDOF 3
ENDMDL
MODEL      100
REMARK 921   NORMALIZED FREE ENERGY PREDICTED BY IDOCK:   -4.58 KCAL/MOL
REMARK 922        TOTAL FREE ENERGY PREDICTED BY IDOCK:   -5.77 KCAL/MOL
REMARK 923 INTER-LIGAND FREE ENERGY PREDICTED BY IDOCK:   -5.11 KCAL/MOL
REMARK 924 INTRA-LIGAND FREE ENERGY PREDICTED BY IDOCK:   -0.66 KCAL/MOL
REMARK 927      BINDING AFFINITY PREDICTED BY RF-SCORE:    0.00 PKD
ROOT
HETATM    1  C   UNL     1      -6.668  20.771  67.102  1.00  0.00    -0.317 C  
HETATM    2  O   UNL     1      -7.591  20.226  66.160  1.00  0.00    -0.271 OA 
ENDROOT
BRANCH   2   3
HETATM    3  C   UNL     1      -7.894  18.906  66.349  1.00  0.00    -0.280 A  
HETATM    4  C   UNL     1      -6.957  17.917  66.649  1.00  0.00    -0.248 A  
HETATM    5  C   UNL     1      -7.361  16.583  66.758  1.00  0.00    -0.239 A  
HETATM    6  O   UNL     1      -6.399  15.639  66.989  1.00  0.00    -0.298 OA 
HETATM    7  C   UNL     1      -8.705  16.222  66.594  1.00  0.00    -0.294 A  
HETATM    8  H   UNL     1      -6.673  14.732  67.064  1.00  0.00     0.000 HD 
HETATM    9  C   UNL     1      -9.651  17.235  66.388  1.00  0.00    -0.290 A  
HETATM   10  C   UNL     1      -9.243  18.567  66.256  1.00  0.00    -0.231 A  
BRANCH   7  11
HETATM   11  C   UNL     1      -9.134  14.798  66.717  1.00  0.00    -0.267 C  
HETATM   12  O   UNL     1      -8.529  14.044  67.474  1.00  0.00    -0.170 OA 
BRANCH  11  13
HETATM   13  C   UNL     1     -10.332  14.260  66.003  1.00  0.00    -0.318 A  
HETATM   14  C   UNL     1     -10.166  13.851  64.671  1.00  0.00    -0.278 A  
HETATM   15  C   UNL     1     -11.233  13.306  63.955  1.00  0.00    -0.374 A  
HETATM   16  C   UNL     1     -12.476  13.165  64.565  1.00  0.00    -0.406 A  
HETATM   17  C   UNL     1     -12.663  13.599  65.879  1.00  0.00    -0.428 A  
HETATM   18  C   UNL     1     -11.599  14.160  66.593  1.00  0.00    -0.399 A  
ENDBRANCH  11  13
ENDBRANCH   7  11
ENDBRANCH   2   3
TORSDOF 3
ENDMDL
MODEL      101
REMARK 921   NORMALIZED FREE ENERGY PREDICTED BY IDOCK:   -4.57 KCAL/MOL
REMARK 922        TOTAL FREE ENERGY PREDICTED BY IDOCK:   -5.76 KCAL/MOL
REMARK 923 INTER-LIGAND FREE ENERGY PREDICTED BY IDOCK:   -5.03 KCAL/MOL
REMARK 924 INTRA-LIGAND FREE ENERGY PREDICTED BY IDOCK:   -0.73 KCAL/MOL
REMARK 927      BINDING AFFINITY PREDICTED BY RF-SCORE:    0.00 PKD
ROOT
HETATM    1  C   UNL     1      -5.389  19.770  69.994  1.00  0.00    -0.211 C  
HETATM    2  O   UNL     1      -5.791  20.286  68.725  1.00  0.00    -0.258 OA 
ENDROOT
BRANCH   2   3
HETATM    3  C   UNL     1      -6.811  19.601  68.123  1.00  0.00    -0.279 A  
HETATM    4  C   UNL     1      -8.127  20.053  68.045  1.00  0.00    -0.270 A  
HETATM    5  C   UNL     1      -9.110  19.246  67.465  1.00  0.00    -0.297 A  
HETATM    6  O   UNL     1     -10.399  19.703  67.469  1.00  0.00    -0.395 OA 
HETATM    7  C   UNL     1      -8.789  17.989  66.935  1.00  0.00    -0.266 A  
HETATM    8  H   UNL     1     -11.067  19.154  67.074  1.00  0.00     0.000 HD 
HETATM    9  C   UNL     1      -7.446  17.586  66.933  1.00  0.00    -0.235 A  
HETATM   10  C   UNL     1      -6.467  18.384  67.534  1.00  0.00    -0.198 A  
BRANCH   7  11
HETATM   11  C   UNL     1      -9.838  17.132  66.312  1.00  0.00    -0.291 C  
HETATM   12  O   UNL     1     -10.434  17.528  65.313  1.00  0.00    -0.643 OA 
BRANCH  11  13
HETATM   13  C   UNL     1     -10.151  15.759  66.814  1.00  0.00    -0.276 A  
HETATM   14  C   UNL     1      -9.951  14.683  65.935  1.00  0.00    -0.352 A  
HETATM   15  C   UNL     1     -10.188  13.372  66.348  1.00  0.00    -0.293 A  
HETATM   16  C   UNL     1     -10.629  13.123  67.644  1.00  0.00    -0.235 A  
HETATM   17  C   UNL     1     -10.865  14.186  68.518  1.00  0.00    -0.264 A  
HETATM   18  C   UNL     1     -10.642  15.503  68.101  1.00  0.00    -0.266 A  
ENDBRANCH  11  13
ENDBRANCH   7  11
ENDBRANCH   2   3
TORSDOF 3
ENDMDL
MODEL      102
REMARK 921   NORMALIZED FREE ENERGY PREDICTED BY IDOCK:   -4.57 KCAL/MOL
REMARK 922        TOTAL FREE ENERGY PREDICTED BY IDOCK:   -5.76 KCAL/MOL
REMARK 923 INTER-LIGAND FREE ENERGY PREDICTED BY IDOCK:   -5.14 KCAL/MOL
REMARK 924 INTRA-LIGAND FREE ENERGY PREDICTED BY IDOCK:   -0.62 KCAL/MOL
REMARK 927      BINDING AFFINITY PREDICTED BY RF-SCORE:    0.00 PKD
ROOT
HETATM    1  C   UNL     1     -10.246   5.224  69.768  1.00  0.00    -0.294 C  
HETATM    2  O   UNL     1     -11.253   6.166  69.398  1.00  0.00    -0.391 OA 
ENDROOT
BRANCH   2   3
HETATM    3  C   UNL     1     -10.782   7.320  68.835  1.00  0.00    -0.150 A  
HETATM    4  C   UNL     1     -10.356   8.434  69.557  1.00  0.00    -0.219 A  
HETATM    5  C   UNL     1      -9.953   9.591  68.883  1.00  0.00    -0.179 A  
HETATM    6  O   UNL     1      -9.605  10.681  69.632  1.00  0.00    -0.419 OA 
HETATM    7  C   UNL     1      -9.948   9.644  67.483  1.00  0.00    -0.231 A  
HETATM    8  H   UNL     1      -9.331  11.467  69.174  1.00  0.00     0.000 HD 
HETATM    9  C   UNL     1     -10.288   8.487  66.767  1.00  0.00    -0.346 A  
HETATM   10  C   UNL     1     -10.713   7.337  67.442  1.00  0.00    -0.358 A  
BRANCH   7  11
HETATM   11  C   UNL     1      -9.514  10.877  66.766  1.00  0.00    -0.177 C  
HETATM   12  O   UNL     1      -8.316  11.133  66.667  1.00  0.00    -0.149 OA 
BRANCH  11  13
HETATM   13  C   UNL     1     -10.482  11.792  66.089  1.00  0.00    -0.284 A  
HETATM   14  C   UNL     1     -10.896  12.936  66.790  1.00  0.00    -0.288 A  
HETATM   15  C   UNL     1     -11.770  13.852  66.205  1.00  0.00    -0.402 A  
HETATM   16  C   UNL     1     -12.242  13.634  64.914  1.00  0.00    -0.447 A  
HETATM   17  C   UNL     1     -11.865  12.483  64.219  1.00  0.00    -0.468 A  
HETATM   18  C   UNL     1     -11.000  11.555  64.809  1.00  0.00    -0.338 A  
ENDBRANCH  11  13
ENDBRANCH   7  11
ENDBRANCH   2   3
TORSDOF 3
ENDMDL
MODEL      103
REMARK 921   NORMALIZED FREE ENERGY PREDICTED BY IDOCK:   -4.57 KCAL/MOL
REMARK 922        TOTAL FREE ENERGY PREDICTED BY IDOCK:   -5.76 KCAL/MOL
REMARK 923 INTER-LIGAND FREE ENERGY PREDICTED BY IDOCK:   -5.26 KCAL/MOL
REMARK 924 INTRA-LIGAND FREE ENERGY PREDICTED BY IDOCK:   -0.49 KCAL/MOL
REMARK 927      BINDING AFFINITY PREDICTED BY RF-SCORE:    0.00 PKD
ROOT
HETATM    1  C   UNL     1      -9.201   9.308  66.002  1.00  0.00    -0.206 C  
HETATM    2  O   UNL     1     -10.255  10.140  65.518  1.00  0.00    -0.286 OA 
ENDROOT
BRANCH   2   3
HETATM    3  C   UNL     1     -10.422  11.313  66.203  1.00  0.00    -0.254 A  
HETATM    4  C   UNL     1      -9.550  11.785  67.183  1.00  0.00    -0.189 A  
HETATM    5  C   UNL     1      -9.846  12.965  67.871  1.00  0.00    -0.227 A  
HETATM    6  O   UNL     1      -8.996  13.355  68.869  1.00  0.00    -0.384 OA 
HETATM    7  C   UNL     1     -11.001  13.701  67.576  1.00  0.00    -0.282 A  
HETATM    8  H   UNL     1      -9.197  14.157  69.337  1.00  0.00     0.000 HD 
HETATM    9  C   UNL     1     -11.821  13.268  66.524  1.00  0.00    -0.450 A  
HETATM   10  C   UNL     1     -11.536  12.074  65.851  1.00  0.00    -0.392 A  
BRANCH   7  11
HETATM   11  C   UNL     1     -11.312  14.962  68.308  1.00  0.00    -0.310 C  
HETATM   12  O   UNL     1     -12.026  14.925  69.307  1.00  0.00    -0.306 OA 
BRANCH  11  13
HETATM   13  C   UNL     1     -10.724  16.280  67.917  1.00  0.00    -0.329 A  
HETATM   14  C   UNL     1     -10.516  16.519  66.550  1.00  0.00    -0.270 A  
HETATM   15  C   UNL     1     -10.005  17.741  66.111  1.00  0.00    -0.283 A  
HETATM   16  C   UNL     1      -9.694  18.734  67.034  1.00  0.00    -0.340 A  
HETATM   17  C   UNL     1      -9.864  18.496  68.400  1.00  0.00    -0.404 A  
HETATM   18  C   UNL     1     -10.363  17.267  68.843  1.00  0.00    -0.352 A  
ENDBRANCH  11  13
ENDBRANCH   7  11
ENDBRANCH   2   3
TORSDOF 3
ENDMDL
MODEL      104
REMARK 921   NORMALIZED FREE ENERGY PREDICTED BY IDOCK:   -4.56 KCAL/MOL
REMARK 922        TOTAL FREE ENERGY PREDICTED BY IDOCK:   -5.75 KCAL/MOL
REMARK 923 INTER-LIGAND FREE ENERGY PREDICTED BY IDOCK:   -5.11 KCAL/MOL
REMARK 924 INTRA-LIGAND FREE ENERGY PREDICTED BY IDOCK:   -0.63 KCAL/MOL
REMARK 927      BINDING AFFINITY PREDICTED BY RF-SCORE:    0.00 PKD
ROOT
HETATM    1  C   UNL     1     -11.553   8.025  72.480  1.00  0.00    -0.403 C  
HETATM    2  O   UNL     1     -12.622   8.956  72.308  1.00  0.00    -0.377 OA 
ENDROOT
BRANCH   2   3
HETATM    3  C   UNL     1     -12.342  10.004  71.473  1.00  0.00    -0.419 A  
HETATM    4  C   UNL     1     -12.797  11.307  71.663  1.00  0.00    -0.510 A  
HETATM    5  C   UNL     1     -12.510  12.293  70.714  1.00  0.00    -0.265 A  
HETATM    6  O   UNL     1     -13.032  13.542  70.909  1.00  0.00    -0.251 OA 
HETATM    7  C   UNL     1     -11.746  11.997  69.577  1.00  0.00    -0.408 A  
HETATM    8  H   UNL     1     -12.836  14.212  70.264  1.00  0.00     0.000 HD 
HETATM    9  C   UNL     1     -11.213  10.707  69.444  1.00  0.00    -0.329 A  
HETATM   10  C   UNL     1     -11.521   9.715  70.383  1.00  0.00    -0.325 A  
BRANCH   7  11
HETATM   11  C   UNL     1     -11.436  13.051  68.569  1.00  0.00    -0.304 C  
HETATM   12  O   UNL     1     -12.256  13.315  67.693  1.00  0.00    -0.292 OA 
BRANCH  11  13
HETATM   13  C   UNL     1     -10.184  13.865  68.621  1.00  0.00    -0.218 A  
HETATM   14  C   UNL     1     -10.265  15.149  69.182  1.00  0.00    -0.249 A  
HETATM   15  C   UNL     1      -9.128  15.950  69.297  1.00  0.00    -0.253 A  
HETATM   16  C   UNL     1      -7.898  15.475  68.850  1.00  0.00    -0.182 A  
HETATM   17  C   UNL     1      -7.810  14.213  68.259  1.00  0.00    -0.138 A  
HETATM   18  C   UNL     1      -8.951  13.415  68.129  1.00  0.00    -0.188 A  
ENDBRANCH  11  13
ENDBRANCH   7  11
ENDBRANCH   2   3
TORSDOF 3
ENDMDL
MODEL      105
REMARK 921   NORMALIZED FREE ENERGY PREDICTED BY IDOCK:   -4.56 KCAL/MOL
REMARK 922        TOTAL FREE ENERGY PREDICTED BY IDOCK:   -5.74 KCAL/MOL
REMARK 923 INTER-LIGAND FREE ENERGY PREDICTED BY IDOCK:   -5.15 KCAL/MOL
REMARK 924 INTRA-LIGAND FREE ENERGY PREDICTED BY IDOCK:   -0.59 KCAL/MOL
REMARK 927      BINDING AFFINITY PREDICTED BY RF-SCORE:    0.00 PKD
ROOT
HETATM    1  C   UNL     1     -12.619  11.884  63.209  1.00  0.00    -0.344 C  
HETATM    2  O   UNL     1     -13.055  12.078  64.555  1.00  0.00    -0.606 OA 
ENDROOT
BRANCH   2   3
HETATM    3  C   UNL     1     -12.183  12.774  65.346  1.00  0.00    -0.478 A  
HETATM    4  C   UNL     1     -10.949  12.288  65.777  1.00  0.00    -0.338 A  
HETATM    5  C   UNL     1     -10.160  13.054  66.639  1.00  0.00    -0.251 A  
HETATM    6  O   UNL     1      -8.987  12.512  67.088  1.00  0.00    -0.186 OA 
HETATM    7  C   UNL     1     -10.579  14.322  67.064  1.00  0.00    -0.280 A  
HETATM    8  H   UNL     1      -8.451  13.033  67.674  1.00  0.00     0.000 HD 
HETATM    9  C   UNL     1     -11.776  14.840  66.549  1.00  0.00    -0.278 A  
HETATM   10  C   UNL     1     -12.576  14.063  65.704  1.00  0.00    -0.542 A  
BRANCH   7  11
HETATM   11  C   UNL     1      -9.733  15.140  67.980  1.00  0.00    -0.209 C  
HETATM   12  O   UNL     1      -9.821  14.979  69.195  1.00  0.00    -0.220 OA 
BRANCH  11  13
HETATM   13  C   UNL     1      -8.714  16.110  67.475  1.00  0.00    -0.195 A  
HETATM   14  C   UNL     1      -7.369  15.709  67.493  1.00  0.00    -0.213 A  
HETATM   15  C   UNL     1      -6.368  16.549  67.003  1.00  0.00    -0.207 A  
HETATM   16  C   UNL     1      -6.702  17.800  66.493  1.00  0.00    -0.259 A  
HETATM   17  C   UNL     1      -8.032  18.225  66.501  1.00  0.00    -0.294 A  
HETATM   18  C   UNL     1      -9.035  17.390  67.005  1.00  0.00    -0.253 A  
ENDBRANCH  11  13
ENDBRANCH   7  11
ENDBRANCH   2   3
TORSDOF 3
ENDMDL
MODEL      106
REMARK 921   NORMALIZED FREE ENERGY PREDICTED BY IDOCK:   -4.52 KCAL/MOL
REMARK 922        TOTAL FREE ENERGY PREDICTED BY IDOCK:   -5.70 KCAL/MOL
REMARK 923 INTER-LIGAND FREE ENERGY PREDICTED BY IDOCK:   -5.20 KCAL/MOL
REMARK 924 INTRA-LIGAND FREE ENERGY PREDICTED BY IDOCK:   -0.50 KCAL/MOL
REMARK 927      BINDING AFFINITY PREDICTED BY RF-SCORE:    0.00 PKD
ROOT
HETATM    1  C   UNL     1      -9.381   3.379  66.688  1.00  0.00    -0.159 C  
HETATM    2  O   UNL     1     -10.327   4.408  66.397  1.00  0.00    -0.222 OA 
ENDROOT
BRANCH   2   3
HETATM    3  C   UNL     1     -10.300   5.473  67.256  1.00  0.00    -0.236 A  
HETATM    4  C   UNL     1     -10.699   6.766  66.921  1.00  0.00    -0.394 A  
HETATM    5  C   UNL     1     -10.570   7.800  67.853  1.00  0.00    -0.156 A  
HETATM    6  O   UNL     1     -10.912   9.065  67.460  1.00  0.00    -0.469 OA 
HETATM    7  C   UNL     1     -10.065   7.554  69.136  1.00  0.00    -0.192 A  
HETATM    8  H   UNL     1     -10.825   9.767  68.093  1.00  0.00     0.000 HD 
HETATM    9  C   UNL     1      -9.757   6.233  69.494  1.00  0.00    -0.169 A  
HETATM   10  C   UNL     1      -9.865   5.203  68.553  1.00  0.00    -0.218 A  
BRANCH   7  11
HETATM   11  C   UNL     1      -9.933   8.657  70.131  1.00  0.00    -0.182 C  
HETATM   12  O   UNL     1      -8.831   9.162  70.337  1.00  0.00    -0.179 OA 
BRANCH  11  13
HETATM   13  C   UNL     1     -11.111   9.235  70.845  1.00  0.00    -0.374 A  
HETATM   14  C   UNL     1     -11.479  10.553  70.534  1.00  0.00    -0.433 A  
HETATM   15  C   UNL     1     -12.590  11.144  71.136  1.00  0.00    -0.513 A  
HETATM   16  C   UNL     1     -13.345  10.423  72.057  1.00  0.00    -0.440 A  
HETATM   17  C   UNL     1     -12.970   9.123  72.401  1.00  0.00    -0.468 A  
HETATM   18  C   UNL     1     -11.847   8.534  71.810  1.00  0.00    -0.395 A  
ENDBRANCH  11  13
ENDBRANCH   7  11
ENDBRANCH   2   3
TORSDOF 3
ENDMDL
MODEL      107
REMARK 921   NORMALIZED FREE ENERGY PREDICTED BY IDOCK:   -4.52 KCAL/MOL
REMARK 922        TOTAL FREE ENERGY PREDICTED BY IDOCK:   -5.70 KCAL/MOL
REMARK 923 INTER-LIGAND FREE ENERGY PREDICTED BY IDOCK:   -5.17 KCAL/MOL
REMARK 924 INTRA-LIGAND FREE ENERGY PREDICTED BY IDOCK:   -0.53 KCAL/MOL
REMARK 927      BINDING AFFINITY PREDICTED BY RF-SCORE:    0.00 PKD
ROOT
HETATM    1  C   UNL     1     -10.283  18.918  67.913  1.00  0.00    -0.394 C  
HETATM    2  O   UNL     1      -9.897  18.143  69.049  1.00  0.00    -0.329 OA 
ENDROOT
BRANCH   2   3
HETATM    3  C   UNL     1     -10.107  16.797  68.924  1.00  0.00    -0.285 A  
HETATM    4  C   UNL     1      -9.113  15.828  69.055  1.00  0.00    -0.245 A  
HETATM    5  C   UNL     1      -9.419  14.481  68.844  1.00  0.00    -0.144 A  
HETATM    6  O   UNL     1      -8.399  13.572  68.919  1.00  0.00    -0.347 OA 
HETATM    7  C   UNL     1     -10.722  14.080  68.521  1.00  0.00    -0.266 A  
HETATM    8  H   UNL     1      -8.607  12.656  68.776  1.00  0.00     0.000 HD 
HETATM    9  C   UNL     1     -11.733  15.052  68.486  1.00  0.00    -0.345 A  
HETATM   10  C   UNL     1     -11.421  16.403  68.675  1.00  0.00    -0.224 A  
BRANCH   7  11
HETATM   11  C   UNL     1     -11.048  12.641  68.301  1.00  0.00    -0.261 C  
HETATM   12  O   UNL     1     -11.531  11.979  69.217  1.00  0.00    -0.262 OA 
BRANCH  11  13
HETATM   13  C   UNL     1     -10.878  11.977  66.973  1.00  0.00    -0.297 A  
HETATM   14  C   UNL     1     -11.513  12.563  65.867  1.00  0.00    -0.417 A  
HETATM   15  C   UNL     1     -11.369  12.017  64.591  1.00  0.00    -0.377 A  
HETATM   16  C   UNL     1     -10.588  10.879  64.408  1.00  0.00    -0.343 A  
HETATM   17  C   UNL     1      -9.978  10.268  65.505  1.00  0.00    -0.364 A  
HETATM   18  C   UNL     1     -10.134  10.805  66.787  1.00  0.00    -0.267 A  
ENDBRANCH  11  13
ENDBRANCH   7  11
ENDBRANCH   2   3
TORSDOF 3
ENDMDL
MODEL      108
REMARK 921   NORMALIZED FREE ENERGY PREDICTED BY IDOCK:   -4.50 KCAL/MOL
REMARK 922        TOTAL FREE ENERGY PREDICTED BY IDOCK:   -5.67 KCAL/MOL
REMARK 923 INTER-LIGAND FREE ENERGY PREDICTED BY IDOCK:   -5.14 KCAL/MOL
REMARK 924 INTRA-LIGAND FREE ENERGY PREDICTED BY IDOCK:   -0.53 KCAL/MOL
REMARK 927      BINDING AFFINITY PREDICTED BY RF-SCORE:    0.00 PKD
ROOT
HETATM    1  C   UNL     1      -9.496  10.126  62.349  1.00  0.00    -0.210 C  
HETATM    2  O   UNL     1      -9.336   9.869  63.744  1.00  0.00    -0.268 OA 
ENDROOT
BRANCH   2   3
HETATM    3  C   UNL     1      -9.725  10.893  64.565  1.00  0.00    -0.282 A  
HETATM    4  C   UNL     1      -9.685  10.846  65.957  1.00  0.00    -0.268 A  
HETATM    5  C   UNL     1     -10.167  11.923  66.706  1.00  0.00    -0.206 A  
HETATM    6  O   UNL     1     -10.169  11.807  68.069  1.00  0.00    -0.182 OA 
HETATM    7  C   UNL     1     -10.673  13.068  66.077  1.00  0.00    -0.290 A  
HETATM    8  H   UNL     1     -10.497  12.539  68.578  1.00  0.00     0.000 HD 
HETATM    9  C   UNL     1     -10.621  13.144  64.678  1.00  0.00    -0.410 A  
HETATM   10  C   UNL     1     -10.158  12.056  63.929  1.00  0.00    -0.394 A  
BRANCH   7  11
HETATM   11  C   UNL     1     -11.183  14.218  66.879  1.00  0.00    -0.326 C  
HETATM   12  O   UNL     1     -12.235  14.105  67.505  1.00  0.00    -0.370 OA 
BRANCH  11  13
HETATM   13  C   UNL     1     -10.422  15.497  67.016  1.00  0.00    -0.304 A  
HETATM   14  C   UNL     1     -10.818  16.385  68.029  1.00  0.00    -0.342 A  
HETATM   15  C   UNL     1     -10.130  17.580  68.237  1.00  0.00    -0.346 A  
HETATM   16  C   UNL     1      -9.040  17.902  67.433  1.00  0.00    -0.245 A  
HETATM   17  C   UNL     1      -8.657  17.044  66.401  1.00  0.00    -0.311 A  
HETATM   18  C   UNL     1      -9.355  15.852  66.180  1.00  0.00    -0.385 A  
ENDBRANCH  11  13
ENDBRANCH   7  11
ENDBRANCH   2   3
TORSDOF 3
ENDMDL
MODEL      109
REMARK 921   NORMALIZED FREE ENERGY PREDICTED BY IDOCK:   -4.49 KCAL/MOL
REMARK 922        TOTAL FREE ENERGY PREDICTED BY IDOCK:   -5.66 KCAL/MOL
REMARK 923 INTER-LIGAND FREE ENERGY PREDICTED BY IDOCK:   -5.95 KCAL/MOL
REMARK 924 INTRA-LIGAND FREE ENERGY PREDICTED BY IDOCK:    0.29 KCAL/MOL
REMARK 927      BINDING AFFINITY PREDICTED BY RF-SCORE:    0.00 PKD
ROOT
HETATM    1  C   UNL     1     -10.597  12.866  64.183  1.00  0.00    -0.416 C  
HETATM    2  O   UNL     1     -10.201  13.736  65.243  1.00  0.00    -0.332 OA 
ENDROOT
BRANCH   2   3
HETATM    3  C   UNL     1     -10.630  13.359  66.486  1.00  0.00    -0.287 A  
HETATM    4  C   UNL     1     -11.200  12.122  66.783  1.00  0.00    -0.375 A  
HETATM    5  C   UNL     1     -11.667  11.860  68.074  1.00  0.00    -0.312 A  
HETATM    6  O   UNL     1     -12.277  10.657  68.304  1.00  0.00    -0.799 OA 
HETATM    7  C   UNL     1     -11.551  12.818  69.090  1.00  0.00    -0.373 A  
HETATM    8  H   UNL     1     -12.595  10.479  69.181  1.00  0.00     0.000 HD 
HETATM    9  C   UNL     1     -10.891  14.021  68.805  1.00  0.00    -0.279 A  
HETATM   10  C   UNL     1     -10.444  14.292  67.507  1.00  0.00    -0.252 A  
BRANCH   7  11
HETATM   11  C   UNL     1     -12.046  12.534  70.469  1.00  0.00    -0.274 C  
HETATM   12  O   UNL     1     -12.581  13.428  71.119  1.00  0.00    -0.358 OA 
BRANCH  11  13
HETATM   13  C   UNL     1     -11.984  11.169  71.075  1.00  0.00    -0.268 A  
HETATM   14  C   UNL     1     -13.136  10.690  71.718  1.00  0.00    -0.571 A  
HETATM   15  C   UNL     1     -13.162   9.411  72.275  1.00  0.00    -0.528 A  
HETATM   16  C   UNL     1     -12.034   8.599  72.196  1.00  0.00    -0.449 A  
HETATM   17  C   UNL     1     -10.871   9.076  71.589  1.00  0.00    -0.437 A  
HETATM   18  C   UNL     1     -10.839  10.364  71.043  1.00  0.00     0.363 A  
ENDBRANCH  11  13
ENDBRANCH   7  11
ENDBRANCH   2   3
TORSDOF 3
ENDMDL
MODEL      110
REMARK 921   NORMALIZED FREE ENERGY PREDICTED BY IDOCK:   -4.47 KCAL/MOL
REMARK 922        TOTAL FREE ENERGY PREDICTED BY IDOCK:   -5.64 KCAL/MOL
REMARK 923 INTER-LIGAND FREE ENERGY PREDICTED BY IDOCK:   -4.90 KCAL/MOL
REMARK 924 INTRA-LIGAND FREE ENERGY PREDICTED BY IDOCK:   -0.74 KCAL/MOL
REMARK 927      BINDING AFFINITY PREDICTED BY RF-SCORE:    0.00 PKD
ROOT
HETATM    1  C   UNL     1     -11.668  14.588  66.273  1.00  0.00    -0.358 C  
HETATM    2  O   UNL     1     -10.331  14.090  66.244  1.00  0.00    -0.280 OA 
ENDROOT
BRANCH   2   3
HETATM    3  C   UNL     1     -10.129  12.943  66.962  1.00  0.00    -0.245 A  
HETATM    4  C   UNL     1      -9.091  12.755  67.873  1.00  0.00    -0.204 A  
HETATM    5  C   UNL     1      -8.934  11.520  68.507  1.00  0.00    -0.146 A  
HETATM    6  O   UNL     1      -7.864  11.360  69.345  1.00  0.00    -0.360 OA 
HETATM    7  C   UNL     1      -9.822  10.464  68.259  1.00  0.00    -0.169 A  
HETATM    8  H   UNL     1      -7.757  10.520  69.776  1.00  0.00     0.000 HD 
HETATM    9  C   UNL     1     -10.916  10.694  67.414  1.00  0.00    -0.361 A  
HETATM   10  C   UNL     1     -11.060  11.924  66.762  1.00  0.00    -0.359 A  
BRANCH   7  11
HETATM   11  C   UNL     1      -9.655   9.148  68.941  1.00  0.00    -0.152 C  
HETATM   12  O   UNL     1      -8.665   8.461  68.702  1.00  0.00    -0.131 OA 
BRANCH  11  13
HETATM   13  C   UNL     1     -10.617   8.655  69.973  1.00  0.00    -0.233 A  
HETATM   14  C   UNL     1     -11.193   9.604  70.832  1.00  0.00    -0.422 A  
HETATM   15  C   UNL     1     -12.126   9.219  71.795  1.00  0.00    -0.457 A  
HETATM   16  C   UNL     1     -12.491   7.881  71.911  1.00  0.00    -0.352 A  
HETATM   17  C   UNL     1     -11.900   6.922  71.086  1.00  0.00    -0.395 A  
HETATM   18  C   UNL     1     -10.953   7.304  70.129  1.00  0.00    -0.280 A  
ENDBRANCH  11  13
ENDBRANCH   7  11
ENDBRANCH   2   3
TORSDOF 3
ENDMDL
MODEL      111
REMARK 921   NORMALIZED FREE ENERGY PREDICTED BY IDOCK:   -4.47 KCAL/MOL
REMARK 922        TOTAL FREE ENERGY PREDICTED BY IDOCK:   -5.63 KCAL/MOL
REMARK 923 INTER-LIGAND FREE ENERGY PREDICTED BY IDOCK:   -5.12 KCAL/MOL
REMARK 924 INTRA-LIGAND FREE ENERGY PREDICTED BY IDOCK:   -0.52 KCAL/MOL
REMARK 927      BINDING AFFINITY PREDICTED BY RF-SCORE:    0.00 PKD
ROOT
HETATM    1  C   UNL     1      -5.957  13.927  69.891  1.00  0.00    -0.134 C  
HETATM    2  O   UNL     1      -7.111  14.728  70.144  1.00  0.00    -0.126 OA 
ENDROOT
BRANCH   2   3
HETATM    3  C   UNL     1      -7.904  14.955  69.053  1.00  0.00    -0.165 A  
HETATM    4  C   UNL     1      -8.601  16.138  68.815  1.00  0.00    -0.236 A  
HETATM    5  C   UNL     1      -9.438  16.245  67.701  1.00  0.00    -0.221 A  
HETATM    6  O   UNL     1     -10.152  17.401  67.543  1.00  0.00    -0.299 OA 
HETATM    7  C   UNL     1      -9.572  15.182  66.797  1.00  0.00    -0.260 A  
HETATM    8  H   UNL     1     -10.720  17.473  66.786  1.00  0.00     0.000 HD 
HETATM    9  C   UNL     1      -8.794  14.033  66.994  1.00  0.00    -0.234 A  
HETATM   10  C   UNL     1      -7.974  13.918  68.122  1.00  0.00    -0.148 A  
BRANCH   7  11
HETATM   11  C   UNL     1     -10.462  15.300  65.606  1.00  0.00    -0.358 C  
HETATM   12  O   UNL     1     -10.609  16.392  65.062  1.00  0.00    -0.651 OA 
BRANCH  11  13
HETATM   13  C   UNL     1     -11.136  14.116  64.991  1.00  0.00    -0.372 A  
HETATM   14  C   UNL     1     -10.372  13.301  64.141  1.00  0.00    -0.204 A  
HETATM   15  C   UNL     1     -10.926  12.160  63.561  1.00  0.00    -0.521 A  
HETATM   16  C   UNL     1     -12.250  11.822  63.824  1.00  0.00    -0.448 A  
HETATM   17  C   UNL     1     -13.031  12.642  64.641  1.00  0.00    -0.225 A  
HETATM   18  C   UNL     1     -12.482  13.795  65.211  1.00  0.00    -0.512 A  
ENDBRANCH  11  13
ENDBRANCH   7  11
ENDBRANCH   2   3
TORSDOF 3
ENDMDL
MODEL      112
REMARK 921   NORMALIZED FREE ENERGY PREDICTED BY IDOCK:   -4.45 KCAL/MOL
REMARK 922        TOTAL FREE ENERGY PREDICTED BY IDOCK:   -5.62 KCAL/MOL
REMARK 923 INTER-LIGAND FREE ENERGY PREDICTED BY IDOCK:   -5.05 KCAL/MOL
REMARK 924 INTRA-LIGAND FREE ENERGY PREDICTED BY IDOCK:   -0.57 KCAL/MOL
REMARK 927      BINDING AFFINITY PREDICTED BY RF-SCORE:    0.00 PKD
ROOT
HETATM    1  C   UNL     1      -9.471  18.359  66.341  1.00  0.00    -0.295 C  
HETATM    2  O   UNL     1      -9.570  17.218  65.488  1.00  0.00    -0.464 OA 
ENDROOT
BRANCH   2   3
HETATM    3  C   UNL     1      -9.948  16.063  66.115  1.00  0.00    -0.325 A  
HETATM    4  C   UNL     1      -9.790  15.817  67.479  1.00  0.00    -0.229 A  
HETATM    5  C   UNL     1     -10.149  14.576  68.011  1.00  0.00    -0.226 A  
HETATM    6  O   UNL     1      -9.917  14.357  69.341  1.00  0.00    -0.417 OA 
HETATM    7  C   UNL     1     -10.691  13.573  67.196  1.00  0.00    -0.282 A  
HETATM    8  H   UNL     1     -10.162  13.513  69.703  1.00  0.00     0.000 HD 
HETATM    9  C   UNL     1     -10.933  13.863  65.846  1.00  0.00    -0.284 A  
HETATM   10  C   UNL     1     -10.552  15.098  65.310  1.00  0.00    -0.432 A  
BRANCH   7  11
HETATM   11  C   UNL     1     -11.078  12.250  67.767  1.00  0.00    -0.255 C  
HETATM   12  O   UNL     1     -11.974  12.189  68.607  1.00  0.00    -0.318 OA 
BRANCH  11  13
HETATM   13  C   UNL     1     -10.467  10.968  67.302  1.00  0.00    -0.270 A  
HETATM   14  C   UNL     1     -11.013   9.772  67.791  1.00  0.00    -0.242 A  
HETATM   15  C   UNL     1     -10.515   8.537  67.372  1.00  0.00    -0.351 A  
HETATM   16  C   UNL     1      -9.465   8.487  66.461  1.00  0.00    -0.282 A  
HETATM   17  C   UNL     1      -8.890   9.671  65.993  1.00  0.00    -0.178 A  
HETATM   18  C   UNL     1      -9.377  10.909  66.423  1.00  0.00    -0.199 A  
ENDBRANCH  11  13
ENDBRANCH   7  11
ENDBRANCH   2   3
TORSDOF 3
ENDMDL
MODEL      113
REMARK 921   NORMALIZED FREE ENERGY PREDICTED BY IDOCK:   -4.45 KCAL/MOL
REMARK 922        TOTAL FREE ENERGY PREDICTED BY IDOCK:   -5.62 KCAL/MOL
REMARK 923 INTER-LIGAND FREE ENERGY PREDICTED BY IDOCK:   -5.13 KCAL/MOL
REMARK 924 INTRA-LIGAND FREE ENERGY PREDICTED BY IDOCK:   -0.49 KCAL/MOL
REMARK 927      BINDING AFFINITY PREDICTED BY RF-SCORE:    0.00 PKD
ROOT
HETATM    1  C   UNL     1      -9.737  10.419  62.932  1.00  0.00    -0.223 C  
HETATM    2  O   UNL     1      -9.896  11.828  63.100  1.00  0.00    -0.409 OA 
ENDROOT
BRANCH   2   3
HETATM    3  C   UNL     1     -10.276  12.218  64.355  1.00  0.00    -0.314 A  
HETATM    4  C   UNL     1      -9.394  12.465  65.405  1.00  0.00     0.161 A  
HETATM    5  C   UNL     1      -9.889  12.796  66.670  1.00  0.00    -0.250 A  
HETATM    6  O   UNL     1      -8.989  12.966  67.687  1.00  0.00    -0.172 OA 
HETATM    7  C   UNL     1     -11.267  12.907  66.898  1.00  0.00    -0.331 A  
HETATM    8  H   UNL     1      -9.326  13.191  68.546  1.00  0.00     0.000 HD 
HETATM    9  C   UNL     1     -12.141  12.750  65.812  1.00  0.00    -0.505 A  
HETATM   10  C   UNL     1     -11.646  12.396  64.552  1.00  0.00    -0.409 A  
BRANCH   7  11
HETATM   11  C   UNL     1     -11.793  13.264  68.247  1.00  0.00    -0.354 C  
HETATM   12  O   UNL     1     -12.138  14.421  68.478  1.00  0.00    -0.318 OA 
BRANCH  11  13
HETATM   13  C   UNL     1     -11.990  12.247  69.324  1.00  0.00    -0.308 A  
HETATM   14  C   UNL     1     -11.622  10.922  69.043  1.00  0.00    -0.387 A  
HETATM   15  C   UNL     1     -11.745   9.927  70.014  1.00  0.00    -0.186 A  
HETATM   16  C   UNL     1     -12.238  10.247  71.275  1.00  0.00    -0.496 A  
HETATM   17  C   UNL     1     -12.640  11.555  71.557  1.00  0.00    -0.363 A  
HETATM   18  C   UNL     1     -12.531  12.550  70.580  1.00  0.00    -0.266 A  
ENDBRANCH  11  13
ENDBRANCH   7  11
ENDBRANCH   2   3
TORSDOF 3
ENDMDL
MODEL      114
REMARK 921   NORMALIZED FREE ENERGY PREDICTED BY IDOCK:   -4.44 KCAL/MOL
REMARK 922        TOTAL FREE ENERGY PREDICTED BY IDOCK:   -5.61 KCAL/MOL
REMARK 923 INTER-LIGAND FREE ENERGY PREDICTED BY IDOCK:   -5.17 KCAL/MOL
REMARK 924 INTRA-LIGAND FREE ENERGY PREDICTED BY IDOCK:   -0.44 KCAL/MOL
REMARK 927      BINDING AFFINITY PREDICTED BY RF-SCORE:    0.00 PKD
ROOT
HETATM    1  C   UNL     1      -9.887   7.158  68.295  1.00  0.00    -0.151 C  
HETATM    2  O   UNL     1     -10.288   8.244  69.130  1.00  0.00    -0.212 OA 
ENDROOT
BRANCH   2   3
HETATM    3  C   UNL     1     -10.625   9.389  68.461  1.00  0.00    -0.197 A  
HETATM    4  C   UNL     1     -11.227  10.499  69.051  1.00  0.00    -0.316 A  
HETATM    5  C   UNL     1     -11.592  11.596  68.265  1.00  0.00    -0.310 A  
HETATM    6  O   UNL     1     -12.238  12.636  68.875  1.00  0.00    -0.181 OA 
HETATM    7  C   UNL     1     -11.341  11.609  66.886  1.00  0.00    -0.364 A  
HETATM    8  H   UNL     1     -12.486  13.381  68.341  1.00  0.00     0.000 HD 
HETATM    9  C   UNL     1     -10.650  10.529  66.320  1.00  0.00    -0.203 A  
HETATM   10  C   UNL     1     -10.305   9.422  67.104  1.00  0.00    -0.326 A  
BRANCH   7  11
HETATM   11  C   UNL     1     -11.727  12.783  66.050  1.00  0.00    -0.418 C  
HETATM   12  O   UNL     1     -12.755  12.739  65.378  1.00  0.00    -0.621 OA 
BRANCH  11  13
HETATM   13  C   UNL     1     -10.946  14.057  66.051  1.00  0.00    -0.298 A  
HETATM   14  C   UNL     1      -9.753  14.089  66.791  1.00  0.00    -0.283 A  
HETATM   15  C   UNL     1      -8.955  15.233  66.808  1.00  0.00    -0.291 A  
HETATM   16  C   UNL     1      -9.342  16.358  66.086  1.00  0.00    -0.360 A  
HETATM   17  C   UNL     1     -10.543  16.351  65.373  1.00  0.00    -0.338 A  
HETATM   18  C   UNL     1     -11.352  15.210  65.368  1.00  0.00    -0.298 A  
ENDBRANCH  11  13
ENDBRANCH   7  11
ENDBRANCH   2   3
TORSDOF 3
ENDMDL
MODEL      115
REMARK 921   NORMALIZED FREE ENERGY PREDICTED BY IDOCK:   -4.44 KCAL/MOL
REMARK 922        TOTAL FREE ENERGY PREDICTED BY IDOCK:   -5.60 KCAL/MOL
REMARK 923 INTER-LIGAND FREE ENERGY PREDICTED BY IDOCK:   -4.85 KCAL/MOL
REMARK 924 INTRA-LIGAND FREE ENERGY PREDICTED BY IDOCK:   -0.76 KCAL/MOL
REMARK 927      BINDING AFFINITY PREDICTED BY RF-SCORE:    0.00 PKD
ROOT
HETATM    1  C   UNL     1      -9.676   8.996  69.224  1.00  0.00    -0.168 C  
HETATM    2  O   UNL     1      -9.323   9.254  67.865  1.00  0.00    -0.130 OA 
ENDROOT
BRANCH   2   3
HETATM    3  C   UNL     1      -9.690  10.488  67.401  1.00  0.00    -0.164 A  
HETATM    4  C   UNL     1     -10.988  10.838  67.033  1.00  0.00    -0.292 A  
HETATM    5  C   UNL     1     -11.246  12.107  66.507  1.00  0.00    -0.328 A  
HETATM    6  O   UNL     1     -12.522  12.385  66.099  1.00  0.00    -0.507 OA 
HETATM    7  C   UNL     1     -10.220  13.050  66.363  1.00  0.00    -0.283 A  
HETATM    8  H   UNL     1     -12.697  13.248  65.742  1.00  0.00     0.000 HD 
HETATM    9  C   UNL     1      -8.937  12.720  66.825  1.00  0.00    -0.188 A  
HETATM   10  C   UNL     1      -8.675  11.442  67.330  1.00  0.00    -0.145 A  
BRANCH   7  11
HETATM   11  C   UNL     1     -10.498  14.406  65.807  1.00  0.00    -0.318 C  
HETATM   12  O   UNL     1     -10.859  14.521  64.638  1.00  0.00    -0.391 OA 
BRANCH  11  13
HETATM   13  C   UNL     1     -10.429  15.643  66.642  1.00  0.00    -0.301 A  
HETATM   14  C   UNL     1     -11.029  15.606  67.910  1.00  0.00    -0.319 A  
HETATM   15  C   UNL     1     -10.972  16.713  68.758  1.00  0.00    -0.309 A  
HETATM   16  C   UNL     1     -10.315  17.868  68.346  1.00  0.00    -0.380 A  
HETATM   17  C   UNL     1      -9.743  17.930  67.073  1.00  0.00    -0.298 A  
HETATM   18  C   UNL     1      -9.812  16.826  66.216  1.00  0.00    -0.327 A  
ENDBRANCH  11  13
ENDBRANCH   7  11
ENDBRANCH   2   3
TORSDOF 3
ENDMDL
MODEL      116
REMARK 921   NORMALIZED FREE ENERGY PREDICTED BY IDOCK:   -4.44 KCAL/MOL
REMARK 922        TOTAL FREE ENERGY PREDICTED BY IDOCK:   -5.60 KCAL/MOL
REMARK 923 INTER-LIGAND FREE ENERGY PREDICTED BY IDOCK:   -5.08 KCAL/MOL
REMARK 924 INTRA-LIGAND FREE ENERGY PREDICTED BY IDOCK:   -0.52 KCAL/MOL
REMARK 927      BINDING AFFINITY PREDICTED BY RF-SCORE:    0.00 PKD
ROOT
HETATM    1  C   UNL     1     -12.108  14.142  65.075  1.00  0.00    -0.421 C  
HETATM    2  O   UNL     1     -11.423  14.311  66.316  1.00  0.00    -0.337 OA 
ENDROOT
BRANCH   2   3
HETATM    3  C   UNL     1     -10.487  15.309  66.325  1.00  0.00    -0.307 A  
HETATM    4  C   UNL     1     -10.784  16.669  66.251  1.00  0.00    -0.119 A  
HETATM    5  C   UNL     1      -9.750  17.608  66.200  1.00  0.00    -0.213 A  
HETATM    6  O   UNL     1     -10.087  18.926  66.063  1.00  0.00    -0.447 OA 
HETATM    7  C   UNL     1      -8.409  17.205  66.246  1.00  0.00    -0.298 A  
HETATM    8  H   UNL     1      -9.383  19.564  66.029  1.00  0.00     0.000 HD 
HETATM    9  C   UNL     1      -8.123  15.843  66.416  1.00  0.00    -0.197 A  
HETATM   10  C   UNL     1      -9.159  14.901  66.443  1.00  0.00    -0.293 A  
BRANCH   7  11
HETATM   11  C   UNL     1      -7.306  18.209  66.197  1.00  0.00    -0.274 C  
HETATM   12  O   UNL     1      -6.801  18.505  65.116  1.00  0.00    -0.528 OA 
BRANCH  11  13
HETATM   13  C   UNL     1      -6.832  18.935  67.413  1.00  0.00    -0.208 A  
HETATM   14  C   UNL     1      -6.494  20.290  67.271  1.00  0.00    -0.253 A  
HETATM   15  C   UNL     1      -6.078  21.040  68.372  1.00  0.00    -0.312 A  
HETATM   16  C   UNL     1      -5.994  20.441  69.626  1.00  0.00    -0.384 A  
HETATM   17  C   UNL     1      -6.295  19.086  69.774  1.00  0.00    -0.238 A  
HETATM   18  C   UNL     1      -6.698  18.329  68.669  1.00  0.00    -0.251 A  
ENDBRANCH  11  13
ENDBRANCH   7  11
ENDBRANCH   2   3
TORSDOF 3
ENDMDL
MODEL      117
REMARK 921   NORMALIZED FREE ENERGY PREDICTED BY IDOCK:   -4.44 KCAL/MOL
REMARK 922        TOTAL FREE ENERGY PREDICTED BY IDOCK:   -5.60 KCAL/MOL
REMARK 923 INTER-LIGAND FREE ENERGY PREDICTED BY IDOCK:   -4.90 KCAL/MOL
REMARK 924 INTRA-LIGAND FREE ENERGY PREDICTED BY IDOCK:   -0.71 KCAL/MOL
REMARK 927      BINDING AFFINITY PREDICTED BY RF-SCORE:    0.00 PKD
ROOT
HETATM    1  C   UNL     1     -13.335  11.001  71.633  1.00  0.00    -0.243 C  
HETATM    2  O   UNL     1     -12.340  10.155  71.056  1.00  0.00    -0.316 OA 
ENDROOT
BRANCH   2   3
HETATM    3  C   UNL     1     -11.815  10.607  69.876  1.00  0.00    -0.315 A  
HETATM    4  C   UNL     1     -11.265   9.787  68.892  1.00  0.00    -0.076 A  
HETATM    5  C   UNL     1     -10.694  10.354  67.749  1.00  0.00    -0.279 A  
HETATM    6  O   UNL     1     -10.109   9.516  66.841  1.00  0.00    -0.198 OA 
HETATM    7  C   UNL     1     -10.685  11.743  67.563  1.00  0.00    -0.262 A  
HETATM    8  H   UNL     1      -9.721   9.901  66.064  1.00  0.00     0.000 HD 
HETATM    9  C   UNL     1     -11.324  12.552  68.513  1.00  0.00    -0.337 A  
HETATM   10  C   UNL     1     -11.876  11.984  69.667  1.00  0.00    -0.401 A  
BRANCH   7  11
HETATM   11  C   UNL     1     -10.079  12.346  66.340  1.00  0.00    -0.236 C  
HETATM   12  O   UNL     1      -9.091  11.824  65.830  1.00  0.00    -0.205 OA 
BRANCH  11  13
HETATM   13  C   UNL     1     -10.675  13.533  65.655  1.00  0.00    -0.284 A  
HETATM   14  C   UNL     1     -10.040  14.772  65.829  1.00  0.00    -0.364 A  
HETATM   15  C   UNL     1     -10.521  15.915  65.190  1.00  0.00    -0.363 A  
HETATM   16  C   UNL     1     -11.643  15.831  64.371  1.00  0.00    -0.240 A  
HETATM   17  C   UNL     1     -12.304  14.611  64.216  1.00  0.00    -0.375 A  
HETATM   18  C   UNL     1     -11.833  13.467  64.868  1.00  0.00    -0.402 A  
ENDBRANCH  11  13
ENDBRANCH   7  11
ENDBRANCH   2   3
TORSDOF 3
ENDMDL
MODEL      118
REMARK 921   NORMALIZED FREE ENERGY PREDICTED BY IDOCK:   -4.44 KCAL/MOL
REMARK 922        TOTAL FREE ENERGY PREDICTED BY IDOCK:   -5.60 KCAL/MOL
REMARK 923 INTER-LIGAND FREE ENERGY PREDICTED BY IDOCK:   -5.09 KCAL/MOL
REMARK 924 INTRA-LIGAND FREE ENERGY PREDICTED BY IDOCK:   -0.51 KCAL/MOL
REMARK 927      BINDING AFFINITY PREDICTED BY RF-SCORE:    0.00 PKD
ROOT
HETATM    1  C   UNL     1      -8.261   8.137  72.243  1.00  0.00    -0.154 C  
HETATM    2  O   UNL     1      -9.505   8.835  72.181  1.00  0.00    -0.301 OA 
ENDROOT
BRANCH   2   3
HETATM    3  C   UNL     1      -9.795   9.385  70.963  1.00  0.00    -0.247 A  
HETATM    4  C   UNL     1     -11.065   9.802  70.568  1.00  0.00    -0.384 A  
HETATM    5  C   UNL     1     -11.269  10.291  69.275  1.00  0.00    -0.228 A  
HETATM    6  O   UNL     1     -12.544  10.628  68.910  1.00  0.00    -0.742 OA 
HETATM    7  C   UNL     1     -10.206  10.392  68.367  1.00  0.00    -0.186 A  
HETATM    8  H   UNL     1     -12.682  10.961  68.031  1.00  0.00     0.000 HD 
HETATM    9  C   UNL     1      -8.917  10.060  68.805  1.00  0.00    -0.145 A  
HETATM   10  C   UNL     1      -8.717   9.549  70.093  1.00  0.00    -0.258 A  
BRANCH   7  11
HETATM   11  C   UNL     1     -10.425  10.919  66.989  1.00  0.00    -0.244 C  
HETATM   12  O   UNL     1     -10.423  10.145  66.034  1.00  0.00    -0.194 OA 
BRANCH  11  13
HETATM   13  C   UNL     1     -10.725  12.359  66.721  1.00  0.00    -0.263 A  
HETATM   14  C   UNL     1      -9.784  13.309  67.145  1.00  0.00    -0.236 A  
HETATM   15  C   UNL     1      -9.981  14.668  66.897  1.00  0.00    -0.254 A  
HETATM   16  C   UNL     1     -11.124  15.090  66.223  1.00  0.00    -0.334 A  
HETATM   17  C   UNL     1     -12.084  14.158  65.826  1.00  0.00    -0.433 A  
HETATM   18  C   UNL     1     -11.895  12.797  66.087  1.00  0.00    -0.484 A  
ENDBRANCH  11  13
ENDBRANCH   7  11
ENDBRANCH   2   3
TORSDOF 3
ENDMDL
MODEL      119
REMARK 921   NORMALIZED FREE ENERGY PREDICTED BY IDOCK:   -4.41 KCAL/MOL
REMARK 922        TOTAL FREE ENERGY PREDICTED BY IDOCK:   -5.57 KCAL/MOL
REMARK 923 INTER-LIGAND FREE ENERGY PREDICTED BY IDOCK:   -4.84 KCAL/MOL
REMARK 924 INTRA-LIGAND FREE ENERGY PREDICTED BY IDOCK:   -0.73 KCAL/MOL
REMARK 927      BINDING AFFINITY PREDICTED BY RF-SCORE:    0.00 PKD
ROOT
HETATM    1  C   UNL     1      -9.382   2.740  68.149  1.00  0.00    -0.203 C  
HETATM    2  O   UNL     1      -8.543   3.863  68.420  1.00  0.00    -0.090 OA 
ENDROOT
BRANCH   2   3
HETATM    3  C   UNL     1      -9.039   4.743  69.342  1.00  0.00    -0.104 A  
HETATM    4  C   UNL     1      -8.306   5.270  70.404  1.00  0.00    -0.111 A  
HETATM    5  C   UNL     1      -8.926   6.112  71.332  1.00  0.00    -0.143 A  
HETATM    6  O   UNL     1      -8.186   6.554  72.393  1.00  0.00    -0.106 OA 
HETATM    7  C   UNL     1     -10.278   6.457  71.199  1.00  0.00    -0.224 A  
HETATM    8  H   UNL     1      -8.607   7.126  73.023  1.00  0.00     0.000 HD 
HETATM    9  C   UNL     1     -10.980   5.998  70.076  1.00  0.00    -0.450 A  
HETATM   10  C   UNL     1     -10.365   5.137  69.160  1.00  0.00    -0.226 A  
BRANCH   7  11
HETATM   11  C   UNL     1     -10.937   7.360  72.187  1.00  0.00    -0.245 C  
HETATM   12  O   UNL     1     -10.913   7.074  73.382  1.00  0.00    -0.304 OA 
BRANCH  11  13
HETATM   13  C   UNL     1     -11.571   8.653  71.790  1.00  0.00    -0.403 A  
HETATM   14  C   UNL     1     -10.874   9.469  70.886  1.00  0.00    -0.407 A  
HETATM   15  C   UNL     1     -11.422  10.674  70.443  1.00  0.00    -0.422 A  
HETATM   16  C   UNL     1     -12.673  11.075  70.903  1.00  0.00    -0.452 A  
HETATM   17  C   UNL     1     -13.362  10.290  71.828  1.00  0.00    -0.476 A  
HETATM   18  C   UNL     1     -12.807   9.089  72.285  1.00  0.00    -0.474 A  
ENDBRANCH  11  13
ENDBRANCH   7  11
ENDBRANCH   2   3
TORSDOF 3
ENDMDL
MODEL      120
REMARK 921   NORMALIZED FREE ENERGY PREDICTED BY IDOCK:   -4.39 KCAL/MOL
REMARK 922        TOTAL FREE ENERGY PREDICTED BY IDOCK:   -5.54 KCAL/MOL
REMARK 923 INTER-LIGAND FREE ENERGY PREDICTED BY IDOCK:   -4.97 KCAL/MOL
REMARK 924 INTRA-LIGAND FREE ENERGY PREDICTED BY IDOCK:   -0.58 KCAL/MOL
REMARK 927      BINDING AFFINITY PREDICTED BY RF-SCORE:    0.00 PKD
ROOT
HETATM    1  C   UNL     1      -8.308   5.903  70.004  1.00  0.00    -0.122 C  
HETATM    2  O   UNL     1      -7.840   7.239  70.191  1.00  0.00    -0.097 OA 
ENDROOT
BRANCH   2   3
HETATM    3  C   UNL     1      -8.581   8.200  69.560  1.00  0.00    -0.134 A  
HETATM    4  C   UNL     1      -8.284   9.562  69.575  1.00  0.00    -0.134 A  
HETATM    5  C   UNL     1      -9.143  10.472  68.952  1.00  0.00    -0.177 A  
HETATM    6  O   UNL     1      -8.847  11.803  69.048  1.00  0.00    -0.376 OA 
HETATM    7  C   UNL     1     -10.296  10.033  68.287  1.00  0.00    -0.224 A  
HETATM    8  H   UNL     1      -9.431  12.421  68.624  1.00  0.00     0.000 HD 
HETATM    9  C   UNL     1     -10.535   8.655  68.196  1.00  0.00    -0.241 A  
HETATM   10  C   UNL     1      -9.686   7.746  68.839  1.00  0.00    -0.160 A  
BRANCH   7  11
HETATM   11  C   UNL     1     -11.209  11.005  67.618  1.00  0.00    -0.305 C  
HETATM   12  O   UNL     1     -12.057  11.598  68.281  1.00  0.00    -0.552 OA 
BRANCH  11  13
HETATM   13  C   UNL     1     -11.087  11.350  66.169  1.00  0.00    -0.259 A  
HETATM   14  C   UNL     1     -11.792  12.471  65.706  1.00  0.00    -0.494 A  
HETATM   15  C   UNL     1     -11.696  12.872  64.373  1.00  0.00    -0.427 A  
HETATM   16  C   UNL     1     -10.895  12.155  63.489  1.00  0.00    -0.518 A  
HETATM   17  C   UNL     1     -10.216  11.018  63.929  1.00  0.00    -0.425 A  
HETATM   18  C   UNL     1     -10.323  10.605  65.262  1.00  0.00    -0.321 A  
ENDBRANCH  11  13
ENDBRANCH   7  11
ENDBRANCH   2   3
TORSDOF 3
ENDMDL
MODEL      121
REMARK 921   NORMALIZED FREE ENERGY PREDICTED BY IDOCK:   -4.38 KCAL/MOL
REMARK 922        TOTAL FREE ENERGY PREDICTED BY IDOCK:   -5.54 KCAL/MOL
REMARK 923 INTER-LIGAND FREE ENERGY PREDICTED BY IDOCK:   -5.01 KCAL/MOL
REMARK 924 INTRA-LIGAND FREE ENERGY PREDICTED BY IDOCK:   -0.53 KCAL/MOL
REMARK 927      BINDING AFFINITY PREDICTED BY RF-SCORE:    0.00 PKD
ROOT
HETATM    1  C   UNL     1     -11.174   4.621  73.424  1.00  0.00    -0.338 C  
HETATM    2  O   UNL     1     -12.107   5.579  72.923  1.00  0.00    -0.155 OA 
ENDROOT
BRANCH   2   3
HETATM    3  C   UNL     1     -11.572   6.518  72.085  1.00  0.00    -0.308 A  
HETATM    4  C   UNL     1     -11.606   6.444  70.693  1.00  0.00    -0.412 A  
HETATM    5  C   UNL     1     -10.971   7.425  69.926  1.00  0.00    -0.223 A  
HETATM    6  O   UNL     1     -10.974   7.278  68.566  1.00  0.00    -0.417 OA 
HETATM    7  C   UNL     1     -10.316   8.504  70.535  1.00  0.00    -0.226 A  
HETATM    8  H   UNL     1     -10.542   7.945  68.045  1.00  0.00     0.000 HD 
HETATM    9  C   UNL     1     -10.370   8.619  71.931  1.00  0.00    -0.405 A  
HETATM   10  C   UNL     1     -10.986   7.624  72.699  1.00  0.00    -0.405 A  
BRANCH   7  11
HETATM   11  C   UNL     1      -9.644   9.552  69.714  1.00  0.00    -0.216 C  
HETATM   12  O   UNL     1      -8.442   9.460  69.475  1.00  0.00    -0.130 OA 
BRANCH  11  13
HETATM   13  C   UNL     1     -10.394  10.689  69.099  1.00  0.00    -0.242 A  
HETATM   14  C   UNL     1     -10.127  10.993  67.755  1.00  0.00    -0.201 A  
HETATM   15  C   UNL     1     -10.816  12.019  67.106  1.00  0.00    -0.297 A  
HETATM   16  C   UNL     1     -11.778  12.751  67.796  1.00  0.00    -0.412 A  
HETATM   17  C   UNL     1     -12.029  12.481  69.142  1.00  0.00    -0.287 A  
HETATM   18  C   UNL     1     -11.328  11.464  69.799  1.00  0.00    -0.332 A  
ENDBRANCH  11  13
ENDBRANCH   7  11
ENDBRANCH   2   3
TORSDOF 3
ENDMDL
MODEL      122
REMARK 921   NORMALIZED FREE ENERGY PREDICTED BY IDOCK:   -4.37 KCAL/MOL
REMARK 922        TOTAL FREE ENERGY PREDICTED BY IDOCK:   -5.52 KCAL/MOL
REMARK 923 INTER-LIGAND FREE ENERGY PREDICTED BY IDOCK:   -4.90 KCAL/MOL
REMARK 924 INTRA-LIGAND FREE ENERGY PREDICTED BY IDOCK:   -0.62 KCAL/MOL
REMARK 927      BINDING AFFINITY PREDICTED BY RF-SCORE:    0.00 PKD
ROOT
HETATM    1  C   UNL     1     -11.033   2.471  73.417  1.00  0.00    -0.193 C  
HETATM    2  O   UNL     1     -10.251   2.914  72.308  1.00  0.00    -0.164 OA 
ENDROOT
BRANCH   2   3
HETATM    3  C   UNL     1     -10.069   4.269  72.239  1.00  0.00    -0.182 A  
HETATM    4  C   UNL     1     -10.125   5.129  73.334  1.00  0.00    -0.203 A  
HETATM    5  C   UNL     1      -9.990   6.508  73.147  1.00  0.00    -0.178 A  
HETATM    6  O   UNL     1     -10.116   7.319  74.241  1.00  0.00    -0.433 OA 
HETATM    7  C   UNL     1      -9.774   7.043  71.870  1.00  0.00    -0.166 A  
HETATM    8  H   UNL     1     -10.024   8.256  74.114  1.00  0.00     0.000 HD 
HETATM    9  C   UNL     1      -9.625   6.162  70.790  1.00  0.00    -0.191 A  
HETATM   10  C   UNL     1      -9.783   4.784  70.975  1.00  0.00    -0.257 A  
BRANCH   7  11
HETATM   11  C   UNL     1      -9.625   8.514  71.674  1.00  0.00    -0.249 C  
HETATM   12  O   UNL     1      -8.537   9.048  71.874  1.00  0.00    -0.361 OA 
BRANCH  11  13
HETATM   13  C   UNL     1     -10.740   9.370  71.164  1.00  0.00    -0.417 A  
HETATM   14  C   UNL     1     -11.979   9.281  71.818  1.00  0.00    -0.455 A  
HETATM   15  C   UNL     1     -13.053  10.077  71.419  1.00  0.00    -0.512 A  
HETATM   16  C   UNL     1     -12.900  10.969  70.361  1.00  0.00    -0.221 A  
HETATM   17  C   UNL     1     -11.683  11.042  69.681  1.00  0.00    -0.401 A  
HETATM   18  C   UNL     1     -10.609  10.234  70.070  1.00  0.00    -0.321 A  
ENDBRANCH  11  13
ENDBRANCH   7  11
ENDBRANCH   2   3
TORSDOF 3
ENDMDL
MODEL      123
REMARK 921   NORMALIZED FREE ENERGY PREDICTED BY IDOCK:   -4.34 KCAL/MOL
REMARK 922        TOTAL FREE ENERGY PREDICTED BY IDOCK:   -5.48 KCAL/MOL
REMARK 923 INTER-LIGAND FREE ENERGY PREDICTED BY IDOCK:   -4.79 KCAL/MOL
REMARK 924 INTRA-LIGAND FREE ENERGY PREDICTED BY IDOCK:   -0.70 KCAL/MOL
REMARK 927      BINDING AFFINITY PREDICTED BY RF-SCORE:    0.00 PKD
ROOT
HETATM    1  C   UNL     1      -8.376   8.051  73.926  1.00  0.00    -0.260 C  
HETATM    2  O   UNL     1      -8.701   6.993  73.023  1.00  0.00    -0.120 OA 
ENDROOT
BRANCH   2   3
HETATM    3  C   UNL     1      -9.225   7.400  71.826  1.00  0.00    -0.140 A  
HETATM    4  C   UNL     1     -10.308   6.793  71.192  1.00  0.00    -0.227 A  
HETATM    5  C   UNL     1     -10.726   7.245  69.937  1.00  0.00    -0.242 A  
HETATM    6  O   UNL     1     -11.751   6.578  69.324  1.00  0.00    -0.644 OA 
HETATM    7  C   UNL     1     -10.084   8.321  69.309  1.00  0.00    -0.199 A  
HETATM    8  H   UNL     1     -12.034   6.886  68.471  1.00  0.00     0.000 HD 
HETATM    9  C   UNL     1      -9.058   8.984  69.997  1.00  0.00    -0.187 A  
HETATM   10  C   UNL     1      -8.626   8.517  71.244  1.00  0.00    -0.219 A  
BRANCH   7  11
HETATM   11  C   UNL     1     -10.535   8.805  67.972  1.00  0.00    -0.204 C  
HETATM   12  O   UNL     1     -10.759   7.994  67.076  1.00  0.00    -0.328 OA 
BRANCH  11  13
HETATM   13  C   UNL     1     -10.801  10.248  67.692  1.00  0.00    -0.363 A  
HETATM   14  C   UNL     1     -11.623  10.945  68.592  1.00  0.00    -0.373 A  
HETATM   15  C   UNL     1     -11.885  12.304  68.413  1.00  0.00    -0.358 A  
HETATM   16  C   UNL     1     -11.329  12.979  67.330  1.00  0.00    -0.347 A  
HETATM   17  C   UNL     1     -10.538  12.290  66.409  1.00  0.00    -0.272 A  
HETATM   18  C   UNL     1     -10.287  10.925  66.579  1.00  0.00    -0.299 A  
ENDBRANCH  11  13
ENDBRANCH   7  11
ENDBRANCH   2   3
TORSDOF 3
ENDMDL
MODEL      124
REMARK 921   NORMALIZED FREE ENERGY PREDICTED BY IDOCK:   -4.32 KCAL/MOL
REMARK 922        TOTAL FREE ENERGY PREDICTED BY IDOCK:   -5.46 KCAL/MOL
REMARK 923 INTER-LIGAND FREE ENERGY PREDICTED BY IDOCK:   -4.72 KCAL/MOL
REMARK 924 INTRA-LIGAND FREE ENERGY PREDICTED BY IDOCK:   -0.74 KCAL/MOL
REMARK 927      BINDING AFFINITY PREDICTED BY RF-SCORE:    0.00 PKD
ROOT
HETATM    1  C   UNL     1     -11.327   5.964  72.259  1.00  0.00    -0.298 C  
HETATM    2  O   UNL     1     -11.129   7.343  72.572  1.00  0.00    -0.262 OA 
ENDROOT
BRANCH   2   3
HETATM    3  C   UNL     1     -11.066   8.174  71.487  1.00  0.00    -0.252 A  
HETATM    4  C   UNL     1     -11.296   9.549  71.532  1.00  0.00    -0.456 A  
HETATM    5  C   UNL     1     -11.271  10.300  70.354  1.00  0.00    -0.332 A  
HETATM    6  O   UNL     1     -11.566  11.633  70.436  1.00  0.00    -0.490 OA 
HETATM    7  C   UNL     1     -10.994   9.695  69.120  1.00  0.00    -0.177 A  
HETATM    8  H   UNL     1     -11.549  12.143  69.635  1.00  0.00     0.000 HD 
HETATM    9  C   UNL     1     -10.671   8.331  69.100  1.00  0.00    -0.117 A  
HETATM   10  C   UNL     1     -10.718   7.576  70.277  1.00  0.00    -0.247 A  
BRANCH   7  11
HETATM   11  C   UNL     1     -10.963  10.500  67.865  1.00  0.00    -0.295 C  
HETATM   12  O   UNL     1     -11.890  11.265  67.609  1.00  0.00    -0.614 OA 
BRANCH  11  13
HETATM   13  C   UNL     1      -9.802  10.471  66.925  1.00  0.00    -0.235 A  
HETATM   14  C   UNL     1     -10.061  10.171  65.579  1.00  0.00    -0.338 A  
HETATM   15  C   UNL     1      -9.029  10.161  64.639  1.00  0.00    -0.241 A  
HETATM   16  C   UNL     1      -7.727  10.451  65.036  1.00  0.00    -0.095 A  
HETATM   17  C   UNL     1      -7.451  10.718  66.379  1.00  0.00    -0.142 A  
HETATM   18  C   UNL     1      -8.481  10.713  67.325  1.00  0.00    -0.126 A  
ENDBRANCH  11  13
ENDBRANCH   7  11
ENDBRANCH   2   3
TORSDOF 3
ENDMDL
MODEL      125
REMARK 921   NORMALIZED FREE ENERGY PREDICTED BY IDOCK:   -4.30 KCAL/MOL
REMARK 922        TOTAL FREE ENERGY PREDICTED BY IDOCK:   -5.44 KCAL/MOL
REMARK 923 INTER-LIGAND FREE ENERGY PREDICTED BY IDOCK:   -5.02 KCAL/MOL
REMARK 924 INTRA-LIGAND FREE ENERGY PREDICTED BY IDOCK:   -0.43 KCAL/MOL
REMARK 927      BINDING AFFINITY PREDICTED BY RF-SCORE:    0.00 PKD
ROOT
HETATM    1  C   UNL     1      -7.177   7.837  68.104  1.00  0.00    -0.090 C  
HETATM    2  O   UNL     1      -8.473   7.609  67.552  1.00  0.00    -0.116 OA 
ENDROOT
BRANCH   2   3
HETATM    3  C   UNL     1      -9.186   8.742  67.270  1.00  0.00    -0.139 A  
HETATM    4  C   UNL     1      -8.743   9.764  66.431  1.00  0.00    -0.144 A  
HETATM    5  C   UNL     1      -9.520  10.913  66.260  1.00  0.00    -0.194 A  
HETATM    6  O   UNL     1      -9.017  11.917  65.479  1.00  0.00    -0.420 OA 
HETATM    7  C   UNL     1     -10.757  11.048  66.904  1.00  0.00    -0.325 A  
HETATM    8  H   UNL     1      -9.545  12.698  65.363  1.00  0.00     0.000 HD 
HETATM    9  C   UNL     1     -11.235   9.975  67.669  1.00  0.00    -0.099 A  
HETATM   10  C   UNL     1     -10.447   8.835  67.858  1.00  0.00    -0.275 A  
BRANCH   7  11
HETATM   11  C   UNL     1     -11.587  12.274  66.717  1.00  0.00    -0.369 C  
HETATM   12  O   UNL     1     -12.232  12.419  65.681  1.00  0.00    -0.599 OA 
BRANCH  11  13
HETATM   13  C   UNL     1     -11.728  13.315  67.780  1.00  0.00    -0.398 A  
HETATM   14  C   UNL     1     -11.947  12.876  69.095  1.00  0.00    -0.308 A  
HETATM   15  C   UNL     1     -12.053  13.791  70.143  1.00  0.00    -0.429 A  
HETATM   16  C   UNL     1     -11.941  15.154  69.886  1.00  0.00    -0.372 A  
HETATM   17  C   UNL     1     -11.756  15.605  68.578  1.00  0.00    -0.339 A  
HETATM   18  C   UNL     1     -11.665  14.691  67.524  1.00  0.00    -0.403 A  
ENDBRANCH  11  13
ENDBRANCH   7  11
ENDBRANCH   2   3
TORSDOF 3
ENDMDL
MODEL      126
REMARK 921   NORMALIZED FREE ENERGY PREDICTED BY IDOCK:   -4.27 KCAL/MOL
REMARK 922        TOTAL FREE ENERGY PREDICTED BY IDOCK:   -5.40 KCAL/MOL
REMARK 923 INTER-LIGAND FREE ENERGY PREDICTED BY IDOCK:   -4.87 KCAL/MOL
REMARK 924 INTRA-LIGAND FREE ENERGY PREDICTED BY IDOCK:   -0.52 KCAL/MOL
REMARK 927      BINDING AFFINITY PREDICTED BY RF-SCORE:    0.00 PKD
ROOT
HETATM    1  C   UNL     1      -8.794   5.973  66.689  1.00  0.00    -0.125 C  
HETATM    2  O   UNL     1      -8.466   6.774  67.825  1.00  0.00    -0.122 OA 
ENDROOT
BRANCH   2   3
HETATM    3  C   UNL     1      -8.912   8.066  67.765  1.00  0.00    -0.132 A  
HETATM    4  C   UNL     1     -10.205   8.470  68.094  1.00  0.00    -0.254 A  
HETATM    5  C   UNL     1     -10.580   9.807  67.936  1.00  0.00    -0.259 A  
HETATM    6  O   UNL     1     -11.877  10.146  68.209  1.00  0.00    -0.697 OA 
HETATM    7  C   UNL     1      -9.665  10.761  67.471  1.00  0.00    -0.188 A  
HETATM    8  H   UNL     1     -12.132  11.055  68.102  1.00  0.00     0.000 HD 
HETATM    9  C   UNL     1      -8.342  10.363  67.234  1.00  0.00    -0.122 A  
HETATM   10  C   UNL     1      -7.974   9.019  67.371  1.00  0.00    -0.100 A  
BRANCH   7  11
HETATM   11  C   UNL     1     -10.067  12.189  67.308  1.00  0.00    -0.202 C  
HETATM   12  O   UNL     1      -9.693  13.023  68.128  1.00  0.00    -0.218 OA 
BRANCH  11  13
HETATM   13  C   UNL     1     -10.854  12.668  66.132  1.00  0.00    -0.301 A  
HETATM   14  C   UNL     1     -10.500  12.176  64.866  1.00  0.00    -0.325 A  
HETATM   15  C   UNL     1     -11.215  12.553  63.729  1.00  0.00    -0.524 A  
HETATM   16  C   UNL     1     -12.291  13.428  63.846  1.00  0.00    -0.410 A  
HETATM   17  C   UNL     1     -12.632  13.952  65.094  1.00  0.00    -0.466 A  
HETATM   18  C   UNL     1     -11.907  13.587  66.233  1.00  0.00    -0.431 A  
ENDBRANCH  11  13
ENDBRANCH   7  11
ENDBRANCH   2   3
TORSDOF 3
ENDMDL
MODEL      127
REMARK 921   NORMALIZED FREE ENERGY PREDICTED BY IDOCK:   -4.24 KCAL/MOL
REMARK 922        TOTAL FREE ENERGY PREDICTED BY IDOCK:   -5.37 KCAL/MOL
REMARK 923 INTER-LIGAND FREE ENERGY PREDICTED BY IDOCK:   -4.73 KCAL/MOL
REMARK 924 INTRA-LIGAND FREE ENERGY PREDICTED BY IDOCK:   -0.64 KCAL/MOL
REMARK 927      BINDING AFFINITY PREDICTED BY RF-SCORE:    0.00 PKD
ROOT
HETATM    1  C   UNL     1      -7.427   4.937  71.516  1.00  0.00    -0.082 C  
HETATM    2  O   UNL     1      -8.332   5.273  72.568  1.00  0.00    -0.116 OA 
ENDROOT
BRANCH   2   3
HETATM    3  C   UNL     1      -9.276   6.206  72.237  1.00  0.00    -0.143 A  
HETATM    4  C   UNL     1     -10.455   5.926  71.549  1.00  0.00    -0.287 A  
HETATM    5  C   UNL     1     -11.325   6.963  71.201  1.00  0.00    -0.290 A  
HETATM    6  O   UNL     1     -12.438   6.650  70.470  1.00  0.00    -0.476 OA 
HETATM    7  C   UNL     1     -11.041   8.289  71.554  1.00  0.00    -0.315 A  
HETATM    8  H   UNL     1     -13.028   7.355  70.234  1.00  0.00     0.000 HD 
HETATM    9  C   UNL     1      -9.901   8.548  72.328  1.00  0.00    -0.383 A  
HETATM   10  C   UNL     1      -9.020   7.511  72.657  1.00  0.00    -0.188 A  
BRANCH   7  11
HETATM   11  C   UNL     1     -11.973   9.395  71.186  1.00  0.00    -0.337 C  
HETATM   12  O   UNL     1     -12.994   9.575  71.846  1.00  0.00    -0.362 OA 
BRANCH  11  13
HETATM   13  C   UNL     1     -11.678  10.353  70.078  1.00  0.00    -0.366 A  
HETATM   14  C   UNL     1     -10.755   9.954  69.100  1.00  0.00    -0.247 A  
HETATM   15  C   UNL     1     -10.458  10.783  68.018  1.00  0.00    -0.225 A  
HETATM   16  C   UNL     1     -11.082  12.022  67.904  1.00  0.00    -0.289 A  
HETATM   17  C   UNL     1     -11.978  12.446  68.888  1.00  0.00    -0.289 A  
HETATM   18  C   UNL     1     -12.264  11.622  69.982  1.00  0.00    -0.338 A  
ENDBRANCH  11  13
ENDBRANCH   7  11
ENDBRANCH   2   3
TORSDOF 3
ENDMDL
MODEL      128
REMARK 921   NORMALIZED FREE ENERGY PREDICTED BY IDOCK:   -4.24 KCAL/MOL
REMARK 922        TOTAL FREE ENERGY PREDICTED BY IDOCK:   -5.37 KCAL/MOL
REMARK 923 INTER-LIGAND FREE ENERGY PREDICTED BY IDOCK:   -4.77 KCAL/MOL
REMARK 924 INTRA-LIGAND FREE ENERGY PREDICTED BY IDOCK:   -0.60 KCAL/MOL
REMARK 927      BINDING AFFINITY PREDICTED BY RF-SCORE:    0.00 PKD
ROOT
HETATM    1  C   UNL     1     -12.048  14.214  66.583  1.00  0.00    -0.451 C  
HETATM    2  O   UNL     1     -11.196  13.503  65.685  1.00  0.00    -0.293 OA 
ENDROOT
BRANCH   2   3
HETATM    3  C   UNL     1     -10.949  12.203  66.034  1.00  0.00    -0.293 A  
HETATM    4  C   UNL     1     -10.224  11.302  65.256  1.00  0.00    -0.328 A  
HETATM    5  C   UNL     1     -10.084   9.975  65.673  1.00  0.00    -0.251 A  
HETATM    6  O   UNL     1      -9.420   9.110  64.847  1.00  0.00    -0.453 OA 
HETATM    7  C   UNL     1     -10.644   9.537  66.880  1.00  0.00    -0.241 A  
HETATM    8  H   UNL     1      -9.325   8.209  65.130  1.00  0.00     0.000 HD 
HETATM    9  C   UNL     1     -11.289  10.474  67.699  1.00  0.00    -0.233 A  
HETATM   10  C   UNL     1     -11.449  11.796  67.270  1.00  0.00    -0.373 A  
BRANCH   7  11
HETATM   11  C   UNL     1     -10.489   8.121  67.325  1.00  0.00    -0.309 C  
HETATM   12  O   UNL     1     -10.388   7.228  66.487  1.00  0.00    -0.179 OA 
BRANCH  11  13
HETATM   13  C   UNL     1     -10.376   7.744  68.767  1.00  0.00    -0.219 A  
HETATM   14  C   UNL     1     -11.311   6.830  69.276  1.00  0.00    -0.224 A  
HETATM   15  C   UNL     1     -11.244   6.406  70.603  1.00  0.00    -0.400 A  
HETATM   16  C   UNL     1     -10.241   6.893  71.436  1.00  0.00    -0.212 A  
HETATM   17  C   UNL     1      -9.324   7.829  70.951  1.00  0.00    -0.157 A  
HETATM   18  C   UNL     1      -9.400   8.267  69.625  1.00  0.00    -0.158 A  
ENDBRANCH  11  13
ENDBRANCH   7  11
ENDBRANCH   2   3
TORSDOF 3
ENDMDL
MODEL      129
REMARK 921   NORMALIZED FREE ENERGY PREDICTED BY IDOCK:   -4.23 KCAL/MOL
REMARK 922        TOTAL FREE ENERGY PREDICTED BY IDOCK:   -5.35 KCAL/MOL
REMARK 923 INTER-LIGAND FREE ENERGY PREDICTED BY IDOCK:   -4.69 KCAL/MOL
REMARK 924 INTRA-LIGAND FREE ENERGY PREDICTED BY IDOCK:   -0.67 KCAL/MOL
REMARK 927      BINDING AFFINITY PREDICTED BY RF-SCORE:    0.00 PKD
ROOT
HETATM    1  C   UNL     1      -8.276   8.547  71.692  1.00  0.00    -0.160 C  
HETATM    2  O   UNL     1      -9.500   9.060  71.166  1.00  0.00    -0.241 OA 
ENDROOT
BRANCH   2   3
HETATM    3  C   UNL     1      -9.437   9.475  69.864  1.00  0.00    -0.222 A  
HETATM    4  C   UNL     1      -8.428  10.283  69.342  1.00  0.00    -0.170 A  
HETATM    5  C   UNL     1      -8.491  10.706  68.011  1.00  0.00    -0.119 A  
HETATM    6  O   UNL     1      -7.514  11.551  67.560  1.00  0.00    -0.103 OA 
HETATM    7  C   UNL     1      -9.547  10.310  67.179  1.00  0.00    -0.199 A  
HETATM    8  H   UNL     1      -7.557  11.838  66.655  1.00  0.00     0.000 HD 
HETATM    9  C   UNL     1     -10.504   9.421  67.687  1.00  0.00    -0.328 A  
HETATM   10  C   UNL     1     -10.453   9.016  69.026  1.00  0.00    -0.235 A  
BRANCH   7  11
HETATM   11  C   UNL     1      -9.609  10.759  65.757  1.00  0.00    -0.208 C  
HETATM   12  O   UNL     1      -8.776  10.349  64.953  1.00  0.00    -0.171 OA 
BRANCH  11  13
HETATM   13  C   UNL     1     -10.701  11.641  65.245  1.00  0.00    -0.346 A  
HETATM   14  C   UNL     1     -11.330  12.498  66.161  1.00  0.00    -0.388 A  
HETATM   15  C   UNL     1     -12.333  13.374  65.745  1.00  0.00    -0.513 A  
HETATM   16  C   UNL     1     -12.717  13.402  64.407  1.00  0.00    -0.156 A  
HETATM   17  C   UNL     1     -12.122  12.532  63.492  1.00  0.00    -0.653 A  
HETATM   18  C   UNL     1     -11.128  11.642  63.910  1.00  0.00    -0.477 A  
ENDBRANCH  11  13
ENDBRANCH   7  11
ENDBRANCH   2   3
TORSDOF 3
ENDMDL
MODEL      130
REMARK 921   NORMALIZED FREE ENERGY PREDICTED BY IDOCK:   -4.21 KCAL/MOL
REMARK 922        TOTAL FREE ENERGY PREDICTED BY IDOCK:   -5.33 KCAL/MOL
REMARK 923 INTER-LIGAND FREE ENERGY PREDICTED BY IDOCK:   -4.83 KCAL/MOL
REMARK 924 INTRA-LIGAND FREE ENERGY PREDICTED BY IDOCK:   -0.50 KCAL/MOL
REMARK 927      BINDING AFFINITY PREDICTED BY RF-SCORE:    0.00 PKD
ROOT
HETATM    1  C   UNL     1     -12.433  12.318  63.374  1.00  0.00    -0.481 C  
HETATM    2  O   UNL     1     -12.986  13.113  64.422  1.00  0.00    -0.665 OA 
ENDROOT
BRANCH   2   3
HETATM    3  C   UNL     1     -12.065  13.768  65.194  1.00  0.00    -0.399 A  
HETATM    4  C   UNL     1     -12.164  13.925  66.576  1.00  0.00    -0.482 A  
HETATM    5  C   UNL     1     -11.201  14.669  67.264  1.00  0.00    -0.337 A  
HETATM    6  O   UNL     1     -11.373  14.852  68.609  1.00  0.00    -0.264 OA 
HETATM    7  C   UNL     1     -10.117  15.244  66.588  1.00  0.00    -0.268 A  
HETATM    8  H   UNL     1     -10.718  15.358  69.077  1.00  0.00     0.000 HD 
HETATM    9  C   UNL     1      -9.976  15.000  65.215  1.00  0.00    -0.325 A  
HETATM   10  C   UNL     1     -10.953  14.274  64.523  1.00  0.00    -0.311 A  
BRANCH   7  11
HETATM   11  C   UNL     1      -9.088  16.033  67.326  1.00  0.00    -0.204 C  
HETATM   12  O   UNL     1      -9.103  17.261  67.264  1.00  0.00    -0.223 OA 
BRANCH  11  13
HETATM   13  C   UNL     1      -8.069  15.390  68.209  1.00  0.00    -0.136 A  
HETATM   14  C   UNL     1      -7.689  14.072  67.912  1.00  0.00    -0.161 A  
HETATM   15  C   UNL     1      -6.716  13.422  68.673  1.00  0.00    -0.095 A  
HETATM   16  C   UNL     1      -6.115  14.083  69.739  1.00  0.00    -0.129 A  
HETATM   17  C   UNL     1      -6.508  15.382  70.067  1.00  0.00    -0.122 A  
HETATM   18  C   UNL     1      -7.494  16.030  69.315  1.00  0.00    -0.228 A  
ENDBRANCH  11  13
ENDBRANCH   7  11
ENDBRANCH   2   3
TORSDOF 3
ENDMDL
MODEL      131
REMARK 921   NORMALIZED FREE ENERGY PREDICTED BY IDOCK:   -4.17 KCAL/MOL
REMARK 922        TOTAL FREE ENERGY PREDICTED BY IDOCK:   -5.29 KCAL/MOL
REMARK 923 INTER-LIGAND FREE ENERGY PREDICTED BY IDOCK:   -4.82 KCAL/MOL
REMARK 924 INTRA-LIGAND FREE ENERGY PREDICTED BY IDOCK:   -0.47 KCAL/MOL
REMARK 927      BINDING AFFINITY PREDICTED BY RF-SCORE:    0.00 PKD
ROOT
HETATM    1  C   UNL     1      -6.106   9.352  64.726  1.00  0.00    -0.072 C  
HETATM    2  O   UNL     1      -6.370  10.016  65.962  1.00  0.00    -0.076 OA 
ENDROOT
BRANCH   2   3
HETATM    3  C   UNL     1      -7.609  10.589  66.053  1.00  0.00    -0.140 A  
HETATM    4  C   UNL     1      -8.640  10.390  65.136  1.00  0.00    -0.189 A  
HETATM    5  C   UNL     1      -9.849  11.075  65.285  1.00  0.00    -0.259 A  
HETATM    6  O   UNL     1     -10.808  10.899  64.326  1.00  0.00    -0.375 OA 
HETATM    7  C   UNL     1     -10.054  11.949  66.361  1.00  0.00    -0.241 A  
HETATM    8  H   UNL     1     -11.630  11.365  64.427  1.00  0.00     0.000 HD 
HETATM    9  C   UNL     1      -9.046  12.069  67.329  1.00  0.00    -0.178 A  
HETATM   10  C   UNL     1      -7.828  11.400  67.167  1.00  0.00    -0.156 A  
BRANCH   7  11
HETATM   11  C   UNL     1     -11.347  12.676  66.521  1.00  0.00    -0.326 C  
HETATM   12  O   UNL     1     -12.289  12.410  65.779  1.00  0.00    -0.644 OA 
BRANCH  11  13
HETATM   13  C   UNL     1     -11.573  13.676  67.608  1.00  0.00    -0.381 A  
HETATM   14  C   UNL     1     -12.022  13.199  68.849  1.00  0.00    -0.317 A  
HETATM   15  C   UNL     1     -12.220  14.072  69.919  1.00  0.00    -0.399 A  
HETATM   16  C   UNL     1     -11.972  15.432  69.758  1.00  0.00    -0.381 A  
HETATM   17  C   UNL     1     -11.558  15.924  68.519  1.00  0.00    -0.351 A  
HETATM   18  C   UNL     1     -11.373  15.053  67.441  1.00  0.00    -0.338 A  
ENDBRANCH  11  13
ENDBRANCH   7  11
ENDBRANCH   2   3
TORSDOF 3
ENDMDL
MODEL      132
REMARK 921   NORMALIZED FREE ENERGY PREDICTED BY IDOCK:   -4.17 KCAL/MOL
REMARK 922        TOTAL FREE ENERGY PREDICTED BY IDOCK:   -5.29 KCAL/MOL
REMARK 923 INTER-LIGAND FREE ENERGY PREDICTED BY IDOCK:   -4.91 KCAL/MOL
REMARK 924 INTRA-LIGAND FREE ENERGY PREDICTED BY IDOCK:   -0.37 KCAL/MOL
REMARK 927      BINDING AFFINITY PREDICTED BY RF-SCORE:    0.00 PKD
ROOT
HETATM    1  C   UNL     1      -5.643   7.838  66.864  1.00  0.00    -0.032 C  
HETATM    2  O   UNL     1      -6.948   7.409  66.472  1.00  0.00    -0.066 OA 
ENDROOT
BRANCH   2   3
HETATM    3  C   UNL     1      -7.915   8.374  66.541  1.00  0.00    -0.096 A  
HETATM    4  C   UNL     1      -7.667   9.745  66.489  1.00  0.00    -0.105 A  
HETATM    5  C   UNL     1      -8.721  10.651  66.634  1.00  0.00    -0.140 A  
HETATM    6  O   UNL     1      -8.422  11.986  66.641  1.00  0.00    -0.257 OA 
HETATM    7  C   UNL     1     -10.037  10.203  66.811  1.00  0.00    -0.277 A  
HETATM    8  H   UNL     1      -9.139  12.602  66.740  1.00  0.00     0.000 HD 
HETATM    9  C   UNL     1     -10.287   8.824  66.766  1.00  0.00    -0.328 A  
HETATM   10  C   UNL     1      -9.229   7.917  66.644  1.00  0.00    -0.221 A  
BRANCH   7  11
HETATM   11  C   UNL     1     -11.161  11.172  66.961  1.00  0.00    -0.273 C  
HETATM   12  O   UNL     1     -11.773  11.234  68.024  1.00  0.00    -0.501 OA 
BRANCH  11  13
HETATM   13  C   UNL     1     -11.533  12.138  65.882  1.00  0.00    -0.418 A  
HETATM   14  C   UNL     1     -11.344  11.733  64.552  1.00  0.00    -0.349 A  
HETATM   15  C   UNL     1     -11.703  12.570  63.495  1.00  0.00    -0.595 A  
HETATM   16  C   UNL     1     -12.254  13.820  63.757  1.00  0.00    -0.364 A  
HETATM   17  C   UNL     1     -12.417  14.249  65.076  1.00  0.00    -0.409 A  
HETATM   18  C   UNL     1     -12.043  13.418  66.137  1.00  0.00    -0.481 A  
ENDBRANCH  11  13
ENDBRANCH   7  11
ENDBRANCH   2   3
TORSDOF 3
ENDMDL
MODEL      133
REMARK 921   NORMALIZED FREE ENERGY PREDICTED BY IDOCK:   -4.15 KCAL/MOL
REMARK 922        TOTAL FREE ENERGY PREDICTED BY IDOCK:   -5.26 KCAL/MOL
REMARK 923 INTER-LIGAND FREE ENERGY PREDICTED BY IDOCK:   -4.53 KCAL/MOL
REMARK 924 INTRA-LIGAND FREE ENERGY PREDICTED BY IDOCK:   -0.73 KCAL/MOL
REMARK 927      BINDING AFFINITY PREDICTED BY RF-SCORE:    0.00 PKD
ROOT
HETATM    1  C   UNL     1      -8.054   7.157  74.241  1.00  0.00    -0.141 C  
HETATM    2  O   UNL     1      -9.334   7.727  73.965  1.00  0.00    -0.239 OA 
ENDROOT
BRANCH   2   3
HETATM    3  C   UNL     1      -9.604   7.916  72.637  1.00  0.00    -0.227 A  
HETATM    4  C   UNL     1     -10.743   7.442  71.988  1.00  0.00    -0.254 A  
HETATM    5  C   UNL     1     -10.893   7.632  70.612  1.00  0.00    -0.237 A  
HETATM    6  O   UNL     1     -11.996   7.094  70.007  1.00  0.00    -0.565 OA 
HETATM    7  C   UNL     1      -9.922   8.316  69.869  1.00  0.00    -0.190 A  
HETATM    8  H   UNL     1     -12.098   7.224  69.071  1.00  0.00     0.000 HD 
HETATM    9  C   UNL     1      -8.827   8.871  70.547  1.00  0.00    -0.221 A  
HETATM   10  C   UNL     1      -8.666   8.660  71.921  1.00  0.00    -0.256 A  
BRANCH   7  11
HETATM   11  C   UNL     1     -10.086   8.522  68.401  1.00  0.00    -0.194 C  
HETATM   12  O   UNL     1      -9.993   7.563  67.638  1.00  0.00    -0.151 OA 
BRANCH  11  13
HETATM   13  C   UNL     1     -10.438   9.851  67.814  1.00  0.00    -0.292 A  
HETATM   14  C   UNL     1      -9.765  10.246  66.648  1.00  0.00    -0.233 A  
HETATM   15  C   UNL     1     -10.068  11.458  66.026  1.00  0.00    -0.275 A  
HETATM   16  C   UNL     1     -11.047  12.288  66.565  1.00  0.00    -0.343 A  
HETATM   17  C   UNL     1     -11.700  11.922  67.744  1.00  0.00    -0.362 A  
HETATM   18  C   UNL     1     -11.387  10.714  68.377  1.00  0.00    -0.348 A  
ENDBRANCH  11  13
ENDBRANCH   7  11
ENDBRANCH   2   3
TORSDOF 3
ENDMDL
MODEL      134
REMARK 921   NORMALIZED FREE ENERGY PREDICTED BY IDOCK:   -4.15 KCAL/MOL
REMARK 922        TOTAL FREE ENERGY PREDICTED BY IDOCK:   -5.26 KCAL/MOL
REMARK 923 INTER-LIGAND FREE ENERGY PREDICTED BY IDOCK:   -4.62 KCAL/MOL
REMARK 924 INTRA-LIGAND FREE ENERGY PREDICTED BY IDOCK:   -0.65 KCAL/MOL
REMARK 927      BINDING AFFINITY PREDICTED BY RF-SCORE:    0.00 PKD
ROOT
HETATM    1  C   UNL     1      -7.221   6.907  70.747  1.00  0.00    -0.069 C  
HETATM    2  O   UNL     1      -7.764   7.908  71.607  1.00  0.00    -0.082 OA 
ENDROOT
BRANCH   2   3
HETATM    3  C   UNL     1      -8.630   8.777  71.002  1.00  0.00    -0.192 A  
HETATM    4  C   UNL     1      -9.954   8.971  71.392  1.00  0.00    -0.388 A  
HETATM    5  C   UNL     1     -10.777   9.836  70.666  1.00  0.00    -0.326 A  
HETATM    6  O   UNL     1     -12.087   9.945  71.045  1.00  0.00    -0.308 OA 
HETATM    7  C   UNL     1     -10.285  10.536  69.556  1.00  0.00    -0.230 A  
HETATM    8  H   UNL     1     -12.646  10.533  70.551  1.00  0.00     0.000 HD 
HETATM    9  C   UNL     1      -8.927  10.407  69.231  1.00  0.00    -0.176 A  
HETATM   10  C   UNL     1      -8.110   9.523  69.945  1.00  0.00    -0.163 A  
BRANCH   7  11
HETATM   11  C   UNL     1     -11.163  11.462  68.785  1.00  0.00    -0.247 C  
HETATM   12  O   UNL     1     -12.014  11.003  68.026  1.00  0.00    -0.623 OA 
BRANCH  11  13
HETATM   13  C   UNL     1     -11.103  12.946  68.952  1.00  0.00    -0.301 A  
HETATM   14  C   UNL     1     -10.152  13.648  68.196  1.00  0.00    -0.245 A  
HETATM   15  C   UNL     1     -10.064  15.039  68.275  1.00  0.00    -0.222 A  
HETATM   16  C   UNL     1     -10.925  15.741  69.113  1.00  0.00    -0.265 A  
HETATM   17  C   UNL     1     -11.853  15.052  69.897  1.00  0.00    -0.362 A  
HETATM   18  C   UNL     1     -11.932  13.656  69.830  1.00  0.00    -0.415 A  
ENDBRANCH  11  13
ENDBRANCH   7  11
ENDBRANCH   2   3
TORSDOF 3
ENDMDL
MODEL      135
REMARK 921   NORMALIZED FREE ENERGY PREDICTED BY IDOCK:   -4.15 KCAL/MOL
REMARK 922        TOTAL FREE ENERGY PREDICTED BY IDOCK:   -5.26 KCAL/MOL
REMARK 923 INTER-LIGAND FREE ENERGY PREDICTED BY IDOCK:   -4.71 KCAL/MOL
REMARK 924 INTRA-LIGAND FREE ENERGY PREDICTED BY IDOCK:   -0.55 KCAL/MOL
REMARK 927      BINDING AFFINITY PREDICTED BY RF-SCORE:    0.00 PKD
ROOT
HETATM    1  C   UNL     1      -6.732  18.054  68.569  1.00  0.00    -0.225 C  
HETATM    2  O   UNL     1      -6.765  16.808  69.265  1.00  0.00    -0.212 OA 
ENDROOT
BRANCH   2   3
HETATM    3  C   UNL     1      -7.758  15.954  68.869  1.00  0.00    -0.194 A  
HETATM    4  C   UNL     1      -7.763  14.582  69.112  1.00  0.00    -0.082 A  
HETATM    5  C   UNL     1      -8.795  13.786  68.606  1.00  0.00    -0.047 A  
HETATM    6  O   UNL     1      -8.725  12.436  68.814  1.00  0.00    -0.369 OA 
HETATM    7  C   UNL     1      -9.846  14.352  67.873  1.00  0.00    -0.224 A  
HETATM    8  H   UNL     1      -9.426  11.896  68.470  1.00  0.00     0.000 HD 
HETATM    9  C   UNL     1      -9.882  15.744  67.716  1.00  0.00    -0.224 A  
HETATM   10  C   UNL     1      -8.836  16.537  68.203  1.00  0.00    -0.203 A  
BRANCH   7  11
HETATM   11  C   UNL     1     -10.949  13.501  67.338  1.00  0.00    -0.272 C  
HETATM   12  O   UNL     1     -11.964  13.328  68.010  1.00  0.00    -0.350 OA 
BRANCH  11  13
HETATM   13  C   UNL     1     -10.906  12.902  65.970  1.00  0.00    -0.300 A  
HETATM   14  C   UNL     1     -11.905  13.281  65.061  1.00  0.00    -0.384 A  
HETATM   15  C   UNL     1     -11.906  12.788  63.756  1.00  0.00    -0.572 A  
HETATM   16  C   UNL     1     -10.907  11.909  63.346  1.00  0.00    -0.469 A  
HETATM   17  C   UNL     1      -9.926  11.498  64.251  1.00  0.00    -0.312 A  
HETATM   18  C   UNL     1      -9.932  11.979  65.564  1.00  0.00    -0.267 A  
ENDBRANCH  11  13
ENDBRANCH   7  11
ENDBRANCH   2   3
TORSDOF 3
ENDMDL
MODEL      136
REMARK 921   NORMALIZED FREE ENERGY PREDICTED BY IDOCK:   -4.10 KCAL/MOL
REMARK 922        TOTAL FREE ENERGY PREDICTED BY IDOCK:   -5.20 KCAL/MOL
REMARK 923 INTER-LIGAND FREE ENERGY PREDICTED BY IDOCK:   -4.47 KCAL/MOL
REMARK 924 INTRA-LIGAND FREE ENERGY PREDICTED BY IDOCK:   -0.73 KCAL/MOL
REMARK 927      BINDING AFFINITY PREDICTED BY RF-SCORE:    0.00 PKD
ROOT
HETATM    1  C   UNL     1      -6.318   7.209  68.038  1.00  0.00    -0.044 C  
HETATM    2  O   UNL     1      -7.597   6.946  67.460  1.00  0.00    -0.104 OA 
ENDROOT
BRANCH   2   3
HETATM    3  C   UNL     1      -8.079   7.940  66.654  1.00  0.00    -0.107 A  
HETATM    4  C   UNL     1      -7.302   8.685  65.769  1.00  0.00    -0.081 A  
HETATM    5  C   UNL     1      -7.881   9.726  65.037  1.00  0.00    -0.128 A  
HETATM    6  O   UNL     1      -7.067  10.472  64.229  1.00  0.00    -0.331 OA 
HETATM    7  C   UNL     1      -9.245  10.022  65.160  1.00  0.00    -0.273 A  
HETATM    8  H   UNL     1      -7.460  11.179  63.732  1.00  0.00     0.000 HD 
HETATM    9  C   UNL     1     -10.036   9.205  65.981  1.00  0.00    -0.293 A  
HETATM   10  C   UNL     1      -9.451   8.178  66.731  1.00  0.00    -0.256 A  
BRANCH   7  11
HETATM   11  C   UNL     1      -9.861  11.129  64.374  1.00  0.00    -0.284 C  
HETATM   12  O   UNL     1      -9.678  11.189  63.161  1.00  0.00    -0.311 OA 
BRANCH  11  13
HETATM   13  C   UNL     1     -10.766  12.144  64.996  1.00  0.00    -0.338 A  
HETATM   14  C   UNL     1     -10.294  12.832  66.124  1.00  0.00    -0.283 A  
HETATM   15  C   UNL     1     -11.071  13.818  66.734  1.00  0.00    -0.316 A  
HETATM   16  C   UNL     1     -12.329  14.124  66.222  1.00  0.00    -0.451 A  
HETATM   17  C   UNL     1     -12.824  13.423  65.121  1.00  0.00    -0.380 A  
HETATM   18  C   UNL     1     -12.053  12.424  64.517  1.00  0.00    -0.492 A  
ENDBRANCH  11  13
ENDBRANCH   7  11
ENDBRANCH   2   3
TORSDOF 3
ENDMDL
MODEL      137
REMARK 921   NORMALIZED FREE ENERGY PREDICTED BY IDOCK:   -4.09 KCAL/MOL
REMARK 922        TOTAL FREE ENERGY PREDICTED BY IDOCK:   -5.19 KCAL/MOL
REMARK 923 INTER-LIGAND FREE ENERGY PREDICTED BY IDOCK:   -4.50 KCAL/MOL
REMARK 924 INTRA-LIGAND FREE ENERGY PREDICTED BY IDOCK:   -0.69 KCAL/MOL
REMARK 927      BINDING AFFINITY PREDICTED BY RF-SCORE:    0.00 PKD
ROOT
HETATM    1  C   UNL     1      -5.992  18.918  69.898  1.00  0.00    -0.247 C  
HETATM    2  O   UNL     1      -6.249  18.676  68.514  1.00  0.00    -0.205 OA 
ENDROOT
BRANCH   2   3
HETATM    3  C   UNL     1      -7.125  17.656  68.263  1.00  0.00    -0.223 A  
HETATM    4  C   UNL     1      -7.837  17.502  67.074  1.00  0.00    -0.240 A  
HETATM    5  C   UNL     1      -8.759  16.460  66.941  1.00  0.00    -0.204 A  
HETATM    6  O   UNL     1      -9.481  16.386  65.782  1.00  0.00    -0.464 OA 
HETATM    7  C   UNL     1      -8.967  15.545  67.982  1.00  0.00    -0.174 A  
HETATM    8  H   UNL     1     -10.108  15.678  65.692  1.00  0.00     0.000 HD 
HETATM    9  C   UNL     1      -8.177  15.653  69.136  1.00  0.00    -0.248 A  
HETATM   10  C   UNL     1      -7.271  16.709  69.277  1.00  0.00    -0.200 A  
BRANCH   7  11
HETATM   11  C   UNL     1      -9.948  14.431  67.837  1.00  0.00    -0.228 C  
HETATM   12  O   UNL     1      -9.889  13.693  66.856  1.00  0.00    -0.247 OA 
BRANCH  11  13
HETATM   13  C   UNL     1     -10.968  14.122  68.884  1.00  0.00    -0.280 A  
HETATM   14  C   UNL     1     -11.621  15.204  69.496  1.00  0.00    -0.340 A  
HETATM   15  C   UNL     1     -12.610  14.988  70.456  1.00  0.00    -0.420 A  
HETATM   16  C   UNL     1     -12.955  13.689  70.816  1.00  0.00    -0.205 A  
HETATM   17  C   UNL     1     -12.290  12.605  70.240  1.00  0.00    -0.269 A  
HETATM   18  C   UNL     1     -11.287  12.819  69.288  1.00  0.00    -0.307 A  
ENDBRANCH  11  13
ENDBRANCH   7  11
ENDBRANCH   2   3
TORSDOF 3
ENDMDL
MODEL      138
REMARK 921   NORMALIZED FREE ENERGY PREDICTED BY IDOCK:   -4.08 KCAL/MOL
REMARK 922        TOTAL FREE ENERGY PREDICTED BY IDOCK:   -5.18 KCAL/MOL
REMARK 923 INTER-LIGAND FREE ENERGY PREDICTED BY IDOCK:   -4.41 KCAL/MOL
REMARK 924 INTRA-LIGAND FREE ENERGY PREDICTED BY IDOCK:   -0.76 KCAL/MOL
REMARK 927      BINDING AFFINITY PREDICTED BY RF-SCORE:    0.00 PKD
ROOT
HETATM    1  C   UNL     1     -12.729  12.249  71.479  1.00  0.00    -0.233 C  
HETATM    2  O   UNL     1     -13.279  10.932  71.482  1.00  0.00    -0.386 OA 
ENDROOT
BRANCH   2   3
HETATM    3  C   UNL     1     -12.355   9.923  71.464  1.00  0.00    -0.412 A  
HETATM    4  C   UNL     1     -12.410   8.789  72.273  1.00  0.00    -0.448 A  
HETATM    5  C   UNL     1     -11.378   7.847  72.225  1.00  0.00    -0.337 A  
HETATM    6  O   UNL     1     -11.442   6.783  73.083  1.00  0.00    -0.495 OA 
HETATM    7  C   UNL     1     -10.292   8.011  71.355  1.00  0.00    -0.243 A  
HETATM    8  H   UNL     1     -10.741   6.142  73.050  1.00  0.00     0.000 HD 
HETATM    9  C   UNL     1     -10.295   9.106  70.479  1.00  0.00    -0.288 A  
HETATM   10  C   UNL     1     -11.316  10.061  70.544  1.00  0.00    -0.409 A  
BRANCH   7  11
HETATM   11  C   UNL     1      -9.195   7.002  71.303  1.00  0.00    -0.152 C  
HETATM   12  O   UNL     1      -8.482   6.827  72.288  1.00  0.00    -0.107 OA 
BRANCH  11  13
HETATM   13  C   UNL     1      -8.969   6.129  70.111  1.00  0.00    -0.149 A  
HETATM   14  C   UNL     1      -9.977   5.211  69.775  1.00  0.00    -0.313 A  
HETATM   15  C   UNL     1      -9.849   4.390  68.655  1.00  0.00    -0.141 A  
HETATM   16  C   UNL     1      -8.710   4.476  67.859  1.00  0.00    -0.114 A  
HETATM   17  C   UNL     1      -7.685   5.360  68.201  1.00  0.00    -0.085 A  
HETATM   18  C   UNL     1      -7.805   6.174  69.333  1.00  0.00    -0.100 A  
ENDBRANCH  11  13
ENDBRANCH   7  11
ENDBRANCH   2   3
TORSDOF 3
ENDMDL
MODEL      139
REMARK 921   NORMALIZED FREE ENERGY PREDICTED BY IDOCK:   -4.08 KCAL/MOL
REMARK 922        TOTAL FREE ENERGY PREDICTED BY IDOCK:   -5.18 KCAL/MOL
REMARK 923 INTER-LIGAND FREE ENERGY PREDICTED BY IDOCK:   -4.60 KCAL/MOL
REMARK 924 INTRA-LIGAND FREE ENERGY PREDICTED BY IDOCK:   -0.58 KCAL/MOL
REMARK 927      BINDING AFFINITY PREDICTED BY RF-SCORE:    0.00 PKD
ROOT
HETATM    1  C   UNL     1      -7.237   7.919  64.605  1.00  0.00    -0.079 C  
HETATM    2  O   UNL     1      -8.125   8.814  63.934  1.00  0.00    -0.150 OA 
ENDROOT
BRANCH   2   3
HETATM    3  C   UNL     1      -8.834   9.645  64.758  1.00  0.00    -0.207 A  
HETATM    4  C   UNL     1      -8.718   9.666  66.147  1.00  0.00    -0.152 A  
HETATM    5  C   UNL     1      -9.538  10.508  66.903  1.00  0.00    -0.175 A  
HETATM    6  O   UNL     1      -9.435  10.449  68.266  1.00  0.00    -0.143 OA 
HETATM    7  C   UNL     1     -10.465  11.357  66.284  1.00  0.00    -0.301 A  
HETATM    8  H   UNL     1      -9.992  11.022  68.780  1.00  0.00     0.000 HD 
HETATM    9  C   UNL     1     -10.506  11.397  64.883  1.00  0.00    -0.363 A  
HETATM   10  C   UNL     1      -9.702  10.537  64.128  1.00  0.00    -0.388 A  
BRANCH   7  11
HETATM   11  C   UNL     1     -11.334  12.259  67.093  1.00  0.00    -0.335 C  
HETATM   12  O   UNL     1     -12.272  11.788  67.733  1.00  0.00    -0.536 OA 
BRANCH  11  13
HETATM   13  C   UNL     1     -11.067  13.724  67.221  1.00  0.00    -0.319 A  
HETATM   14  C   UNL     1     -11.887  14.462  68.089  1.00  0.00    -0.362 A  
HETATM   15  C   UNL     1     -11.672  15.827  68.284  1.00  0.00    -0.229 A  
HETATM   16  C   UNL     1     -10.635  16.468  67.613  1.00  0.00    -0.321 A  
HETATM   17  C   UNL     1      -9.833  15.752  66.722  1.00  0.00    -0.256 A  
HETATM   18  C   UNL     1     -10.057  14.387  66.513  1.00  0.00    -0.281 A  
ENDBRANCH  11  13
ENDBRANCH   7  11
ENDBRANCH   2   3
TORSDOF 3
ENDMDL
MODEL      140
REMARK 921   NORMALIZED FREE ENERGY PREDICTED BY IDOCK:   -4.04 KCAL/MOL
REMARK 922        TOTAL FREE ENERGY PREDICTED BY IDOCK:   -5.13 KCAL/MOL
REMARK 923 INTER-LIGAND FREE ENERGY PREDICTED BY IDOCK:   -4.74 KCAL/MOL
REMARK 924 INTRA-LIGAND FREE ENERGY PREDICTED BY IDOCK:   -0.39 KCAL/MOL
REMARK 927      BINDING AFFINITY PREDICTED BY RF-SCORE:    0.00 PKD
ROOT
HETATM    1  C   UNL     1      -5.172  18.223  71.076  1.00  0.00    -0.271 C  
HETATM    2  O   UNL     1      -5.131  16.946  70.438  1.00  0.00    -0.185 OA 
ENDROOT
BRANCH   2   3
HETATM    3  C   UNL     1      -6.087  16.752  69.479  1.00  0.00    -0.218 A  
HETATM    4  C   UNL     1      -6.191  15.609  68.689  1.00  0.00    -0.100 A  
HETATM    5  C   UNL     1      -7.165  15.537  67.689  1.00  0.00    -0.179 A  
HETATM    6  O   UNL     1      -7.189  14.423  66.895  1.00  0.00    -0.325 OA 
HETATM    7  C   UNL     1      -8.062  16.593  67.481  1.00  0.00    -0.184 A  
HETATM    8  H   UNL     1      -7.851  14.374  66.216  1.00  0.00     0.000 HD 
HETATM    9  C   UNL     1      -8.010  17.697  68.343  1.00  0.00    -0.270 A  
HETATM   10  C   UNL     1      -7.020  17.778  69.329  1.00  0.00    -0.152 A  
BRANCH   7  11
HETATM   11  C   UNL     1      -9.105  16.511  66.417  1.00  0.00    -0.297 C  
HETATM   12  O   UNL     1      -9.100  17.327  65.498  1.00  0.00    -0.306 OA 
BRANCH  11  13
HETATM   13  C   UNL     1     -10.126  15.421  66.380  1.00  0.00    -0.292 A  
HETATM   14  C   UNL     1     -10.413  14.840  65.135  1.00  0.00    -0.443 A  
HETATM   15  C   UNL     1     -11.329  13.793  65.031  1.00  0.00    -0.334 A  
HETATM   16  C   UNL     1     -11.969  13.317  66.172  1.00  0.00    -0.470 A  
HETATM   17  C   UNL     1     -11.718  13.908  67.411  1.00  0.00    -0.422 A  
HETATM   18  C   UNL     1     -10.812  14.969  67.515  1.00  0.00    -0.297 A  
ENDBRANCH  11  13
ENDBRANCH   7  11
ENDBRANCH   2   3
TORSDOF 3
ENDMDL
MODEL      141
REMARK 921   NORMALIZED FREE ENERGY PREDICTED BY IDOCK:   -4.04 KCAL/MOL
REMARK 922        TOTAL FREE ENERGY PREDICTED BY IDOCK:   -5.13 KCAL/MOL
REMARK 923 INTER-LIGAND FREE ENERGY PREDICTED BY IDOCK:   -4.40 KCAL/MOL
REMARK 924 INTRA-LIGAND FREE ENERGY PREDICTED BY IDOCK:   -0.73 KCAL/MOL
REMARK 927      BINDING AFFINITY PREDICTED BY RF-SCORE:    0.00 PKD
ROOT
HETATM    1  C   UNL     1      -8.954   9.784  63.456  1.00  0.00    -0.244 C  
HETATM    2  O   UNL     1      -9.527  10.817  64.258  1.00  0.00    -0.223 OA 
ENDROOT
BRANCH   2   3
HETATM    3  C   UNL     1      -9.842  10.443  65.536  1.00  0.00    -0.269 A  
HETATM    4  C   UNL     1     -10.958  10.896  66.239  1.00  0.00    -0.130 A  
HETATM    5  C   UNL     1     -11.154  10.504  67.566  1.00  0.00    -0.290 A  
HETATM    6  O   UNL     1     -12.226  11.024  68.236  1.00  0.00    -0.769 OA 
HETATM    7  C   UNL     1     -10.253   9.639  68.202  1.00  0.00    -0.225 A  
HETATM    8  H   UNL     1     -12.360  10.758  69.139  1.00  0.00     0.000 HD 
HETATM    9  C   UNL     1      -9.188   9.114  67.457  1.00  0.00    -0.144 A  
HETATM   10  C   UNL     1      -8.979   9.525  66.135  1.00  0.00    -0.191 A  
BRANCH   7  11
HETATM   11  C   UNL     1     -10.467   9.218  69.617  1.00  0.00    -0.224 C  
HETATM   12  O   UNL     1     -10.946  10.013  70.422  1.00  0.00    -0.279 OA 
BRANCH  11  13
HETATM   13  C   UNL     1     -10.190   7.827  70.088  1.00  0.00    -0.205 A  
HETATM   14  C   UNL     1     -11.100   6.823  69.726  1.00  0.00    -0.368 A  
HETATM   15  C   UNL     1     -10.885   5.497  70.101  1.00  0.00    -0.299 A  
HETATM   16  C   UNL     1      -9.757   5.161  70.844  1.00  0.00    -0.252 A  
HETATM   17  C   UNL     1      -8.861   6.155  71.240  1.00  0.00    -0.136 A  
HETATM   18  C   UNL     1      -9.083   7.488  70.878  1.00  0.00    -0.153 A  
ENDBRANCH  11  13
ENDBRANCH   7  11
ENDBRANCH   2   3
TORSDOF 3
ENDMDL
MODEL      142
REMARK 921   NORMALIZED FREE ENERGY PREDICTED BY IDOCK:   -4.03 KCAL/MOL
REMARK 922        TOTAL FREE ENERGY PREDICTED BY IDOCK:   -5.12 KCAL/MOL
REMARK 923 INTER-LIGAND FREE ENERGY PREDICTED BY IDOCK:   -4.49 KCAL/MOL
REMARK 924 INTRA-LIGAND FREE ENERGY PREDICTED BY IDOCK:   -0.63 KCAL/MOL
REMARK 927      BINDING AFFINITY PREDICTED BY RF-SCORE:    0.00 PKD
ROOT
HETATM    1  C   UNL     1      -8.962   3.226  68.015  1.00  0.00    -0.147 C  
HETATM    2  O   UNL     1      -9.717   4.246  67.361  1.00  0.00    -0.184 OA 
ENDROOT
BRANCH   2   3
HETATM    3  C   UNL     1      -9.683   5.468  67.974  1.00  0.00    -0.131 A  
HETATM    4  C   UNL     1      -9.033   5.729  69.179  1.00  0.00    -0.120 A  
HETATM    5  C   UNL     1      -9.115   7.000  69.756  1.00  0.00    -0.144 A  
HETATM    6  O   UNL     1      -8.516   7.192  70.970  1.00  0.00    -0.126 OA 
HETATM    7  C   UNL     1      -9.825   8.032  69.128  1.00  0.00    -0.178 A  
HETATM    8  H   UNL     1      -8.571   8.056  71.362  1.00  0.00     0.000 HD 
HETATM    9  C   UNL     1     -10.394   7.785  67.871  1.00  0.00    -0.276 A  
HETATM   10  C   UNL     1     -10.332   6.506  67.305  1.00  0.00    -0.283 A  
BRANCH   7  11
HETATM   11  C   UNL     1      -9.906   9.388  69.743  1.00  0.00    -0.201 C  
HETATM   12  O   UNL     1      -8.979  10.180  69.594  1.00  0.00    -0.202 OA 
BRANCH  11  13
HETATM   13  C   UNL     1     -11.117   9.860  70.482  1.00  0.00    -0.398 A  
HETATM   14  C   UNL     1     -11.825   8.916  71.241  1.00  0.00    -0.371 A  
HETATM   15  C   UNL     1     -12.943   9.293  71.985  1.00  0.00    -0.504 A  
HETATM   16  C   UNL     1     -13.366  10.619  71.975  1.00  0.00    -0.409 A  
HETATM   17  C   UNL     1     -12.691  11.561  71.197  1.00  0.00    -0.458 A  
HETATM   18  C   UNL     1     -11.578  11.182  70.439  1.00  0.00    -0.355 A  
ENDBRANCH  11  13
ENDBRANCH   7  11
ENDBRANCH   2   3
TORSDOF 3
ENDMDL
MODEL      143
REMARK 921   NORMALIZED FREE ENERGY PREDICTED BY IDOCK:   -4.01 KCAL/MOL
REMARK 922        TOTAL FREE ENERGY PREDICTED BY IDOCK:   -5.09 KCAL/MOL
REMARK 923 INTER-LIGAND FREE ENERGY PREDICTED BY IDOCK:   -4.61 KCAL/MOL
REMARK 924 INTRA-LIGAND FREE ENERGY PREDICTED BY IDOCK:   -0.49 KCAL/MOL
REMARK 927      BINDING AFFINITY PREDICTED BY RF-SCORE:    0.00 PKD
ROOT
HETATM    1  C   UNL     1     -10.328   8.159  66.371  1.00  0.00     0.081 C  
HETATM    2  O   UNL     1      -9.676   9.073  65.489  1.00  0.00    -0.203 OA 
ENDROOT
BRANCH   2   3
HETATM    3  C   UNL     1      -9.952  10.392  65.722  1.00  0.00    -0.270 A  
HETATM    4  C   UNL     1      -9.991  11.376  64.735  1.00  0.00    -0.313 A  
HETATM    5  C   UNL     1     -10.218  12.710  65.088  1.00  0.00    -0.280 A  
HETATM    6  O   UNL     1     -10.184  13.650  64.095  1.00  0.00    -0.718 OA 
HETATM    7  C   UNL     1     -10.431  13.076  66.423  1.00  0.00    -0.285 A  
HETATM    8  H   UNL     1     -10.338  14.556  64.334  1.00  0.00     0.000 HD 
HETATM    9  C   UNL     1     -10.483  12.066  67.395  1.00  0.00    -0.239 A  
HETATM   10  C   UNL     1     -10.234  10.734  67.045  1.00  0.00    -0.261 A  
BRANCH   7  11
HETATM   11  C   UNL     1     -10.677  14.499  66.796  1.00  0.00    -0.291 C  
HETATM   12  O   UNL     1     -11.830  14.897  66.948  1.00  0.00    -0.315 OA 
BRANCH  11  13
HETATM   13  C   UNL     1      -9.564  15.458  67.069  1.00  0.00    -0.227 A  
HETATM   14  C   UNL     1      -9.412  15.921  68.385  1.00  0.00    -0.201 A  
HETATM   15  C   UNL     1      -8.374  16.791  68.720  1.00  0.00    -0.248 A  
HETATM   16  C   UNL     1      -7.476  17.207  67.740  1.00  0.00    -0.183 A  
HETATM   17  C   UNL     1      -7.636  16.781  66.421  1.00  0.00    -0.325 A  
HETATM   18  C   UNL     1      -8.686  15.921  66.080  1.00  0.00    -0.328 A  
ENDBRANCH  11  13
ENDBRANCH   7  11
ENDBRANCH   2   3
TORSDOF 3
ENDMDL
MODEL      144
REMARK 921   NORMALIZED FREE ENERGY PREDICTED BY IDOCK:   -3.97 KCAL/MOL
REMARK 922        TOTAL FREE ENERGY PREDICTED BY IDOCK:   -5.05 KCAL/MOL
REMARK 923 INTER-LIGAND FREE ENERGY PREDICTED BY IDOCK:   -4.38 KCAL/MOL
REMARK 924 INTRA-LIGAND FREE ENERGY PREDICTED BY IDOCK:   -0.67 KCAL/MOL
REMARK 927      BINDING AFFINITY PREDICTED BY RF-SCORE:    0.00 PKD
ROOT
HETATM    1  C   UNL     1     -10.755  15.265  65.113  1.00  0.00    -0.436 C  
HETATM    2  O   UNL     1     -11.311  14.954  66.391  1.00  0.00    -0.342 OA 
ENDROOT
BRANCH   2   3
HETATM    3  C   UNL     1     -10.895  13.766  66.925  1.00  0.00    -0.285 A  
HETATM    4  C   UNL     1     -11.748  12.792  67.443  1.00  0.00    -0.425 A  
HETATM    5  C   UNL     1     -11.217  11.638  68.027  1.00  0.00    -0.263 A  
HETATM    6  O   UNL     1     -12.089  10.740  68.580  1.00  0.00    -0.788 OA 
HETATM    7  C   UNL     1      -9.833  11.430  68.082  1.00  0.00    -0.195 A  
HETATM    8  H   UNL     1     -11.728   9.956  68.977  1.00  0.00     0.000 HD 
HETATM    9  C   UNL     1      -8.989  12.370  67.474  1.00  0.00    -0.183 A  
HETATM   10  C   UNL     1      -9.520  13.536  66.909  1.00  0.00    -0.258 A  
BRANCH   7  11
HETATM   11  C   UNL     1      -9.269  10.196  68.702  1.00  0.00    -0.157 C  
HETATM   12  O   UNL     1      -9.186  10.113  69.925  1.00  0.00    -0.192 OA 
BRANCH  11  13
HETATM   13  C   UNL     1      -8.862   9.008  67.891  1.00  0.00    -0.129 A  
HETATM   14  C   UNL     1      -8.032   8.056  68.502  1.00  0.00    -0.120 A  
HETATM   15  C   UNL     1      -7.643   6.905  67.816  1.00  0.00    -0.107 A  
HETATM   16  C   UNL     1      -8.079   6.695  66.512  1.00  0.00    -0.111 A  
HETATM   17  C   UNL     1      -8.878   7.650  65.880  1.00  0.00    -0.163 A  
HETATM   18  C   UNL     1      -9.257   8.812  66.561  1.00  0.00    -0.228 A  
ENDBRANCH  11  13
ENDBRANCH   7  11
ENDBRANCH   2   3
TORSDOF 3
ENDMDL
MODEL      145
REMARK 921   NORMALIZED FREE ENERGY PREDICTED BY IDOCK:   -3.97 KCAL/MOL
REMARK 922        TOTAL FREE ENERGY PREDICTED BY IDOCK:   -5.05 KCAL/MOL
REMARK 923 INTER-LIGAND FREE ENERGY PREDICTED BY IDOCK:   -4.42 KCAL/MOL
REMARK 924 INTRA-LIGAND FREE ENERGY PREDICTED BY IDOCK:   -0.63 KCAL/MOL
REMARK 927      BINDING AFFINITY PREDICTED BY RF-SCORE:    0.00 PKD
ROOT
HETATM    1  C   UNL     1      -6.574   6.125  71.109  1.00  0.00    -0.050 C  
HETATM    2  O   UNL     1      -7.822   6.261  71.788  1.00  0.00    -0.100 OA 
ENDROOT
BRANCH   2   3
HETATM    3  C   UNL     1      -8.708   7.119  71.195  1.00  0.00    -0.133 A  
HETATM    4  C   UNL     1      -9.481   6.807  70.078  1.00  0.00    -0.158 A  
HETATM    5  C   UNL     1     -10.309   7.778  69.508  1.00  0.00    -0.219 A  
HETATM    6  O   UNL     1     -10.999   7.447  68.374  1.00  0.00    -0.423 OA 
HETATM    7  C   UNL     1     -10.394   9.064  70.058  1.00  0.00    -0.226 A  
HETATM    8  H   UNL     1     -11.562   8.108  67.987  1.00  0.00     0.000 HD 
HETATM    9  C   UNL     1      -9.686   9.338  71.236  1.00  0.00    -0.299 A  
HETATM   10  C   UNL     1      -8.840   8.372  71.793  1.00  0.00    -0.257 A  
BRANCH   7  11
HETATM   11  C   UNL     1     -11.282  10.098  69.451  1.00  0.00    -0.215 C  
HETATM   12  O   UNL     1     -11.439  10.125  68.232  1.00  0.00    -0.186 OA 
BRANCH  11  13
HETATM   13  C   UNL     1     -12.059  11.070  70.278  1.00  0.00    -0.448 A  
HETATM   14  C   UNL     1     -12.964  10.549  71.216  1.00  0.00    -0.532 A  
HETATM   15  C   UNL     1     -13.697  11.398  72.047  1.00  0.00     0.065 A  
HETATM   16  C   UNL     1     -13.533  12.776  71.947  1.00  0.00    -0.452 A  
HETATM   17  C   UNL     1     -12.661  13.308  70.995  1.00  0.00    -0.408 A  
HETATM   18  C   UNL     1     -11.937  12.460  70.151  1.00  0.00    -0.376 A  
ENDBRANCH  11  13
ENDBRANCH   7  11
ENDBRANCH   2   3
TORSDOF 3
ENDMDL
MODEL      146
REMARK 921   NORMALIZED FREE ENERGY PREDICTED BY IDOCK:   -3.96 KCAL/MOL
REMARK 922        TOTAL FREE ENERGY PREDICTED BY IDOCK:   -5.04 KCAL/MOL
REMARK 923 INTER-LIGAND FREE ENERGY PREDICTED BY IDOCK:   -4.53 KCAL/MOL
REMARK 924 INTRA-LIGAND FREE ENERGY PREDICTED BY IDOCK:   -0.51 KCAL/MOL
REMARK 927      BINDING AFFINITY PREDICTED BY RF-SCORE:    0.00 PKD
ROOT
HETATM    1  C   UNL     1     -11.044   2.633  73.473  1.00  0.00    -0.215 C  
HETATM    2  O   UNL     1     -10.754   4.021  73.640  1.00  0.00    -0.186 OA 
ENDROOT
BRANCH   2   3
HETATM    3  C   UNL     1     -10.788   4.758  72.487  1.00  0.00    -0.140 A  
HETATM    4  C   UNL     1     -11.748   5.726  72.198  1.00  0.00    -0.226 A  
HETATM    5  C   UNL     1     -11.733   6.378  70.962  1.00  0.00    -0.296 A  
HETATM    6  O   UNL     1     -12.732   7.273  70.696  1.00  0.00    -0.599 OA 
HETATM    7  C   UNL     1     -10.748   6.089  70.008  1.00  0.00    -0.380 A  
HETATM    8  H   UNL     1     -12.721   7.716  69.856  1.00  0.00     0.000 HD 
HETATM    9  C   UNL     1      -9.732   5.183  70.346  1.00  0.00    -0.270 A  
HETATM   10  C   UNL     1      -9.761   4.515  71.575  1.00  0.00    -0.243 A  
BRANCH   7  11
HETATM   11  C   UNL     1     -10.730   6.789  68.691  1.00  0.00    -0.234 C  
HETATM   12  O   UNL     1     -11.191   6.230  67.699  1.00  0.00    -0.327 OA 
BRANCH  11  13
HETATM   13  C   UNL     1     -10.236   8.191  68.537  1.00  0.00    -0.233 A  
HETATM   14  C   UNL     1     -10.465   8.831  67.309  1.00  0.00    -0.353 A  
HETATM   15  C   UNL     1     -10.063  10.151  67.108  1.00  0.00    -0.260 A  
HETATM   16  C   UNL     1      -9.426  10.846  68.132  1.00  0.00    -0.167 A  
HETATM   17  C   UNL     1      -9.162  10.210  69.347  1.00  0.00    -0.229 A  
HETATM   18  C   UNL     1      -9.550   8.881  69.546  1.00  0.00    -0.171 A  
ENDBRANCH  11  13
ENDBRANCH   7  11
ENDBRANCH   2   3
TORSDOF 3
ENDMDL
MODEL      147
REMARK 921   NORMALIZED FREE ENERGY PREDICTED BY IDOCK:   -3.90 KCAL/MOL
REMARK 922        TOTAL FREE ENERGY PREDICTED BY IDOCK:   -4.97 KCAL/MOL
REMARK 923 INTER-LIGAND FREE ENERGY PREDICTED BY IDOCK:   -4.26 KCAL/MOL
REMARK 924 INTRA-LIGAND FREE ENERGY PREDICTED BY IDOCK:   -0.71 KCAL/MOL
REMARK 927      BINDING AFFINITY PREDICTED BY RF-SCORE:    0.00 PKD
ROOT
HETATM    1  C   UNL     1     -11.533   6.001  72.337  1.00  0.00    -0.308 C  
HETATM    2  O   UNL     1     -11.935   7.279  71.843  1.00  0.00    -0.287 OA 
ENDROOT
BRANCH   2   3
HETATM    3  C   UNL     1     -11.133   7.794  70.862  1.00  0.00    -0.259 A  
HETATM    4  C   UNL     1     -10.216   8.827  71.054  1.00  0.00    -0.301 A  
HETATM    5  C   UNL     1      -9.490   9.327  69.969  1.00  0.00    -0.211 A  
HETATM    6  O   UNL     1      -8.650  10.383  70.192  1.00  0.00    -0.323 OA 
HETATM    7  C   UNL     1      -9.651   8.788  68.685  1.00  0.00    -0.159 A  
HETATM    8  H   UNL     1      -8.156  10.722  69.455  1.00  0.00     0.000 HD 
HETATM    9  C   UNL     1     -10.504   7.688  68.522  1.00  0.00    -0.206 A  
HETATM   10  C   UNL     1     -11.248   7.203  69.604  1.00  0.00    -0.161 A  
BRANCH   7  11
HETATM   11  C   UNL     1      -8.871   9.320  67.530  1.00  0.00    -0.118 C  
HETATM   12  O   UNL     1      -7.660   9.119  67.470  1.00  0.00    -0.088 OA 
BRANCH  11  13
HETATM   13  C   UNL     1      -9.519  10.034  66.389  1.00  0.00    -0.235 A  
HETATM   14  C   UNL     1      -9.080   9.723  65.093  1.00  0.00    -0.270 A  
HETATM   15  C   UNL     1      -9.665  10.325  63.978  1.00  0.00    -0.343 A  
HETATM   16  C   UNL     1     -10.695  11.245  64.148  1.00  0.00    -0.436 A  
HETATM   17  C   UNL     1     -11.119  11.588  65.434  1.00  0.00    -0.250 A  
HETATM   18  C   UNL     1     -10.523  10.998  66.553  1.00  0.00    -0.309 A  
ENDBRANCH  11  13
ENDBRANCH   7  11
ENDBRANCH   2   3
TORSDOF 3
ENDMDL
MODEL      148
REMARK 921   NORMALIZED FREE ENERGY PREDICTED BY IDOCK:   -3.89 KCAL/MOL
REMARK 922        TOTAL FREE ENERGY PREDICTED BY IDOCK:   -4.95 KCAL/MOL
REMARK 923 INTER-LIGAND FREE ENERGY PREDICTED BY IDOCK:   -4.25 KCAL/MOL
REMARK 924 INTRA-LIGAND FREE ENERGY PREDICTED BY IDOCK:   -0.70 KCAL/MOL
REMARK 927      BINDING AFFINITY PREDICTED BY RF-SCORE:    0.00 PKD
ROOT
HETATM    1  C   UNL     1      -6.659   8.008  64.555  1.00  0.00    -0.060 C  
HETATM    2  O   UNL     1      -6.796   8.104  65.972  1.00  0.00    -0.056 OA 
ENDROOT
BRANCH   2   3
HETATM    3  C   UNL     1      -7.689   9.049  66.401  1.00  0.00    -0.099 A  
HETATM    4  C   UNL     1      -8.945   8.763  66.933  1.00  0.00    -0.155 A  
HETATM    5  C   UNL     1      -9.810   9.805  67.280  1.00  0.00    -0.181 A  
HETATM    6  O   UNL     1     -11.056   9.478  67.738  1.00  0.00    -0.501 OA 
HETATM    7  C   UNL     1      -9.424  11.143  67.123  1.00  0.00    -0.187 A  
HETATM    8  H   UNL     1     -11.644  10.186  67.974  1.00  0.00     0.000 HD 
HETATM    9  C   UNL     1      -8.124  11.419  66.676  1.00  0.00    -0.155 A  
HETATM   10  C   UNL     1      -7.268  10.375  66.307  1.00  0.00    -0.127 A  
BRANCH   7  11
HETATM   11  C   UNL     1     -10.347  12.253  67.499  1.00  0.00    -0.203 C  
HETATM   12  O   UNL     1     -10.682  12.395  68.673  1.00  0.00    -0.227 OA 
BRANCH  11  13
HETATM   13  C   UNL     1     -10.830  13.262  66.507  1.00  0.00    -0.288 A  
HETATM   14  C   UNL     1     -11.983  12.949  65.770  1.00  0.00    -0.496 A  
HETATM   15  C   UNL     1     -12.510  13.858  64.853  1.00  0.00    -0.420 A  
HETATM   16  C   UNL     1     -11.891  15.090  64.663  1.00  0.00    -0.378 A  
HETATM   17  C   UNL     1     -10.725  15.400  65.365  1.00  0.00    -0.416 A  
HETATM   18  C   UNL     1     -10.185  14.483  66.274  1.00  0.00    -0.306 A  
ENDBRANCH  11  13
ENDBRANCH   7  11
ENDBRANCH   2   3
TORSDOF 3
ENDMDL
MODEL      149
REMARK 921   NORMALIZED FREE ENERGY PREDICTED BY IDOCK:   -3.88 KCAL/MOL
REMARK 922        TOTAL FREE ENERGY PREDICTED BY IDOCK:   -4.94 KCAL/MOL
REMARK 923 INTER-LIGAND FREE ENERGY PREDICTED BY IDOCK:   -4.20 KCAL/MOL
REMARK 924 INTRA-LIGAND FREE ENERGY PREDICTED BY IDOCK:   -0.74 KCAL/MOL
REMARK 927      BINDING AFFINITY PREDICTED BY RF-SCORE:    0.00 PKD
ROOT
HETATM    1  C   UNL     1      -8.521   1.747  66.022  1.00  0.00    -0.106 C  
HETATM    2  O   UNL     1      -7.803   2.981  66.021  1.00  0.00    -0.080 OA 
ENDROOT
BRANCH   2   3
HETATM    3  C   UNL     1      -8.484   4.042  66.551  1.00  0.00    -0.105 A  
HETATM    4  C   UNL     1      -9.717   4.499  66.089  1.00  0.00    -0.215 A  
HETATM    5  C   UNL     1     -10.300   5.635  66.658  1.00  0.00    -0.256 A  
HETATM    6  O   UNL     1     -11.478   6.085  66.129  1.00  0.00    -0.510 OA 
HETATM    7  C   UNL     1      -9.672   6.315  67.711  1.00  0.00    -0.122 A  
HETATM    8  H   UNL     1     -11.874   6.857  66.517  1.00  0.00     0.000 HD 
HETATM    9  C   UNL     1      -8.480   5.792  68.231  1.00  0.00    -0.113 A  
HETATM   10  C   UNL     1      -7.886   4.668  67.645  1.00  0.00    -0.089 A  
BRANCH   7  11
HETATM   11  C   UNL     1     -10.298   7.524  68.320  1.00  0.00    -0.195 C  
HETATM   12  O   UNL     1     -10.527   8.508  67.621  1.00  0.00    -0.244 OA 
BRANCH  11  13
HETATM   13  C   UNL     1     -10.734   7.564  69.749  1.00  0.00    -0.249 A  
HETATM   14  C   UNL     1     -10.232   8.599  70.553  1.00  0.00    -0.229 A  
HETATM   15  C   UNL     1     -10.623   8.719  71.887  1.00  0.00    -0.425 A  
HETATM   16  C   UNL     1     -11.520   7.804  72.431  1.00  0.00    -0.418 A  
HETATM   17  C   UNL     1     -12.001   6.750  71.652  1.00  0.00    -0.391 A  
HETATM   18  C   UNL     1     -11.597   6.619  70.319  1.00  0.00    -0.454 A  
ENDBRANCH  11  13
ENDBRANCH   7  11
ENDBRANCH   2   3
TORSDOF 3
ENDMDL
MODEL      150
REMARK 921   NORMALIZED FREE ENERGY PREDICTED BY IDOCK:   -3.88 KCAL/MOL
REMARK 922        TOTAL FREE ENERGY PREDICTED BY IDOCK:   -4.94 KCAL/MOL
REMARK 923 INTER-LIGAND FREE ENERGY PREDICTED BY IDOCK:   -4.41 KCAL/MOL
REMARK 924 INTRA-LIGAND FREE ENERGY PREDICTED BY IDOCK:   -0.53 KCAL/MOL
REMARK 927      BINDING AFFINITY PREDICTED BY RF-SCORE:    0.00 PKD
ROOT
HETATM    1  C   UNL     1     -11.956  12.042  70.168  1.00  0.00    -0.321 C  
HETATM    2  O   UNL     1     -12.495  10.720  70.177  1.00  0.00    -0.323 OA 
ENDROOT
BRANCH   2   3
HETATM    3  C   UNL     1     -11.807   9.824  70.948  1.00  0.00    -0.336 A  
HETATM    4  C   UNL     1     -10.432   9.609  70.869  1.00  0.00    -0.359 A  
HETATM    5  C   UNL     1      -9.834   8.621  71.657  1.00  0.00    -0.281 A  
HETATM    6  O   UNL     1      -8.493   8.400  71.500  1.00  0.00    -0.128 OA 
HETATM    7  C   UNL     1     -10.594   7.852  72.548  1.00  0.00    -0.378 A  
HETATM    8  H   UNL     1      -8.086   7.729  72.035  1.00  0.00     0.000 HD 
HETATM    9  C   UNL     1     -11.958   8.142  72.688  1.00  0.00    -0.353 A  
HETATM   10  C   UNL     1     -12.561   9.116  71.883  1.00  0.00    -0.463 A  
BRANCH   7  11
HETATM   11  C   UNL     1      -9.953   6.802  73.392  1.00  0.00    -0.222 C  
HETATM   12  O   UNL     1      -9.564   7.084  74.523  1.00  0.00    -0.226 OA 
BRANCH  11  13
HETATM   13  C   UNL     1      -9.826   5.383  72.942  1.00  0.00    -0.180 A  
HETATM   14  C   UNL     1      -8.623   4.998  72.332  1.00  0.00    -0.124 A  
HETATM   15  C   UNL     1      -8.422   3.680  71.920  1.00  0.00    -0.097 A  
HETATM   16  C   UNL     1      -9.423   2.734  72.113  1.00  0.00    -0.185 A  
HETATM   17  C   UNL     1     -10.638   3.111  72.688  1.00  0.00    -0.116 A  
HETATM   18  C   UNL     1     -10.847   4.435  73.088  1.00  0.00    -0.321 A  
ENDBRANCH  11  13
ENDBRANCH   7  11
ENDBRANCH   2   3
TORSDOF 3
ENDMDL
MODEL      151
REMARK 921   NORMALIZED FREE ENERGY PREDICTED BY IDOCK:   -3.87 KCAL/MOL
REMARK 922        TOTAL FREE ENERGY PREDICTED BY IDOCK:   -4.93 KCAL/MOL
REMARK 923 INTER-LIGAND FREE ENERGY PREDICTED BY IDOCK:   -4.32 KCAL/MOL
REMARK 924 INTRA-LIGAND FREE ENERGY PREDICTED BY IDOCK:   -0.61 KCAL/MOL
REMARK 927      BINDING AFFINITY PREDICTED BY RF-SCORE:    0.00 PKD
ROOT
HETATM    1  C   UNL     1      -7.084   6.629  70.744  1.00  0.00    -0.069 C  
HETATM    2  O   UNL     1      -8.066   7.132  71.651  1.00  0.00    -0.101 OA 
ENDROOT
BRANCH   2   3
HETATM    3  C   UNL     1      -8.910   8.070  71.123  1.00  0.00    -0.140 A  
HETATM    4  C   UNL     1     -10.035   8.574  71.774  1.00  0.00    -0.345 A  
HETATM    5  C   UNL     1     -10.871   9.484  71.120  1.00  0.00    -0.355 A  
HETATM    6  O   UNL     1     -11.998   9.902  71.771  1.00  0.00    -0.381 OA 
HETATM    7  C   UNL     1     -10.583   9.920  69.819  1.00  0.00    -0.296 A  
HETATM    8  H   UNL     1     -12.566  10.520  71.327  1.00  0.00     0.000 HD 
HETATM    9  C   UNL     1      -9.399   9.480  69.212  1.00  0.00    -0.171 A  
HETATM   10  C   UNL     1      -8.574   8.552  69.858  1.00  0.00    -0.131 A  
BRANCH   7  11
HETATM   11  C   UNL     1     -11.474  10.894  69.125  1.00  0.00    -0.303 C  
HETATM   12  O   UNL     1     -12.651  10.991  69.465  1.00  0.00    -0.289 OA 
BRANCH  11  13
HETATM   13  C   UNL     1     -10.971  11.825  68.069  1.00  0.00    -0.274 A  
HETATM   14  C   UNL     1     -11.252  11.504  66.732  1.00  0.00    -0.350 A  
HETATM   15  C   UNL     1     -10.845  12.346  65.697  1.00  0.00    -0.312 A  
HETATM   16  C   UNL     1     -10.152  13.517  65.988  1.00  0.00    -0.316 A  
HETATM   17  C   UNL     1      -9.837  13.831  67.311  1.00  0.00    -0.241 A  
HETATM   18  C   UNL     1     -10.231  12.980  68.350  1.00  0.00    -0.246 A  
ENDBRANCH  11  13
ENDBRANCH   7  11
ENDBRANCH   2   3
TORSDOF 3
ENDMDL
MODEL      152
REMARK 921   NORMALIZED FREE ENERGY PREDICTED BY IDOCK:   -3.85 KCAL/MOL
REMARK 922        TOTAL FREE ENERGY PREDICTED BY IDOCK:   -4.91 KCAL/MOL
REMARK 923 INTER-LIGAND FREE ENERGY PREDICTED BY IDOCK:   -4.29 KCAL/MOL
REMARK 924 INTRA-LIGAND FREE ENERGY PREDICTED BY IDOCK:   -0.61 KCAL/MOL
REMARK 927      BINDING AFFINITY PREDICTED BY RF-SCORE:    0.00 PKD
ROOT
HETATM    1  C   UNL     1     -11.674  14.604  66.188  1.00  0.00    -0.313 C  
HETATM    2  O   UNL     1     -10.626  13.659  65.974  1.00  0.00    -0.282 OA 
ENDROOT
BRANCH   2   3
HETATM    3  C   UNL     1     -10.509  12.701  66.944  1.00  0.00    -0.233 A  
HETATM    4  C   UNL     1      -9.301  12.287  67.502  1.00  0.00    -0.183 A  
HETATM    5  C   UNL     1      -9.283  11.252  68.442  1.00  0.00    -0.178 A  
HETATM    6  O   UNL     1      -8.069  10.836  68.914  1.00  0.00    -0.129 OA 
HETATM    7  C   UNL     1     -10.471  10.633  68.853  1.00  0.00    -0.232 A  
HETATM    8  H   UNL     1      -8.058  10.133  69.553  1.00  0.00     0.000 HD 
HETATM    9  C   UNL     1     -11.688  11.121  68.357  1.00  0.00    -0.349 A  
HETATM   10  C   UNL     1     -11.703  12.142  67.399  1.00  0.00    -0.374 A  
BRANCH   7  11
HETATM   11  C   UNL     1     -10.451   9.533  69.860  1.00  0.00    -0.240 C  
HETATM   12  O   UNL     1     -10.423   9.804  71.058  1.00  0.00    -0.290 OA 
BRANCH  11  13
HETATM   13  C   UNL     1     -10.538   8.092  69.471  1.00  0.00    -0.215 A  
HETATM   14  C   UNL     1     -10.140   7.743  68.171  1.00  0.00    -0.220 A  
HETATM   15  C   UNL     1     -10.161   6.413  67.752  1.00  0.00    -0.196 A  
HETATM   16  C   UNL     1     -10.582   5.417  68.629  1.00  0.00    -0.167 A  
HETATM   17  C   UNL     1     -11.013   5.755  69.914  1.00  0.00    -0.389 A  
HETATM   18  C   UNL     1     -11.007   7.090  70.331  1.00  0.00    -0.301 A  
ENDBRANCH  11  13
ENDBRANCH   7  11
ENDBRANCH   2   3
TORSDOF 3
ENDMDL
MODEL      153
REMARK 921   NORMALIZED FREE ENERGY PREDICTED BY IDOCK:   -3.83 KCAL/MOL
REMARK 922        TOTAL FREE ENERGY PREDICTED BY IDOCK:   -4.88 KCAL/MOL
REMARK 923 INTER-LIGAND FREE ENERGY PREDICTED BY IDOCK:   -4.32 KCAL/MOL
REMARK 924 INTRA-LIGAND FREE ENERGY PREDICTED BY IDOCK:   -0.57 KCAL/MOL
REMARK 927      BINDING AFFINITY PREDICTED BY RF-SCORE:    0.00 PKD
ROOT
HETATM    1  C   UNL     1      -6.926   3.313  67.906  1.00  0.00    -0.050 C  
HETATM    2  O   UNL     1      -7.833   3.761  66.898  1.00  0.00    -0.083 OA 
ENDROOT
BRANCH   2   3
HETATM    3  C   UNL     1      -8.482   4.930  67.188  1.00  0.00    -0.105 A  
HETATM    4  C   UNL     1      -9.857   5.121  67.062  1.00  0.00    -0.197 A  
HETATM    5  C   UNL     1     -10.414   6.376  67.321  1.00  0.00    -0.263 A  
HETATM    6  O   UNL     1     -11.758   6.535  67.121  1.00  0.00    -0.632 OA 
HETATM    7  C   UNL     1      -9.612   7.450  67.731  1.00  0.00    -0.162 A  
HETATM    8  H   UNL     1     -12.137   7.388  67.298  1.00  0.00     0.000 HD 
HETATM    9  C   UNL     1      -8.246   7.221  67.947  1.00  0.00    -0.119 A  
HETATM   10  C   UNL     1      -7.685   5.970  67.665  1.00  0.00    -0.097 A  
BRANCH   7  11
HETATM   11  C   UNL     1     -10.210   8.787  68.013  1.00  0.00    -0.213 C  
HETATM   12  O   UNL     1     -10.518   9.085  69.164  1.00  0.00    -0.222 OA 
BRANCH  11  13
HETATM   13  C   UNL     1     -10.384   9.824  66.951  1.00  0.00    -0.301 A  
HETATM   14  C   UNL     1     -11.083  10.993  67.291  1.00  0.00    -0.359 A  
HETATM   15  C   UNL     1     -11.253  12.018  66.360  1.00  0.00    -0.389 A  
HETATM   16  C   UNL     1     -10.726  11.884  65.078  1.00  0.00    -0.341 A  
HETATM   17  C   UNL     1     -10.059  10.713  64.717  1.00  0.00    -0.412 A  
HETATM   18  C   UNL     1      -9.901   9.677  65.644  1.00  0.00    -0.369 A  
ENDBRANCH  11  13
ENDBRANCH   7  11
ENDBRANCH   2   3
TORSDOF 3
ENDMDL
MODEL      154
REMARK 921   NORMALIZED FREE ENERGY PREDICTED BY IDOCK:   -3.83 KCAL/MOL
REMARK 922        TOTAL FREE ENERGY PREDICTED BY IDOCK:   -4.88 KCAL/MOL
REMARK 923 INTER-LIGAND FREE ENERGY PREDICTED BY IDOCK:   -4.52 KCAL/MOL
REMARK 924 INTRA-LIGAND FREE ENERGY PREDICTED BY IDOCK:   -0.36 KCAL/MOL
REMARK 927      BINDING AFFINITY PREDICTED BY RF-SCORE:    0.00 PKD
ROOT
HETATM    1  C   UNL     1      -6.805  18.346  66.287  1.00  0.00    -0.233 C  
HETATM    2  O   UNL     1      -7.754  18.662  67.306  1.00  0.00    -0.228 OA 
ENDROOT
BRANCH   2   3
HETATM    3  C   UNL     1      -8.721  17.715  67.504  1.00  0.00    -0.234 A  
HETATM    4  C   UNL     1      -9.652  17.743  68.541  1.00  0.00    -0.322 A  
HETATM    5  C   UNL     1     -10.558  16.691  68.695  1.00  0.00    -0.337 A  
HETATM    6  O   UNL     1     -11.411  16.730  69.764  1.00  0.00    -0.318 OA 
HETATM    7  C   UNL     1     -10.563  15.609  67.805  1.00  0.00    -0.281 A  
HETATM    8  H   UNL     1     -12.027  16.014  69.869  1.00  0.00     0.000 HD 
HETATM    9  C   UNL     1      -9.687  15.636  66.711  1.00  0.00    -0.255 A  
HETATM   10  C   UNL     1      -8.764  16.680  66.571  1.00  0.00    -0.317 A  
BRANCH   7  11
HETATM   11  C   UNL     1     -11.535  14.489  67.968  1.00  0.00    -0.321 C  
HETATM   12  O   UNL     1     -12.649  14.713  68.435  1.00  0.00     0.107 OA 
BRANCH  11  13
HETATM   13  C   UNL     1     -11.235  13.097  67.513  1.00  0.00    -0.314 A  
HETATM   14  C   UNL     1     -11.242  12.081  68.481  1.00  0.00    -0.306 A  
HETATM   15  C   UNL     1     -11.006  10.753  68.121  1.00  0.00    -0.308 A  
HETATM   16  C   UNL     1     -10.759  10.429  66.790  1.00  0.00    -0.235 A  
HETATM   17  C   UNL     1     -10.716  11.435  65.824  1.00  0.00    -0.309 A  
HETATM   18  C   UNL     1     -10.937  12.769  66.184  1.00  0.00    -0.310 A  
ENDBRANCH  11  13
ENDBRANCH   7  11
ENDBRANCH   2   3
TORSDOF 3
ENDMDL
MODEL      155
REMARK 921   NORMALIZED FREE ENERGY PREDICTED BY IDOCK:   -3.80 KCAL/MOL
REMARK 922        TOTAL FREE ENERGY PREDICTED BY IDOCK:   -4.85 KCAL/MOL
REMARK 923 INTER-LIGAND FREE ENERGY PREDICTED BY IDOCK:   -4.11 KCAL/MOL
REMARK 924 INTRA-LIGAND FREE ENERGY PREDICTED BY IDOCK:   -0.75 KCAL/MOL
REMARK 927      BINDING AFFINITY PREDICTED BY RF-SCORE:    0.00 PKD
ROOT
HETATM    1  C   UNL     1     -12.933  12.499  71.747  1.00  0.00    -0.313 C  
HETATM    2  O   UNL     1     -13.435  11.233  71.317  1.00  0.00    -0.035 OA 
ENDROOT
BRANCH   2   3
HETATM    3  C   UNL     1     -12.528  10.210  71.361  1.00  0.00    -0.423 A  
HETATM    4  C   UNL     1     -12.767   8.969  71.950  1.00  0.00    -0.450 A  
HETATM    5  C   UNL     1     -11.749   8.012  72.001  1.00  0.00    -0.323 A  
HETATM    6  O   UNL     1     -12.008   6.834  72.645  1.00  0.00    -0.491 OA 
HETATM    7  C   UNL     1     -10.489   8.271  71.445  1.00  0.00    -0.276 A  
HETATM    8  H   UNL     1     -11.316   6.184  72.679  1.00  0.00     0.000 HD 
HETATM    9  C   UNL     1     -10.290   9.485  70.772  1.00  0.00    -0.377 A  
HETATM   10  C   UNL     1     -11.302  10.451  70.741  1.00  0.00    -0.370 A  
BRANCH   7  11
HETATM   11  C   UNL     1      -9.406   7.247  71.495  1.00  0.00    -0.148 C  
HETATM   12  O   UNL     1      -9.541   6.188  70.887  1.00  0.00    -0.170 OA 
BRANCH  11  13
HETATM   13  C   UNL     1      -8.112   7.486  72.204  1.00  0.00    -0.115 A  
HETATM   14  C   UNL     1      -8.166   8.070  73.479  1.00  0.00    -0.271 A  
HETATM   15  C   UNL     1      -7.000   8.289  74.213  1.00  0.00    -0.194 A  
HETATM   16  C   UNL     1      -5.767   7.927  73.678  1.00  0.00    -0.058 A  
HETATM   17  C   UNL     1      -5.696   7.377  72.397  1.00  0.00    -0.037 A  
HETATM   18  C   UNL     1      -6.863   7.171  71.653  1.00  0.00    -0.056 A  
ENDBRANCH  11  13
ENDBRANCH   7  11
ENDBRANCH   2   3
TORSDOF 3
ENDMDL
MODEL      156
REMARK 921   NORMALIZED FREE ENERGY PREDICTED BY IDOCK:   -3.79 KCAL/MOL
REMARK 922        TOTAL FREE ENERGY PREDICTED BY IDOCK:   -4.84 KCAL/MOL
REMARK 923 INTER-LIGAND FREE ENERGY PREDICTED BY IDOCK:   -4.31 KCAL/MOL
REMARK 924 INTRA-LIGAND FREE ENERGY PREDICTED BY IDOCK:   -0.53 KCAL/MOL
REMARK 927      BINDING AFFINITY PREDICTED BY RF-SCORE:    0.00 PKD
ROOT
HETATM    1  C   UNL     1     -10.237   5.220  69.522  1.00  0.00    -0.268 C  
HETATM    2  O   UNL     1      -9.097   6.066  69.377  1.00  0.00    -0.131 OA 
ENDROOT
BRANCH   2   3
HETATM    3  C   UNL     1      -9.277   7.136  68.543  1.00  0.00    -0.134 A  
HETATM    4  C   UNL     1      -8.390   8.205  68.429  1.00  0.00    -0.126 A  
HETATM    5  C   UNL     1      -8.700   9.284  67.595  1.00  0.00    -0.116 A  
HETATM    6  O   UNL     1      -7.832  10.340  67.564  1.00  0.00    -0.101 OA 
HETATM    7  C   UNL     1      -9.885   9.298  66.848  1.00  0.00    -0.276 A  
HETATM    8  H   UNL     1      -8.043  11.073  66.997  1.00  0.00     0.000 HD 
HETATM    9  C   UNL     1     -10.723   8.176  66.897  1.00  0.00    -0.186 A  
HETATM   10  C   UNL     1     -10.424   7.107  67.750  1.00  0.00    -0.284 A  
BRANCH   7  11
HETATM   11  C   UNL     1     -10.211  10.448  65.955  1.00  0.00    -0.234 C  
HETATM   12  O   UNL     1     -10.054  10.339  64.741  1.00  0.00    -0.344 OA 
BRANCH  11  13
HETATM   13  C   UNL     1     -10.799  11.721  66.472  1.00  0.00    -0.323 A  
HETATM   14  C   UNL     1     -11.374  11.699  67.753  1.00  0.00    -0.356 A  
HETATM   15  C   UNL     1     -11.909  12.859  68.313  1.00  0.00    -0.372 A  
HETATM   16  C   UNL     1     -11.877  14.053  67.598  1.00  0.00    -0.430 A  
HETATM   17  C   UNL     1     -11.339  14.080  66.310  1.00  0.00    -0.336 A  
HETATM   18  C   UNL     1     -10.816  12.915  65.740  1.00  0.00    -0.292 A  
ENDBRANCH  11  13
ENDBRANCH   7  11
ENDBRANCH   2   3
TORSDOF 3
ENDMDL
MODEL      157
REMARK 921   NORMALIZED FREE ENERGY PREDICTED BY IDOCK:   -3.79 KCAL/MOL
REMARK 922        TOTAL FREE ENERGY PREDICTED BY IDOCK:   -4.84 KCAL/MOL
REMARK 923 INTER-LIGAND FREE ENERGY PREDICTED BY IDOCK:   -4.44 KCAL/MOL
REMARK 924 INTRA-LIGAND FREE ENERGY PREDICTED BY IDOCK:   -0.39 KCAL/MOL
REMARK 927      BINDING AFFINITY PREDICTED BY RF-SCORE:    0.00 PKD
ROOT
HETATM    1  C   UNL     1      -6.585   6.583  65.210  1.00  0.00    -0.042 C  
HETATM    2  O   UNL     1      -7.998   6.418  65.092  1.00  0.00    -0.104 OA 
ENDROOT
BRANCH   2   3
HETATM    3  C   UNL     1      -8.742   7.418  65.657  1.00  0.00    -0.075 A  
HETATM    4  C   UNL     1      -8.541   8.778  65.427  1.00  0.00    -0.203 A  
HETATM    5  C   UNL     1      -9.315   9.723  66.106  1.00  0.00    -0.191 A  
HETATM    6  O   UNL     1      -9.040  11.046  65.898  1.00  0.00    -0.186 OA 
HETATM    7  C   UNL     1     -10.313   9.324  67.005  1.00  0.00    -0.325 A  
HETATM    8  H   UNL     1      -9.566  11.689  66.359  1.00  0.00     0.000 HD 
HETATM    9  C   UNL     1     -10.570   7.955  67.158  1.00  0.00    -0.383 A  
HETATM   10  C   UNL     1      -9.780   7.009  66.494  1.00  0.00    -0.189 A  
BRANCH   7  11
HETATM   11  C   UNL     1     -11.141  10.335  67.726  1.00  0.00    -0.269 C  
HETATM   12  O   UNL     1     -11.641  11.267  67.102  1.00  0.00    -0.513 OA 
BRANCH  11  13
HETATM   13  C   UNL     1     -11.454  10.220  69.183  1.00  0.00    -0.210 A  
HETATM   14  C   UNL     1     -12.393  11.115  69.719  1.00  0.00    -0.315 A  
HETATM   15  C   UNL     1     -12.760  11.042  71.063  1.00  0.00    -0.485 A  
HETATM   16  C   UNL     1     -12.190  10.075  71.885  1.00  0.00    -0.269 A  
HETATM   17  C   UNL     1     -11.229   9.201  71.373  1.00  0.00    -0.419 A  
HETATM   18  C   UNL     1     -10.849   9.282  70.029  1.00  0.00    -0.264 A  
ENDBRANCH  11  13
ENDBRANCH   7  11
ENDBRANCH   2   3
TORSDOF 3
ENDMDL
MODEL      158
REMARK 921   NORMALIZED FREE ENERGY PREDICTED BY IDOCK:   -3.79 KCAL/MOL
REMARK 922        TOTAL FREE ENERGY PREDICTED BY IDOCK:   -4.84 KCAL/MOL
REMARK 923 INTER-LIGAND FREE ENERGY PREDICTED BY IDOCK:   -4.37 KCAL/MOL
REMARK 924 INTRA-LIGAND FREE ENERGY PREDICTED BY IDOCK:   -0.47 KCAL/MOL
REMARK 927      BINDING AFFINITY PREDICTED BY RF-SCORE:    0.00 PKD
ROOT
HETATM    1  C   UNL     1     -10.954  15.786  64.735  1.00  0.00    -0.393 C  
HETATM    2  O   UNL     1     -11.471  15.385  66.004  1.00  0.00    -0.180 OA 
ENDROOT
BRANCH   2   3
HETATM    3  C   UNL     1     -11.205  14.088  66.349  1.00  0.00    -0.319 A  
HETATM    4  C   UNL     1     -11.908  13.368  67.314  1.00  0.00    -0.422 A  
HETATM    5  C   UNL     1     -11.513  12.068  67.640  1.00  0.00    -0.322 A  
HETATM    6  O   UNL     1     -12.191  11.423  68.638  1.00  0.00    -0.532 OA 
HETATM    7  C   UNL     1     -10.429  11.460  66.993  1.00  0.00    -0.271 A  
HETATM    8  H   UNL     1     -11.923  10.539  68.859  1.00  0.00     0.000 HD 
HETATM    9  C   UNL     1      -9.790  12.158  65.958  1.00  0.00    -0.260 A  
HETATM   10  C   UNL     1     -10.171  13.468  65.648  1.00  0.00    -0.306 A  
BRANCH   7  11
HETATM   11  C   UNL     1     -10.013  10.071  67.339  1.00  0.00    -0.197 C  
HETATM   12  O   UNL     1     -10.305   9.143  66.588  1.00  0.00    -0.259 OA 
BRANCH  11  13
HETATM   13  C   UNL     1      -9.180   9.761  68.541  1.00  0.00    -0.134 A  
HETATM   14  C   UNL     1      -9.834   9.252  69.673  1.00  0.00    -0.196 A  
HETATM   15  C   UNL     1      -9.114   8.908  70.817  1.00  0.00    -0.260 A  
HETATM   16  C   UNL     1      -7.732   9.070  70.841  1.00  0.00    -0.149 A  
HETATM   17  C   UNL     1      -7.073   9.606  69.734  1.00  0.00    -0.084 A  
HETATM   18  C   UNL     1      -7.795   9.967  68.591  1.00  0.00    -0.086 A  
ENDBRANCH  11  13
ENDBRANCH   7  11
ENDBRANCH   2   3
TORSDOF 3
ENDMDL
MODEL      159
REMARK 921   NORMALIZED FREE ENERGY PREDICTED BY IDOCK:   -3.75 KCAL/MOL
REMARK 922        TOTAL FREE ENERGY PREDICTED BY IDOCK:   -4.80 KCAL/MOL
REMARK 923 INTER-LIGAND FREE ENERGY PREDICTED BY IDOCK:   -4.29 KCAL/MOL
REMARK 924 INTRA-LIGAND FREE ENERGY PREDICTED BY IDOCK:   -0.51 KCAL/MOL
REMARK 927      BINDING AFFINITY PREDICTED BY RF-SCORE:    0.00 PKD
ROOT
HETATM    1  C   UNL     1      -9.640   5.187  72.804  1.00  0.00    -0.145 C  
HETATM    2  O   UNL     1      -9.023   5.147  71.517  1.00  0.00    -0.134 OA 
ENDROOT
BRANCH   2   3
HETATM    3  C   UNL     1      -9.478   6.085  70.631  1.00  0.00    -0.168 A  
HETATM    4  C   UNL     1     -10.423   5.838  69.637  1.00  0.00    -0.363 A  
HETATM    5  C   UNL     1     -10.774   6.850  68.739  1.00  0.00    -0.219 A  
HETATM    6  O   UNL     1     -11.656   6.544  67.740  1.00  0.00    -0.646 OA 
HETATM    7  C   UNL     1     -10.204   8.127  68.835  1.00  0.00    -0.221 A  
HETATM    8  H   UNL     1     -11.894   7.232  67.130  1.00  0.00     0.000 HD 
HETATM    9  C   UNL     1      -9.327   8.391  69.897  1.00  0.00    -0.155 A  
HETATM   10  C   UNL     1      -8.960   7.371  70.781  1.00  0.00    -0.151 A  
BRANCH   7  11
HETATM   11  C   UNL     1     -10.583   9.207  67.879  1.00  0.00    -0.214 C  
HETATM   12  O   UNL     1     -11.396  10.063  68.219  1.00  0.00    -0.192 OA 
BRANCH  11  13
HETATM   13  C   UNL     1      -9.952   9.339  66.531  1.00  0.00    -0.344 A  
HETATM   14  C   UNL     1     -10.271  10.475  65.771  1.00  0.00    -0.310 A  
HETATM   15  C   UNL     1      -9.691  10.681  64.519  1.00  0.00    -0.367 A  
HETATM   16  C   UNL     1      -8.788   9.751  64.012  1.00  0.00    -0.258 A  
HETATM   17  C   UNL     1      -8.488   8.600  64.743  1.00  0.00    -0.168 A  
HETATM   18  C   UNL     1      -9.079   8.384  65.992  1.00  0.00    -0.235 A  
ENDBRANCH  11  13
ENDBRANCH   7  11
ENDBRANCH   2   3
TORSDOF 3
ENDMDL
MODEL      160
REMARK 921   NORMALIZED FREE ENERGY PREDICTED BY IDOCK:   -3.75 KCAL/MOL
REMARK 922        TOTAL FREE ENERGY PREDICTED BY IDOCK:   -4.79 KCAL/MOL
REMARK 923 INTER-LIGAND FREE ENERGY PREDICTED BY IDOCK:   -4.16 KCAL/MOL
REMARK 924 INTRA-LIGAND FREE ENERGY PREDICTED BY IDOCK:   -0.63 KCAL/MOL
REMARK 927      BINDING AFFINITY PREDICTED BY RF-SCORE:    0.00 PKD
ROOT
HETATM    1  C   UNL     1      -8.075  11.287  68.369  1.00  0.00    -0.143 C  
HETATM    2  O   UNL     1      -9.149  10.359  68.214  1.00  0.00    -0.138 OA 
ENDROOT
BRANCH   2   3
HETATM    3  C   UNL     1      -9.444   9.630  69.334  1.00  0.00    -0.192 A  
HETATM    4  C   UNL     1      -8.627   9.550  70.461  1.00  0.00    -0.231 A  
HETATM    5  C   UNL     1      -8.988   8.723  71.529  1.00  0.00    -0.236 A  
HETATM    6  O   UNL     1      -8.126   8.627  72.586  1.00  0.00    -0.367 OA 
HETATM    7  C   UNL     1     -10.178   7.984  71.496  1.00  0.00    -0.243 A  
HETATM    8  H   UNL     1      -8.371   8.065  73.311  1.00  0.00     0.000 HD 
HETATM    9  C   UNL     1     -11.037   8.144  70.400  1.00  0.00    -0.239 A  
HETATM   10  C   UNL     1     -10.664   8.955  69.321  1.00  0.00    -0.177 A  
BRANCH   7  11
HETATM   11  C   UNL     1     -10.564   7.106  72.638  1.00  0.00    -0.256 C  
HETATM   12  O   UNL     1     -11.004   7.608  73.670  1.00  0.00    -0.301 OA 
BRANCH  11  13
HETATM   13  C   UNL     1     -10.507   5.614  72.555  1.00  0.00    -0.255 A  
HETATM   14  C   UNL     1      -9.753   5.049  71.516  1.00  0.00    -0.227 A  
HETATM   15  C   UNL     1      -9.627   3.664  71.399  1.00  0.00    -0.237 A  
HETATM   16  C   UNL     1     -10.255   2.831  72.320  1.00  0.00    -0.187 A  
HETATM   17  C   UNL     1     -11.036   3.380  73.339  1.00  0.00    -0.306 A  
HETATM   18  C   UNL     1     -11.176   4.767  73.449  1.00  0.00    -0.425 A  
ENDBRANCH  11  13
ENDBRANCH   7  11
ENDBRANCH   2   3
TORSDOF 3
ENDMDL
MODEL      161
REMARK 921   NORMALIZED FREE ENERGY PREDICTED BY IDOCK:   -3.74 KCAL/MOL
REMARK 922        TOTAL FREE ENERGY PREDICTED BY IDOCK:   -4.78 KCAL/MOL
REMARK 923 INTER-LIGAND FREE ENERGY PREDICTED BY IDOCK:   -4.32 KCAL/MOL
REMARK 924 INTRA-LIGAND FREE ENERGY PREDICTED BY IDOCK:   -0.46 KCAL/MOL
REMARK 927      BINDING AFFINITY PREDICTED BY RF-SCORE:    0.00 PKD
ROOT
HETATM    1  C   UNL     1     -10.602  16.117  67.124  1.00  0.00    -0.294 C  
HETATM    2  O   UNL     1     -11.498  15.240  66.441  1.00  0.00    -0.238 OA 
ENDROOT
BRANCH   2   3
HETATM    3  C   UNL     1     -11.026  13.970  66.251  1.00  0.00    -0.300 A  
HETATM    4  C   UNL     1      -9.736  13.551  66.574  1.00  0.00    -0.287 A  
HETATM    5  C   UNL     1      -9.330  12.247  66.279  1.00  0.00    -0.206 A  
HETATM    6  O   UNL     1      -8.036  11.899  66.555  1.00  0.00    -0.341 OA 
HETATM    7  C   UNL     1     -10.211  11.337  65.679  1.00  0.00    -0.304 A  
HETATM    8  H   UNL     1      -7.761  11.013  66.354  1.00  0.00     0.000 HD 
HETATM    9  C   UNL     1     -11.534  11.740  65.445  1.00  0.00    -0.239 A  
HETATM   10  C   UNL     1     -11.933  13.053  65.720  1.00  0.00    -0.482 A  
BRANCH   7  11
HETATM   11  C   UNL     1      -9.778   9.944  65.369  1.00  0.00    -0.306 C  
HETATM   12  O   UNL     1      -9.494   9.638  64.213  1.00  0.00    -0.213 OA 
BRANCH  11  13
HETATM   13  C   UNL     1      -9.601   8.907  66.430  1.00  0.00    -0.304 A  
HETATM   14  C   UNL     1     -10.751   8.261  66.908  1.00  0.00    -0.179 A  
HETATM   15  C   UNL     1     -10.657   7.258  67.873  1.00  0.00    -0.266 A  
HETATM   16  C   UNL     1      -9.410   6.891  68.371  1.00  0.00    -0.129 A  
HETATM   17  C   UNL     1      -8.261   7.549  67.929  1.00  0.00    -0.123 A  
HETATM   18  C   UNL     1      -8.355   8.565  66.973  1.00  0.00    -0.110 A  
ENDBRANCH  11  13
ENDBRANCH   7  11
ENDBRANCH   2   3
TORSDOF 3
ENDMDL
MODEL      162
REMARK 921   NORMALIZED FREE ENERGY PREDICTED BY IDOCK:   -3.73 KCAL/MOL
REMARK 922        TOTAL FREE ENERGY PREDICTED BY IDOCK:   -4.77 KCAL/MOL
REMARK 923 INTER-LIGAND FREE ENERGY PREDICTED BY IDOCK:   -4.22 KCAL/MOL
REMARK 924 INTRA-LIGAND FREE ENERGY PREDICTED BY IDOCK:   -0.56 KCAL/MOL
REMARK 927      BINDING AFFINITY PREDICTED BY RF-SCORE:    0.00 PKD
ROOT
HETATM    1  C   UNL     1     -10.554   4.175  72.719  1.00  0.00    -0.148 C  
HETATM    2  O   UNL     1      -9.728   4.232  71.555  1.00  0.00    -0.155 OA 
ENDROOT
BRANCH   2   3
HETATM    3  C   UNL     1      -9.809   5.402  70.851  1.00  0.00    -0.188 A  
HETATM    4  C   UNL     1      -8.770   6.324  70.731  1.00  0.00    -0.136 A  
HETATM    5  C   UNL     1      -8.976   7.523  70.042  1.00  0.00    -0.144 A  
HETATM    6  O   UNL     1      -7.950   8.426  70.005  1.00  0.00    -0.103 OA 
HETATM    7  C   UNL     1     -10.212   7.807  69.444  1.00  0.00    -0.208 A  
HETATM    8  H   UNL     1      -8.090   9.241  69.537  1.00  0.00     0.000 HD 
HETATM    9  C   UNL     1     -11.218   6.831  69.489  1.00  0.00    -0.319 A  
HETATM   10  C   UNL     1     -11.018   5.642  70.199  1.00  0.00    -0.303 A  
BRANCH   7  11
HETATM   11  C   UNL     1     -10.428   9.084  68.705  1.00  0.00    -0.206 C  
HETATM   12  O   UNL     1     -10.104   9.165  67.523  1.00  0.00    -0.197 OA 
BRANCH  11  13
HETATM   13  C   UNL     1     -11.099  10.265  69.329  1.00  0.00    -0.293 A  
HETATM   14  C   UNL     1     -11.104  11.467  68.605  1.00  0.00    -0.291 A  
HETATM   15  C   UNL     1     -11.743  12.600  69.111  1.00  0.00    -0.375 A  
HETATM   16  C   UNL     1     -12.383  12.542  70.345  1.00  0.00    -0.311 A  
HETATM   17  C   UNL     1     -12.356  11.362  71.090  1.00  0.00    -0.404 A  
HETATM   18  C   UNL     1     -11.703  10.229  70.593  1.00  0.00    -0.438 A  
ENDBRANCH  11  13
ENDBRANCH   7  11
ENDBRANCH   2   3
TORSDOF 3
ENDMDL
MODEL      163
REMARK 921   NORMALIZED FREE ENERGY PREDICTED BY IDOCK:   -3.71 KCAL/MOL
REMARK 922        TOTAL FREE ENERGY PREDICTED BY IDOCK:   -4.75 KCAL/MOL
REMARK 923 INTER-LIGAND FREE ENERGY PREDICTED BY IDOCK:   -4.17 KCAL/MOL
REMARK 924 INTRA-LIGAND FREE ENERGY PREDICTED BY IDOCK:   -0.58 KCAL/MOL
REMARK 927      BINDING AFFINITY PREDICTED BY RF-SCORE:    0.00 PKD
ROOT
HETATM    1  C   UNL     1      -9.003   2.194  70.125  1.00  0.00    -0.087 C  
HETATM    2  O   UNL     1      -9.281   3.091  69.049  1.00  0.00    -0.132 OA 
ENDROOT
BRANCH   2   3
HETATM    3  C   UNL     1      -9.390   4.406  69.412  1.00  0.00    -0.156 A  
HETATM    4  C   UNL     1      -9.273   5.479  68.530  1.00  0.00    -0.133 A  
HETATM    5  C   UNL     1      -9.334   6.790  69.012  1.00  0.00    -0.134 A  
HETATM    6  O   UNL     1      -9.149   7.811  68.121  1.00  0.00    -0.130 OA 
HETATM    7  C   UNL     1      -9.537   7.046  70.375  1.00  0.00    -0.169 A  
HETATM    8  H   UNL     1      -9.191   8.701  68.449  1.00  0.00     0.000 HD 
HETATM    9  C   UNL     1      -9.749   5.962  71.237  1.00  0.00    -0.206 A  
HETATM   10  C   UNL     1      -9.664   4.650  70.757  1.00  0.00    -0.269 A  
BRANCH   7  11
HETATM   11  C   UNL     1      -9.607   8.446  70.887  1.00  0.00    -0.175 C  
HETATM   12  O   UNL     1      -8.570   9.076  71.079  1.00  0.00    -0.188 OA 
BRANCH  11  13
HETATM   13  C   UNL     1     -10.906   9.151  71.110  1.00  0.00    -0.381 A  
HETATM   14  C   UNL     1     -11.689   8.744  72.201  1.00  0.00    -0.433 A  
HETATM   15  C   UNL     1     -12.895   9.382  72.490  1.00  0.00    -0.306 A  
HETATM   16  C   UNL     1     -13.332  10.433  71.690  1.00  0.00    -0.432 A  
HETATM   17  C   UNL     1     -12.580  10.826  70.581  1.00  0.00    -0.446 A  
HETATM   18  C   UNL     1     -11.377  10.177  70.281  1.00  0.00    -0.387 A  
ENDBRANCH  11  13
ENDBRANCH   7  11
ENDBRANCH   2   3
TORSDOF 3
ENDMDL
MODEL      164
REMARK 921   NORMALIZED FREE ENERGY PREDICTED BY IDOCK:   -3.71 KCAL/MOL
REMARK 922        TOTAL FREE ENERGY PREDICTED BY IDOCK:   -4.74 KCAL/MOL
REMARK 923 INTER-LIGAND FREE ENERGY PREDICTED BY IDOCK:   -4.07 KCAL/MOL
REMARK 924 INTRA-LIGAND FREE ENERGY PREDICTED BY IDOCK:   -0.67 KCAL/MOL
REMARK 927      BINDING AFFINITY PREDICTED BY RF-SCORE:    0.00 PKD
ROOT
HETATM    1  C   UNL     1     -11.847  12.120  65.268  1.00  0.00    -0.295 C  
HETATM    2  O   UNL     1     -10.554  11.954  65.849  1.00  0.00    -0.249 OA 
ENDROOT
BRANCH   2   3
HETATM    3  C   UNL     1     -10.387  10.796  66.558  1.00  0.00    -0.244 A  
HETATM    4  C   UNL     1      -9.687   9.682  66.097  1.00  0.00    -0.317 A  
HETATM    5  C   UNL     1      -9.631   8.522  66.874  1.00  0.00    -0.197 A  
HETATM    6  O   UNL     1      -8.988   7.432  66.354  1.00  0.00    -0.151 OA 
HETATM    7  C   UNL     1     -10.251   8.464  68.129  1.00  0.00    -0.253 A  
HETATM    8  H   UNL     1      -8.950   6.643  66.882  1.00  0.00     0.000 HD 
HETATM    9  C   UNL     1     -10.871   9.621  68.624  1.00  0.00    -0.203 A  
HETATM   10  C   UNL     1     -10.946  10.775  67.836  1.00  0.00    -0.344 A  
BRANCH   7  11
HETATM   11  C   UNL     1     -10.186   7.227  68.958  1.00  0.00    -0.197 C  
HETATM   12  O   UNL     1     -10.160   6.127  68.410  1.00  0.00    -0.138 OA 
BRANCH  11  13
HETATM   13  C   UNL     1     -10.075   7.267  70.448  1.00  0.00    -0.196 A  
HETATM   14  C   UNL     1      -8.892   7.785  70.999  1.00  0.00    -0.145 A  
HETATM   15  C   UNL     1      -8.734   7.886  72.381  1.00  0.00    -0.206 A  
HETATM   16  C   UNL     1      -9.757   7.469  73.228  1.00  0.00    -0.326 A  
HETATM   17  C   UNL     1     -10.925   6.921  72.694  1.00  0.00    -0.303 A  
HETATM   18  C   UNL     1     -11.079   6.805  71.308  1.00  0.00    -0.303 A  
ENDBRANCH  11  13
ENDBRANCH   7  11
ENDBRANCH   2   3
TORSDOF 3
ENDMDL
MODEL      165
REMARK 921   NORMALIZED FREE ENERGY PREDICTED BY IDOCK:   -3.68 KCAL/MOL
REMARK 922        TOTAL FREE ENERGY PREDICTED BY IDOCK:   -4.71 KCAL/MOL
REMARK 923 INTER-LIGAND FREE ENERGY PREDICTED BY IDOCK:   -4.23 KCAL/MOL
REMARK 924 INTRA-LIGAND FREE ENERGY PREDICTED BY IDOCK:   -0.49 KCAL/MOL
REMARK 927      BINDING AFFINITY PREDICTED BY RF-SCORE:    0.00 PKD
ROOT
HETATM    1  C   UNL     1      -7.730   3.386  69.412  1.00  0.00    -0.051 C  
HETATM    2  O   UNL     1      -9.052   3.615  69.901  1.00  0.00    -0.094 OA 
ENDROOT
BRANCH   2   3
HETATM    3  C   UNL     1      -9.452   4.923  69.885  1.00  0.00    -0.160 A  
HETATM    4  C   UNL     1     -10.759   5.351  70.112  1.00  0.00    -0.295 A  
HETATM    5  C   UNL     1     -11.077   6.709  70.008  1.00  0.00    -0.339 A  
HETATM    6  O   UNL     1     -12.384   7.075  70.175  1.00  0.00    -0.618 OA 
HETATM    7  C   UNL     1     -10.093   7.657  69.701  1.00  0.00    -0.194 A  
HETATM    8  H   UNL     1     -12.600   7.998  70.105  1.00  0.00     0.000 HD 
HETATM    9  C   UNL     1      -8.765   7.227  69.569  1.00  0.00    -0.134 A  
HETATM   10  C   UNL     1      -8.451   5.866  69.650  1.00  0.00    -0.117 A  
BRANCH   7  11
HETATM   11  C   UNL     1     -10.434   9.106  69.595  1.00  0.00    -0.223 C  
HETATM   12  O   UNL     1     -10.557   9.777  70.617  1.00  0.00    -0.292 OA 
BRANCH  11  13
HETATM   13  C   UNL     1     -10.561   9.804  68.280  1.00  0.00    -0.271 A  
HETATM   14  C   UNL     1     -10.029   9.164  67.150  1.00  0.00    -0.280 A  
HETATM   15  C   UNL     1     -10.144   9.741  65.885  1.00  0.00    -0.314 A  
HETATM   16  C   UNL     1     -10.790  10.965  65.737  1.00  0.00    -0.120 A  
HETATM   17  C   UNL     1     -11.293  11.628  66.858  1.00  0.00    -0.364 A  
HETATM   18  C   UNL     1     -11.166  11.058  68.129  1.00  0.00    -0.364 A  
ENDBRANCH  11  13
ENDBRANCH   7  11
ENDBRANCH   2   3
TORSDOF 3
ENDMDL
MODEL      166
REMARK 921   NORMALIZED FREE ENERGY PREDICTED BY IDOCK:   -3.68 KCAL/MOL
REMARK 922        TOTAL FREE ENERGY PREDICTED BY IDOCK:   -4.71 KCAL/MOL
REMARK 923 INTER-LIGAND FREE ENERGY PREDICTED BY IDOCK:   -4.28 KCAL/MOL
REMARK 924 INTRA-LIGAND FREE ENERGY PREDICTED BY IDOCK:   -0.43 KCAL/MOL
REMARK 927      BINDING AFFINITY PREDICTED BY RF-SCORE:    0.00 PKD
ROOT
HETATM    1  C   UNL     1     -13.593   9.280  72.412  1.00  0.00    -0.463 C  
HETATM    2  O   UNL     1     -13.169   7.959  72.073  1.00  0.00    -0.297 OA 
ENDROOT
BRANCH   2   3
HETATM    3  C   UNL     1     -12.088   7.900  71.236  1.00  0.00    -0.296 A  
HETATM    4  C   UNL     1     -11.108   8.888  71.142  1.00  0.00    -0.354 A  
HETATM    5  C   UNL     1     -10.078   8.762  70.206  1.00  0.00    -0.191 A  
HETATM    6  O   UNL     1      -9.176   9.785  70.104  1.00  0.00    -0.234 OA 
HETATM    7  C   UNL     1      -9.997   7.641  69.370  1.00  0.00    -0.180 A  
HETATM    8  H   UNL     1      -8.475   9.700  69.468  1.00  0.00     0.000 HD 
HETATM    9  C   UNL     1     -10.932   6.610  69.539  1.00  0.00    -0.367 A  
HETATM   10  C   UNL     1     -11.977   6.747  70.460  1.00  0.00    -0.385 A  
BRANCH   7  11
HETATM   11  C   UNL     1      -8.894   7.506  68.375  1.00  0.00    -0.126 C  
HETATM   12  O   UNL     1      -7.975   6.719  68.589  1.00  0.00    -0.115 OA 
BRANCH  11  13
HETATM   13  C   UNL     1      -8.894   8.244  67.076  1.00  0.00    -0.146 A  
HETATM   14  C   UNL     1      -7.890   7.928  66.148  1.00  0.00    -0.094 A  
HETATM   15  C   UNL     1      -7.850   8.552  64.900  1.00  0.00    -0.119 A  
HETATM   16  C   UNL     1      -8.815   9.499  64.568  1.00  0.00    -0.249 A  
HETATM   17  C   UNL     1      -9.799   9.847  65.495  1.00  0.00    -0.381 A  
HETATM   18  C   UNL     1      -9.831   9.234  66.752  1.00  0.00    -0.289 A  
ENDBRANCH  11  13
ENDBRANCH   7  11
ENDBRANCH   2   3
TORSDOF 3
ENDMDL
MODEL      167
REMARK 921   NORMALIZED FREE ENERGY PREDICTED BY IDOCK:   -3.68 KCAL/MOL
REMARK 922        TOTAL FREE ENERGY PREDICTED BY IDOCK:   -4.71 KCAL/MOL
REMARK 923 INTER-LIGAND FREE ENERGY PREDICTED BY IDOCK:   -4.02 KCAL/MOL
REMARK 924 INTRA-LIGAND FREE ENERGY PREDICTED BY IDOCK:   -0.69 KCAL/MOL
REMARK 927      BINDING AFFINITY PREDICTED BY RF-SCORE:    0.00 PKD
ROOT
HETATM    1  C   UNL     1     -13.044  11.213  71.543  1.00  0.00    -0.385 C  
HETATM    2  O   UNL     1     -12.161  10.579  70.618  1.00  0.00    -0.294 OA 
ENDROOT
BRANCH   2   3
HETATM    3  C   UNL     1     -11.406   9.568  71.145  1.00  0.00    -0.370 A  
HETATM    4  C   UNL     1     -11.808   8.751  72.201  1.00  0.00    -0.436 A  
HETATM    5  C   UNL     1     -10.933   7.787  72.711  1.00  0.00    -0.388 A  
HETATM    6  O   UNL     1     -11.345   7.053  73.789  1.00  0.00    -0.403 OA 
HETATM    7  C   UNL     1      -9.657   7.610  72.160  1.00  0.00    -0.207 A  
HETATM    8  H   UNL     1     -10.751   6.398  74.135  1.00  0.00     0.000 HD 
HETATM    9  C   UNL     1      -9.299   8.371  71.038  1.00  0.00    -0.211 A  
HETATM   10  C   UNL     1     -10.167   9.351  70.543  1.00  0.00    -0.332 A  
BRANCH   7  11
HETATM   11  C   UNL     1      -8.727   6.578  72.702  1.00  0.00    -0.124 C  
HETATM   12  O   UNL     1      -8.119   6.795  73.748  1.00  0.00    -0.105 OA 
BRANCH  11  13
HETATM   13  C   UNL     1      -8.555   5.240  72.059  1.00  0.00    -0.130 A  
HETATM   14  C   UNL     1      -7.312   4.604  72.202  1.00  0.00    -0.080 A  
HETATM   15  C   UNL     1      -7.092   3.338  71.658  1.00  0.00    -0.032 A  
HETATM   16  C   UNL     1      -8.113   2.695  70.965  1.00  0.00    -0.059 A  
HETATM   17  C   UNL     1      -9.344   3.331  70.786  1.00  0.00    -0.223 A  
HETATM   18  C   UNL     1      -9.561   4.606  71.318  1.00  0.00    -0.238 A  
ENDBRANCH  11  13
ENDBRANCH   7  11
ENDBRANCH   2   3
TORSDOF 3
ENDMDL
MODEL      168
REMARK 921   NORMALIZED FREE ENERGY PREDICTED BY IDOCK:   -3.66 KCAL/MOL
REMARK 922        TOTAL FREE ENERGY PREDICTED BY IDOCK:   -4.68 KCAL/MOL
REMARK 923 INTER-LIGAND FREE ENERGY PREDICTED BY IDOCK:   -4.19 KCAL/MOL
REMARK 924 INTRA-LIGAND FREE ENERGY PREDICTED BY IDOCK:   -0.50 KCAL/MOL
REMARK 927      BINDING AFFINITY PREDICTED BY RF-SCORE:    0.00 PKD
ROOT
HETATM    1  C   UNL     1     -11.871  14.330  67.241  1.00  0.00    -0.413 C  
HETATM    2  O   UNL     1     -11.504  13.632  66.051  1.00  0.00    -0.312 OA 
ENDROOT
BRANCH   2   3
HETATM    3  C   UNL     1     -11.086  12.344  66.246  1.00  0.00    -0.303 A  
HETATM    4  C   UNL     1     -10.454  11.565  65.279  1.00  0.00    -0.336 A  
HETATM    5  C   UNL     1     -10.125  10.235  65.558  1.00  0.00    -0.281 A  
HETATM    6  O   UNL     1      -9.564   9.489  64.558  1.00  0.00    -0.433 OA 
HETATM    7  C   UNL     1     -10.402   9.673  66.811  1.00  0.00    -0.292 A  
HETATM    8  H   UNL     1      -9.341   8.586  64.748  1.00  0.00     0.000 HD 
HETATM    9  C   UNL     1     -10.951  10.493  67.807  1.00  0.00    -0.372 A  
HETATM   10  C   UNL     1     -11.301  11.817  67.519  1.00  0.00    -0.377 A  
BRANCH   7  11
HETATM   11  C   UNL     1     -10.046   8.255  67.109  1.00  0.00    -0.264 C  
HETATM   12  O   UNL     1     -10.927   7.399  67.134  1.00  0.00    -0.312 OA 
BRANCH  11  13
HETATM   13  C   UNL     1      -8.633   7.811  67.309  1.00  0.00    -0.128 A  
HETATM   14  C   UNL     1      -7.974   8.239  68.471  1.00  0.00    -0.122 A  
HETATM   15  C   UNL     1      -6.666   7.833  68.740  1.00  0.00    -0.054 A  
HETATM   16  C   UNL     1      -6.004   6.996  67.848  1.00  0.00    -0.029 A  
HETATM   17  C   UNL     1      -6.636   6.590  66.671  1.00  0.00    -0.048 A  
HETATM   18  C   UNL     1      -7.941   7.008  66.392  1.00  0.00    -0.109 A  
ENDBRANCH  11  13
ENDBRANCH   7  11
ENDBRANCH   2   3
TORSDOF 3
ENDMDL
MODEL      169
REMARK 921   NORMALIZED FREE ENERGY PREDICTED BY IDOCK:   -3.66 KCAL/MOL
REMARK 922        TOTAL FREE ENERGY PREDICTED BY IDOCK:   -4.68 KCAL/MOL
REMARK 923 INTER-LIGAND FREE ENERGY PREDICTED BY IDOCK:   -4.03 KCAL/MOL
REMARK 924 INTRA-LIGAND FREE ENERGY PREDICTED BY IDOCK:   -0.66 KCAL/MOL
REMARK 927      BINDING AFFINITY PREDICTED BY RF-SCORE:    0.00 PKD
ROOT
HETATM    1  C   UNL     1     -10.114   8.565  66.709  1.00  0.00    -0.299 C  
HETATM    2  O   UNL     1      -9.936   9.742  65.921  1.00  0.00    -0.269 OA 
ENDROOT
BRANCH   2   3
HETATM    3  C   UNL     1     -10.151  10.918  66.587  1.00  0.00    -0.219 A  
HETATM    4  C   UNL     1     -11.402  11.504  66.768  1.00  0.00    -0.309 A  
HETATM    5  C   UNL     1     -11.508  12.743  67.407  1.00  0.00    -0.340 A  
HETATM    6  O   UNL     1     -12.748  13.311  67.505  1.00  0.00     0.089 OA 
HETATM    7  C   UNL     1     -10.370  13.400  67.894  1.00  0.00    -0.238 A  
HETATM    8  H   UNL     1     -12.819  14.153  67.940  1.00  0.00     0.000 HD 
HETATM    9  C   UNL     1      -9.128  12.758  67.791  1.00  0.00    -0.197 A  
HETATM   10  C   UNL     1      -9.021  11.528  67.131  1.00  0.00    -0.166 A  
BRANCH   7  11
HETATM   11  C   UNL     1     -10.485  14.720  68.581  1.00  0.00    -0.250 C  
HETATM   12  O   UNL     1     -10.923  14.773  69.727  1.00  0.00    -0.261 OA 
BRANCH  11  13
HETATM   13  C   UNL     1     -10.015  15.992  67.952  1.00  0.00    -0.233 A  
HETATM   14  C   UNL     1      -8.932  16.652  68.552  1.00  0.00    -0.235 A  
HETATM   15  C   UNL     1      -8.417  17.825  67.999  1.00  0.00    -0.253 A  
HETATM   16  C   UNL     1      -8.983  18.351  66.841  1.00  0.00    -0.280 A  
HETATM   17  C   UNL     1     -10.082  17.722  66.253  1.00  0.00    -0.345 A  
HETATM   18  C   UNL     1     -10.609  16.554  66.815  1.00  0.00    -0.224 A  
ENDBRANCH  11  13
ENDBRANCH   7  11
ENDBRANCH   2   3
TORSDOF 3
ENDMDL
MODEL      170
REMARK 921   NORMALIZED FREE ENERGY PREDICTED BY IDOCK:   -3.65 KCAL/MOL
REMARK 922        TOTAL FREE ENERGY PREDICTED BY IDOCK:   -4.67 KCAL/MOL
REMARK 923 INTER-LIGAND FREE ENERGY PREDICTED BY IDOCK:   -4.15 KCAL/MOL
REMARK 924 INTRA-LIGAND FREE ENERGY PREDICTED BY IDOCK:   -0.53 KCAL/MOL
REMARK 927      BINDING AFFINITY PREDICTED BY RF-SCORE:    0.00 PKD
ROOT
HETATM    1  C   UNL     1      -8.978  19.562  66.287  1.00  0.00    -0.364 C  
HETATM    2  O   UNL     1      -8.182  18.769  67.168  1.00  0.00    -0.258 OA 
ENDROOT
BRANCH   2   3
HETATM    3  C   UNL     1      -8.752  17.584  67.546  1.00  0.00    -0.225 A  
HETATM    4  C   UNL     1      -8.353  16.834  68.652  1.00  0.00    -0.252 A  
HETATM    5  C   UNL     1      -8.957  15.602  68.915  1.00  0.00    -0.221 A  
HETATM    6  O   UNL     1      -8.489  14.871  69.972  1.00  0.00    -0.382 OA 
HETATM    7  C   UNL     1      -9.981  15.112  68.093  1.00  0.00    -0.221 A  
HETATM    8  H   UNL     1      -8.900  14.033  70.151  1.00  0.00     0.000 HD 
HETATM    9  C   UNL     1     -10.439  15.917  67.041  1.00  0.00    -0.306 A  
HETATM   10  C   UNL     1      -9.818  17.141  66.765  1.00  0.00    -0.288 A  
BRANCH   7  11
HETATM   11  C   UNL     1     -10.628  13.799  68.379  1.00  0.00    -0.253 C  
HETATM   12  O   UNL     1     -11.752  13.769  68.874  1.00  0.00    -0.290 OA 
BRANCH  11  13
HETATM   13  C   UNL     1      -9.989  12.497  68.016  1.00  0.00    -0.219 A  
HETATM   14  C   UNL     1      -9.023  12.508  66.998  1.00  0.00    -0.211 A  
HETATM   15  C   UNL     1      -8.361  11.335  66.632  1.00  0.00    -0.163 A  
HETATM   16  C   UNL     1      -8.658  10.140  67.280  1.00  0.00    -0.125 A  
HETATM   17  C   UNL     1      -9.641  10.110  68.271  1.00  0.00    -0.150 A  
HETATM   18  C   UNL     1     -10.317  11.281  68.629  1.00  0.00    -0.217 A  
ENDBRANCH  11  13
ENDBRANCH   7  11
ENDBRANCH   2   3
TORSDOF 3
ENDMDL
MODEL      171
REMARK 921   NORMALIZED FREE ENERGY PREDICTED BY IDOCK:   -3.65 KCAL/MOL
REMARK 922        TOTAL FREE ENERGY PREDICTED BY IDOCK:   -4.67 KCAL/MOL
REMARK 923 INTER-LIGAND FREE ENERGY PREDICTED BY IDOCK:   -4.45 KCAL/MOL
REMARK 924 INTRA-LIGAND FREE ENERGY PREDICTED BY IDOCK:   -0.22 KCAL/MOL
REMARK 927      BINDING AFFINITY PREDICTED BY RF-SCORE:    0.00 PKD
ROOT
HETATM    1  C   UNL     1     -12.438  11.992  63.607  1.00  0.00    -0.525 C  
HETATM    2  O   UNL     1     -12.833  12.427  64.908  1.00  0.00    -0.711 OA 
ENDROOT
BRANCH   2   3
HETATM    3  C   UNL     1     -11.809  12.561  65.805  1.00  0.00    -0.437 A  
HETATM    4  C   UNL     1     -11.906  12.265  67.164  1.00  0.00    -0.328 A  
HETATM    5  C   UNL     1     -10.818  12.501  68.009  1.00  0.00    -0.225 A  
HETATM    6  O   UNL     1     -10.979  12.257  69.345  1.00  0.00    -0.426 OA 
HETATM    7  C   UNL     1      -9.613  13.011  67.507  1.00  0.00    -0.204 A  
HETATM    8  H   UNL     1     -10.239  12.416  69.920  1.00  0.00     0.000 HD 
HETATM    9  C   UNL     1      -9.495  13.215  66.125  1.00  0.00    -0.156 A  
HETATM   10  C   UNL     1     -10.592  13.001  65.283  1.00  0.00    -0.320 A  
BRANCH   7  11
HETATM   11  C   UNL     1      -8.451  13.256  68.410  1.00  0.00    -0.128 C  
HETATM   12  O   UNL     1      -8.029  12.346  69.119  1.00  0.00     0.179 OA 
BRANCH  11  13
HETATM   13  C   UNL     1      -7.721  14.560  68.437  1.00  0.00    -0.128 A  
HETATM   14  C   UNL     1      -7.536  15.228  67.217  1.00  0.00    -0.244 A  
HETATM   15  C   UNL     1      -6.895  16.466  67.172  1.00  0.00    -0.238 A  
HETATM   16  C   UNL     1      -6.429  17.048  68.348  1.00  0.00    -0.155 A  
HETATM   17  C   UNL     1      -6.577  16.378  69.564  1.00  0.00    -0.210 A  
HETATM   18  C   UNL     1      -7.206  15.130  69.609  1.00  0.00    -0.194 A  
ENDBRANCH  11  13
ENDBRANCH   7  11
ENDBRANCH   2   3
TORSDOF 3
ENDMDL
MODEL      172
REMARK 921   NORMALIZED FREE ENERGY PREDICTED BY IDOCK:   -3.64 KCAL/MOL
REMARK 922        TOTAL FREE ENERGY PREDICTED BY IDOCK:   -4.67 KCAL/MOL
REMARK 923 INTER-LIGAND FREE ENERGY PREDICTED BY IDOCK:   -3.96 KCAL/MOL
REMARK 924 INTRA-LIGAND FREE ENERGY PREDICTED BY IDOCK:   -0.71 KCAL/MOL
REMARK 927      BINDING AFFINITY PREDICTED BY RF-SCORE:    0.00 PKD
ROOT
HETATM    1  C   UNL     1      -9.178  12.228  68.115  1.00  0.00    -0.197 C  
HETATM    2  O   UNL     1     -10.433  11.597  67.860  1.00  0.00    -0.183 OA 
ENDROOT
BRANCH   2   3
HETATM    3  C   UNL     1     -10.730  10.551  68.691  1.00  0.00    -0.215 A  
HETATM    4  C   UNL     1     -11.381  10.678  69.917  1.00  0.00    -0.386 A  
HETATM    5  C   UNL     1     -11.579   9.553  70.723  1.00  0.00    -0.308 A  
HETATM    6  O   UNL     1     -12.164   9.734  71.946  1.00  0.00    -0.375 OA 
HETATM    7  C   UNL     1     -11.150   8.285  70.307  1.00  0.00    -0.220 A  
HETATM    8  H   UNL     1     -12.298   8.970  72.493  1.00  0.00     0.000 HD 
HETATM    9  C   UNL     1     -10.582   8.154  69.032  1.00  0.00    -0.167 A  
HETATM   10  C   UNL     1     -10.365   9.285  68.235  1.00  0.00    -0.257 A  
BRANCH   7  11
HETATM   11  C   UNL     1     -11.367   7.085  71.166  1.00  0.00    -0.282 C  
HETATM   12  O   UNL     1     -12.510   6.691  71.383  1.00  0.00    -0.342 OA 
BRANCH  11  13
HETATM   13  C   UNL     1     -10.233   6.286  71.723  1.00  0.00    -0.224 A  
HETATM   14  C   UNL     1     -10.125   4.945  71.322  1.00  0.00    -0.269 A  
HETATM   15  C   UNL     1      -9.071   4.149  71.774  1.00  0.00    -0.168 A  
HETATM   16  C   UNL     1      -8.116   4.687  72.633  1.00  0.00    -0.100 A  
HETATM   17  C   UNL     1      -8.231   6.009  73.065  1.00  0.00    -0.116 A  
HETATM   18  C   UNL     1      -9.295   6.804  72.625  1.00  0.00    -0.152 A  
ENDBRANCH  11  13
ENDBRANCH   7  11
ENDBRANCH   2   3
TORSDOF 3
ENDMDL
MODEL      173
REMARK 921   NORMALIZED FREE ENERGY PREDICTED BY IDOCK:   -3.64 KCAL/MOL
REMARK 922        TOTAL FREE ENERGY PREDICTED BY IDOCK:   -4.66 KCAL/MOL
REMARK 923 INTER-LIGAND FREE ENERGY PREDICTED BY IDOCK:   -4.04 KCAL/MOL
REMARK 924 INTRA-LIGAND FREE ENERGY PREDICTED BY IDOCK:   -0.62 KCAL/MOL
REMARK 927      BINDING AFFINITY PREDICTED BY RF-SCORE:    0.00 PKD
ROOT
HETATM    1  C   UNL     1     -11.172   2.673  73.623  1.00  0.00    -0.215 C  
HETATM    2  O   UNL     1     -11.252   3.884  74.375  1.00  0.00     0.004 OA 
ENDROOT
BRANCH   2   3
HETATM    3  C   UNL     1     -10.658   4.967  73.785  1.00  0.00    -0.276 A  
HETATM    4  C   UNL     1      -9.981   5.970  74.477  1.00  0.00    -0.321 A  
HETATM    5  C   UNL     1      -9.466   7.070  73.785  1.00  0.00    -0.222 A  
HETATM    6  O   UNL     1      -8.866   8.061  74.512  1.00  0.00    -0.409 OA 
HETATM    7  C   UNL     1      -9.600   7.173  72.394  1.00  0.00    -0.168 A  
HETATM    8  H   UNL     1      -8.516   8.808  74.042  1.00  0.00     0.000 HD 
HETATM    9  C   UNL     1     -10.199   6.113  71.698  1.00  0.00    -0.235 A  
HETATM   10  C   UNL     1     -10.734   5.023  72.394  1.00  0.00    -0.262 A  
BRANCH   7  11
HETATM   11  C   UNL     1      -9.045   8.345  71.658  1.00  0.00    -0.205 C  
HETATM   12  O   UNL     1      -8.098   8.968  72.131  1.00  0.00    -0.359 OA 
BRANCH  11  13
HETATM   13  C   UNL     1      -9.552   8.757  70.313  1.00  0.00    -0.198 A  
HETATM   14  C   UNL     1     -10.652   9.627  70.271  1.00  0.00    -0.333 A  
HETATM   15  C   UNL     1     -11.155  10.082  69.051  1.00  0.00    -0.221 A  
HETATM   16  C   UNL     1     -10.563   9.669  67.861  1.00  0.00    -0.308 A  
HETATM   17  C   UNL     1      -9.489   8.777  67.888  1.00  0.00    -0.160 A  
HETATM   18  C   UNL     1      -8.993   8.308  69.109  1.00  0.00    -0.147 A  
ENDBRANCH  11  13
ENDBRANCH   7  11
ENDBRANCH   2   3
TORSDOF 3
ENDMDL
MODEL      174
REMARK 921   NORMALIZED FREE ENERGY PREDICTED BY IDOCK:   -3.63 KCAL/MOL
REMARK 922        TOTAL FREE ENERGY PREDICTED BY IDOCK:   -4.65 KCAL/MOL
REMARK 923 INTER-LIGAND FREE ENERGY PREDICTED BY IDOCK:   -3.93 KCAL/MOL
REMARK 924 INTRA-LIGAND FREE ENERGY PREDICTED BY IDOCK:   -0.72 KCAL/MOL
REMARK 927      BINDING AFFINITY PREDICTED BY RF-SCORE:    0.00 PKD
ROOT
HETATM    1  C   UNL     1     -11.081   6.494  67.366  1.00  0.00    -0.327 C  
HETATM    2  O   UNL     1     -10.277   7.250  66.460  1.00  0.00    -0.183 OA 
ENDROOT
BRANCH   2   3
HETATM    3  C   UNL     1      -9.813   8.438  66.957  1.00  0.00    -0.230 A  
HETATM    4  C   UNL     1      -9.674   8.725  68.314  1.00  0.00    -0.175 A  
HETATM    5  C   UNL     1      -9.253   9.994  68.719  1.00  0.00    -0.159 A  
HETATM    6  O   UNL     1      -9.193  10.252  70.061  1.00  0.00    -0.399 OA 
HETATM    7  C   UNL     1      -8.944  10.985  67.778  1.00  0.00    -0.140 A  
HETATM    8  H   UNL     1      -8.907  11.115  70.337  1.00  0.00     0.000 HD 
HETATM    9  C   UNL     1      -8.996  10.656  66.416  1.00  0.00    -0.176 A  
HETATM   10  C   UNL     1      -9.439   9.392  66.011  1.00  0.00    -0.304 A  
BRANCH   7  11
HETATM   11  C   UNL     1      -8.490  12.338  68.213  1.00  0.00    -0.173 C  
HETATM   12  O   UNL     1      -7.400  12.465  68.767  1.00  0.00    -0.108 OA 
BRANCH  11  13
HETATM   13  C   UNL     1      -9.282  13.575  67.935  1.00  0.00    -0.211 A  
HETATM   14  C   UNL     1      -8.598  14.679  67.402  1.00  0.00    -0.212 A  
HETATM   15  C   UNL     1      -9.280  15.854  67.085  1.00  0.00    -0.222 A  
HETATM   16  C   UNL     1     -10.653  15.937  67.298  1.00  0.00    -0.314 A  
HETATM   17  C   UNL     1     -11.339  14.858  67.858  1.00  0.00    -0.340 A  
HETATM   18  C   UNL     1     -10.654  13.685  68.192  1.00  0.00    -0.255 A  
ENDBRANCH  11  13
ENDBRANCH   7  11
ENDBRANCH   2   3
TORSDOF 3
ENDMDL
MODEL      175
REMARK 921   NORMALIZED FREE ENERGY PREDICTED BY IDOCK:   -3.60 KCAL/MOL
REMARK 922        TOTAL FREE ENERGY PREDICTED BY IDOCK:   -4.62 KCAL/MOL
REMARK 923 INTER-LIGAND FREE ENERGY PREDICTED BY IDOCK:   -4.09 KCAL/MOL
REMARK 924 INTRA-LIGAND FREE ENERGY PREDICTED BY IDOCK:   -0.53 KCAL/MOL
REMARK 927      BINDING AFFINITY PREDICTED BY RF-SCORE:    0.00 PKD
ROOT
HETATM    1  C   UNL     1     -10.925  12.129  63.608  1.00  0.00    -0.461 C  
HETATM    2  O   UNL     1     -11.658  11.921  64.815  1.00  0.00    -0.307 OA 
ENDROOT
BRANCH   2   3
HETATM    3  C   UNL     1     -10.968  11.272  65.803  1.00  0.00    -0.145 A  
HETATM    4  C   UNL     1      -9.936  10.363  65.577  1.00  0.00    -0.348 A  
HETATM    5  C   UNL     1      -9.338   9.703  66.654  1.00  0.00    -0.156 A  
HETATM    6  O   UNL     1      -8.375   8.772  66.382  1.00  0.00    -0.111 OA 
HETATM    7  C   UNL     1      -9.746   9.958  67.971  1.00  0.00    -0.160 A  
HETATM    8  H   UNL     1      -7.968   8.324  67.114  1.00  0.00     0.000 HD 
HETATM    9  C   UNL     1     -10.718  10.944  68.193  1.00  0.00    -0.256 A  
HETATM   10  C   UNL     1     -11.332  11.587  67.112  1.00  0.00    -0.354 A  
BRANCH   7  11
HETATM   11  C   UNL     1      -9.103   9.257  69.119  1.00  0.00    -0.145 C  
HETATM   12  O   UNL     1      -8.299   9.859  69.828  1.00  0.00    -0.157 OA 
BRANCH  11  13
HETATM   13  C   UNL     1      -9.454   7.854  69.498  1.00  0.00    -0.160 A  
HETATM   14  C   UNL     1     -10.779   7.438  69.298  1.00  0.00    -0.197 A  
HETATM   15  C   UNL     1     -11.169   6.132  69.595  1.00  0.00    -0.488 A  
HETATM   16  C   UNL     1     -10.237   5.228  70.096  1.00  0.00    -0.350 A  
HETATM   17  C   UNL     1      -8.923   5.639  70.332  1.00  0.00    -0.153 A  
HETATM   18  C   UNL     1      -8.534   6.952  70.049  1.00  0.00    -0.140 A  
ENDBRANCH  11  13
ENDBRANCH   7  11
ENDBRANCH   2   3
TORSDOF 3
ENDMDL
MODEL      176
REMARK 921   NORMALIZED FREE ENERGY PREDICTED BY IDOCK:   -3.53 KCAL/MOL
REMARK 922        TOTAL FREE ENERGY PREDICTED BY IDOCK:   -4.54 KCAL/MOL
REMARK 923 INTER-LIGAND FREE ENERGY PREDICTED BY IDOCK:   -4.12 KCAL/MOL
REMARK 924 INTRA-LIGAND FREE ENERGY PREDICTED BY IDOCK:   -0.41 KCAL/MOL
REMARK 927      BINDING AFFINITY PREDICTED BY RF-SCORE:    0.00 PKD
ROOT
HETATM    1  C   UNL     1      -5.126  12.689  68.795  1.00  0.00    -0.056 C  
HETATM    2  O   UNL     1      -5.966  13.261  69.798  1.00  0.00    -0.112 OA 
ENDROOT
BRANCH   2   3
HETATM    3  C   UNL     1      -7.130  13.807  69.329  1.00  0.00    -0.004 A  
HETATM    4  C   UNL     1      -8.090  13.109  68.598  1.00  0.00    -0.014 A  
HETATM    5  C   UNL     1      -9.216  13.777  68.108  1.00  0.00    -0.199 A  
HETATM    6  O   UNL     1     -10.098  13.068  67.340  1.00  0.00    -0.227 OA 
HETATM    7  C   UNL     1      -9.410  15.141  68.361  1.00  0.00    -0.197 A  
HETATM    8  H   UNL     1     -10.864  13.522  67.008  1.00  0.00     0.000 HD 
HETATM    9  C   UNL     1      -8.488  15.810  69.178  1.00  0.00    -0.251 A  
HETATM   10  C   UNL     1      -7.349  15.146  69.648  1.00  0.00    -0.191 A  
BRANCH   7  11
HETATM   11  C   UNL     1     -10.615  15.851  67.842  1.00  0.00    -0.300 C  
HETATM   12  O   UNL     1     -11.706  15.285  67.852  1.00  0.00    -0.328 OA 
BRANCH  11  13
HETATM   13  C   UNL     1     -10.568  17.268  67.370  1.00  0.00    -0.303 A  
HETATM   14  C   UNL     1     -10.380  18.269  68.335  1.00  0.00    -0.366 A  
HETATM   15  C   UNL     1     -10.290  19.611  67.963  1.00  0.00    -0.579 A  
HETATM   16  C   UNL     1     -10.388  19.965  66.620  1.00  0.00    -0.608 A  
HETATM   17  C   UNL     1     -10.607  18.982  65.653  1.00  0.00    -0.273 A  
HETATM   18  C   UNL     1     -10.714  17.638  66.027  1.00  0.00    -0.117 A  
ENDBRANCH  11  13
ENDBRANCH   7  11
ENDBRANCH   2   3
TORSDOF 3
ENDMDL
MODEL      177
REMARK 921   NORMALIZED FREE ENERGY PREDICTED BY IDOCK:   -3.52 KCAL/MOL
REMARK 922        TOTAL FREE ENERGY PREDICTED BY IDOCK:   -4.52 KCAL/MOL
REMARK 923 INTER-LIGAND FREE ENERGY PREDICTED BY IDOCK:   -3.78 KCAL/MOL
REMARK 924 INTRA-LIGAND FREE ENERGY PREDICTED BY IDOCK:   -0.74 KCAL/MOL
REMARK 927      BINDING AFFINITY PREDICTED BY RF-SCORE:    0.00 PKD
ROOT
HETATM    1  C   UNL     1     -11.649  15.049  67.351  1.00  0.00    -0.291 C  
HETATM    2  O   UNL     1     -10.613  14.259  66.768  1.00  0.00    -0.275 OA 
ENDROOT
BRANCH   2   3
HETATM    3  C   UNL     1     -10.379  13.065  67.395  1.00  0.00    -0.234 A  
HETATM    4  C   UNL     1     -11.093  12.600  68.497  1.00  0.00    -0.300 A  
HETATM    5  C   UNL     1     -10.732  11.395  69.106  1.00  0.00    -0.189 A  
HETATM    6  O   UNL     1     -11.419  11.009  70.224  1.00  0.00    -0.334 OA 
HETATM    7  C   UNL     1      -9.669  10.628  68.610  1.00  0.00    -0.178 A  
HETATM    8  H   UNL     1     -11.173  10.190  70.638  1.00  0.00     0.000 HD 
HETATM    9  C   UNL     1      -9.019  11.058  67.444  1.00  0.00    -0.141 A  
HETATM   10  C   UNL     1      -9.367  12.276  66.849  1.00  0.00    -0.210 A  
BRANCH   7  11
HETATM   11  C   UNL     1      -9.288   9.340  69.258  1.00  0.00    -0.160 C  
HETATM   12  O   UNL     1      -8.854   9.342  70.408  1.00  0.00    -0.217 OA 
BRANCH  11  13
HETATM   13  C   UNL     1      -9.482   8.019  68.587  1.00  0.00    -0.147 A  
HETATM   14  C   UNL     1     -10.651   7.838  67.832  1.00  0.00    -0.221 A  
HETATM   15  C   UNL     1     -10.881   6.643  67.149  1.00  0.00    -0.471 A  
HETATM   16  C   UNL     1      -9.945   5.616  67.215  1.00  0.00    -0.182 A  
HETATM   17  C   UNL     1      -8.793   5.770  67.990  1.00  0.00    -0.109 A  
HETATM   18  C   UNL     1      -8.568   6.962  68.688  1.00  0.00    -0.123 A  
ENDBRANCH  11  13
ENDBRANCH   7  11
ENDBRANCH   2   3
TORSDOF 3
ENDMDL
MODEL      178
REMARK 921   NORMALIZED FREE ENERGY PREDICTED BY IDOCK:   -3.51 KCAL/MOL
REMARK 922        TOTAL FREE ENERGY PREDICTED BY IDOCK:   -4.52 KCAL/MOL
REMARK 923 INTER-LIGAND FREE ENERGY PREDICTED BY IDOCK:   -3.95 KCAL/MOL
REMARK 924 INTRA-LIGAND FREE ENERGY PREDICTED BY IDOCK:   -0.57 KCAL/MOL
REMARK 927      BINDING AFFINITY PREDICTED BY RF-SCORE:    0.00 PKD
ROOT
HETATM    1  C   UNL     1      -5.415  13.537  69.021  1.00  0.00    -0.073 C  
HETATM    2  O   UNL     1      -6.623  13.662  68.271  1.00  0.00    -0.085 OA 
ENDROOT
BRANCH   2   3
HETATM    3  C   UNL     1      -7.536  12.665  68.483  1.00  0.00    -0.121 A  
HETATM    4  C   UNL     1      -7.230  11.417  69.023  1.00  0.00    -0.118 A  
HETATM    5  C   UNL     1      -8.226  10.443  69.137  1.00  0.00    -0.157 A  
HETATM    6  O   UNL     1      -7.867   9.211  69.612  1.00  0.00    -0.075 OA 
HETATM    7  C   UNL     1      -9.543  10.708  68.738  1.00  0.00    -0.190 A  
HETATM    8  H   UNL     1      -8.544   8.549  69.690  1.00  0.00     0.000 HD 
HETATM    9  C   UNL     1      -9.859  11.997  68.286  1.00  0.00    -0.204 A  
HETATM   10  C   UNL     1      -8.857  12.965  68.150  1.00  0.00    -0.194 A  
BRANCH   7  11
HETATM   11  C   UNL     1     -10.605   9.669  68.866  1.00  0.00    -0.217 C  
HETATM   12  O   UNL     1     -10.752   8.836  67.975  1.00  0.00    -0.190 OA 
BRANCH  11  13
HETATM   13  C   UNL     1     -11.463   9.548  70.084  1.00  0.00    -0.205 A  
HETATM   14  C   UNL     1     -11.422   8.337  70.792  1.00  0.00    -0.268 A  
HETATM   15  C   UNL     1     -12.169   8.166  71.957  1.00  0.00    -0.385 A  
HETATM   16  C   UNL     1     -12.966   9.206  72.427  1.00  0.00    -0.468 A  
HETATM   17  C   UNL     1     -13.042  10.404  71.715  1.00  0.00    -0.567 A  
HETATM   18  C   UNL     1     -12.306  10.571  70.537  1.00  0.00    -0.432 A  
ENDBRANCH  11  13
ENDBRANCH   7  11
ENDBRANCH   2   3
TORSDOF 3
ENDMDL
MODEL      179
REMARK 921   NORMALIZED FREE ENERGY PREDICTED BY IDOCK:   -3.51 KCAL/MOL
REMARK 922        TOTAL FREE ENERGY PREDICTED BY IDOCK:   -4.51 KCAL/MOL
REMARK 923 INTER-LIGAND FREE ENERGY PREDICTED BY IDOCK:   -3.85 KCAL/MOL
REMARK 924 INTRA-LIGAND FREE ENERGY PREDICTED BY IDOCK:   -0.66 KCAL/MOL
REMARK 927      BINDING AFFINITY PREDICTED BY RF-SCORE:    0.00 PKD
ROOT
HETATM    1  C   UNL     1      -8.427   7.334  74.495  1.00  0.00    -0.199 C  
HETATM    2  O   UNL     1      -9.482   8.091  73.901  1.00  0.00    -0.140 OA 
ENDROOT
BRANCH   2   3
HETATM    3  C   UNL     1      -9.780   7.748  72.611  1.00  0.00    -0.218 A  
HETATM    4  C   UNL     1     -11.066   7.491  72.140  1.00  0.00    -0.300 A  
HETATM    5  C   UNL     1     -11.257   7.082  70.817  1.00  0.00    -0.285 A  
HETATM    6  O   UNL     1     -12.530   6.778  70.417  1.00  0.00    -0.574 OA 
HETATM    7  C   UNL     1     -10.172   6.947  69.941  1.00  0.00    -0.214 A  
HETATM    8  H   UNL     1     -12.659   6.501  69.518  1.00  0.00     0.000 HD 
HETATM    9  C   UNL     1      -8.894   7.300  70.398  1.00  0.00    -0.150 A  
HETATM   10  C   UNL     1      -8.701   7.687  71.729  1.00  0.00    -0.137 A  
BRANCH   7  11
HETATM   11  C   UNL     1     -10.378   6.516  68.529  1.00  0.00    -0.192 C  
HETATM   12  O   UNL     1     -10.846   7.307  67.713  1.00  0.00    -0.205 OA 
BRANCH  11  13
HETATM   13  C   UNL     1      -9.967   5.166  68.036  1.00  0.00    -0.200 A  
HETATM   14  C   UNL     1      -9.909   4.970  66.648  1.00  0.00    -0.215 A  
HETATM   15  C   UNL     1      -9.498   3.746  66.118  1.00  0.00    -0.184 A  
HETATM   16  C   UNL     1      -9.142   2.706  66.971  1.00  0.00    -0.171 A  
HETATM   17  C   UNL     1      -9.228   2.877  68.354  1.00  0.00    -0.245 A  
HETATM   18  C   UNL     1      -9.654   4.098  68.888  1.00  0.00    -0.222 A  
ENDBRANCH  11  13
ENDBRANCH   7  11
ENDBRANCH   2   3
TORSDOF 3
ENDMDL
MODEL      180
REMARK 921   NORMALIZED FREE ENERGY PREDICTED BY IDOCK:   -3.51 KCAL/MOL
REMARK 922        TOTAL FREE ENERGY PREDICTED BY IDOCK:   -4.51 KCAL/MOL
REMARK 923 INTER-LIGAND FREE ENERGY PREDICTED BY IDOCK:   -3.78 KCAL/MOL
REMARK 924 INTRA-LIGAND FREE ENERGY PREDICTED BY IDOCK:   -0.73 KCAL/MOL
REMARK 927      BINDING AFFINITY PREDICTED BY RF-SCORE:    0.00 PKD
ROOT
HETATM    1  C   UNL     1     -11.189   3.995  73.233  1.00  0.00    -0.177 C  
HETATM    2  O   UNL     1     -10.965   5.296  73.779  1.00  0.00    -0.295 OA 
ENDROOT
BRANCH   2   3
HETATM    3  C   UNL     1     -10.383   6.187  72.920  1.00  0.00    -0.198 A  
HETATM    4  C   UNL     1      -9.327   5.882  72.063  1.00  0.00    -0.160 A  
HETATM    5  C   UNL     1      -8.758   6.884  71.271  1.00  0.00    -0.134 A  
HETATM    6  O   UNL     1      -7.683   6.554  70.493  1.00  0.00    -0.100 OA 
HETATM    7  C   UNL     1      -9.250   8.196  71.306  1.00  0.00    -0.193 A  
HETATM    8  H   UNL     1      -7.297   7.235  69.954  1.00  0.00     0.000 HD 
HETATM    9  C   UNL     1     -10.373   8.470  72.100  1.00  0.00    -0.409 A  
HETATM   10  C   UNL     1     -10.926   7.471  72.910  1.00  0.00    -0.434 A  
BRANCH   7  11
HETATM   11  C   UNL     1      -8.645   9.262  70.456  1.00  0.00    -0.233 C  
HETATM   12  O   UNL     1      -7.512   9.668  70.704  1.00  0.00    -0.190 OA 
BRANCH  11  13
HETATM   13  C   UNL     1      -9.338   9.815  69.253  1.00  0.00    -0.198 A  
HETATM   14  C   UNL     1      -9.324  11.207  69.076  1.00  0.00    -0.065 A  
HETATM   15  C   UNL     1      -9.920  11.789  67.957  1.00  0.00    -0.191 A  
HETATM   16  C   UNL     1     -10.538  10.984  67.004  1.00  0.00    -0.303 A  
HETATM   17  C   UNL     1     -10.589   9.601  67.185  1.00  0.00    -0.298 A  
HETATM   18  C   UNL     1     -10.005   9.017  68.314  1.00  0.00    -0.198 A  
ENDBRANCH  11  13
ENDBRANCH   7  11
ENDBRANCH   2   3
TORSDOF 3
ENDMDL
MODEL      181
REMARK 921   NORMALIZED FREE ENERGY PREDICTED BY IDOCK:   -3.48 KCAL/MOL
REMARK 922        TOTAL FREE ENERGY PREDICTED BY IDOCK:   -4.48 KCAL/MOL
REMARK 923 INTER-LIGAND FREE ENERGY PREDICTED BY IDOCK:   -3.78 KCAL/MOL
REMARK 924 INTRA-LIGAND FREE ENERGY PREDICTED BY IDOCK:   -0.69 KCAL/MOL
REMARK 927      BINDING AFFINITY PREDICTED BY RF-SCORE:    0.00 PKD
ROOT
HETATM    1  C   UNL     1      -8.338  12.036  67.137  1.00  0.00    -0.181 C  
HETATM    2  O   UNL     1      -9.489  11.330  66.672  1.00  0.00    -0.179 OA 
ENDROOT
BRANCH   2   3
HETATM    3  C   UNL     1      -9.796  10.201  67.382  1.00  0.00    -0.187 A  
HETATM    4  C   UNL     1     -10.295   9.027  66.821  1.00  0.00    -0.310 A  
HETATM    5  C   UNL     1     -10.640   7.951  67.643  1.00  0.00    -0.206 A  
HETATM    6  O   UNL     1     -11.186   6.843  67.055  1.00  0.00    -0.562 OA 
HETATM    7  C   UNL     1     -10.471   8.023  69.032  1.00  0.00    -0.212 A  
HETATM    8  H   UNL     1     -11.420   6.112  67.614  1.00  0.00     0.000 HD 
HETATM    9  C   UNL     1      -9.880   9.172  69.577  1.00  0.00    -0.182 A  
HETATM   10  C   UNL     1      -9.556  10.258  68.755  1.00  0.00    -0.175 A  
BRANCH   7  11
HETATM   11  C   UNL     1     -10.836   6.872  69.908  1.00  0.00    -0.257 C  
HETATM   12  O   UNL     1     -12.019   6.591  70.082  1.00  0.00    -0.383 OA 
BRANCH  11  13
HETATM   13  C   UNL     1      -9.807   5.985  70.532  1.00  0.00    -0.222 A  
HETATM   14  C   UNL     1     -10.201   5.205  71.630  1.00  0.00    -0.276 A  
HETATM   15  C   UNL     1      -9.303   4.328  72.240  1.00  0.00    -0.168 A  
HETATM   16  C   UNL     1      -8.001   4.224  71.759  1.00  0.00    -0.087 A  
HETATM   17  C   UNL     1      -7.587   5.020  70.689  1.00  0.00    -0.070 A  
HETATM   18  C   UNL     1      -8.481   5.910  70.086  1.00  0.00    -0.126 A  
ENDBRANCH  11  13
ENDBRANCH   7  11
ENDBRANCH   2   3
TORSDOF 3
ENDMDL
MODEL      182
REMARK 921   NORMALIZED FREE ENERGY PREDICTED BY IDOCK:   -3.48 KCAL/MOL
REMARK 922        TOTAL FREE ENERGY PREDICTED BY IDOCK:   -4.47 KCAL/MOL
REMARK 923 INTER-LIGAND FREE ENERGY PREDICTED BY IDOCK:   -3.91 KCAL/MOL
REMARK 924 INTRA-LIGAND FREE ENERGY PREDICTED BY IDOCK:   -0.56 KCAL/MOL
REMARK 927      BINDING AFFINITY PREDICTED BY RF-SCORE:    0.00 PKD
ROOT
HETATM    1  C   UNL     1     -11.982   5.203  72.935  1.00  0.00     0.025 C  
HETATM    2  O   UNL     1     -12.708   6.117  72.114  1.00  0.00    -0.158 OA 
ENDROOT
BRANCH   2   3
HETATM    3  C   UNL     1     -11.949   7.095  71.532  1.00  0.00    -0.326 A  
HETATM    4  C   UNL     1     -12.199   8.462  71.647  1.00  0.00    -0.358 A  
HETATM    5  C   UNL     1     -11.400   9.378  70.958  1.00  0.00    -0.337 A  
HETATM    6  O   UNL     1     -11.721  10.705  71.048  1.00  0.00    -0.325 OA 
HETATM    7  C   UNL     1     -10.328   8.946  70.165  1.00  0.00    -0.228 A  
HETATM    8  H   UNL     1     -11.178  11.327  70.580  1.00  0.00     0.000 HD 
HETATM    9  C   UNL     1     -10.028   7.577  70.132  1.00  0.00    -0.192 A  
HETATM   10  C   UNL     1     -10.842   6.658  70.804  1.00  0.00    -0.299 A  
BRANCH   7  11
HETATM   11  C   UNL     1      -9.474   9.926  69.434  1.00  0.00    -0.213 C  
HETATM   12  O   UNL     1      -8.508  10.432  70.000  1.00  0.00    -0.012 OA 
BRANCH  11  13
HETATM   13  C   UNL     1      -9.701  10.270  67.998  1.00  0.00    -0.167 A  
HETATM   14  C   UNL     1     -10.601  11.309  67.712  1.00  0.00    -0.239 A  
HETATM   15  C   UNL     1     -10.835  11.707  66.395  1.00  0.00    -0.333 A  
HETATM   16  C   UNL     1     -10.171  11.070  65.351  1.00  0.00    -0.333 A  
HETATM   17  C   UNL     1      -9.299  10.013  65.619  1.00  0.00    -0.257 A  
HETATM   18  C   UNL     1      -9.075   9.602  66.937  1.00  0.00    -0.160 A  
ENDBRANCH  11  13
ENDBRANCH   7  11
ENDBRANCH   2   3
TORSDOF 3
ENDMDL
MODEL      183
REMARK 921   NORMALIZED FREE ENERGY PREDICTED BY IDOCK:   -3.46 KCAL/MOL
REMARK 922        TOTAL FREE ENERGY PREDICTED BY IDOCK:   -4.46 KCAL/MOL
REMARK 923 INTER-LIGAND FREE ENERGY PREDICTED BY IDOCK:   -3.92 KCAL/MOL
REMARK 924 INTRA-LIGAND FREE ENERGY PREDICTED BY IDOCK:   -0.53 KCAL/MOL
REMARK 927      BINDING AFFINITY PREDICTED BY RF-SCORE:    0.00 PKD
ROOT
HETATM    1  C   UNL     1      -7.935  10.391  67.769  1.00  0.00    -0.102 C  
HETATM    2  O   UNL     1      -8.513   9.095  67.609  1.00  0.00    -0.116 OA 
ENDROOT
BRANCH   2   3
HETATM    3  C   UNL     1      -9.107   8.588  68.732  1.00  0.00    -0.143 A  
HETATM    4  C   UNL     1     -10.334   7.927  68.746  1.00  0.00    -0.220 A  
HETATM    5  C   UNL     1     -10.886   7.504  69.959  1.00  0.00    -0.249 A  
HETATM    6  O   UNL     1     -12.122   6.919  69.931  1.00  0.00    -0.635 OA 
HETATM    7  C   UNL     1     -10.211   7.713  71.169  1.00  0.00    -0.207 A  
HETATM    8  H   UNL     1     -12.497   6.631  70.755  1.00  0.00     0.000 HD 
HETATM    9  C   UNL     1      -8.935   8.292  71.133  1.00  0.00    -0.192 A  
HETATM   10  C   UNL     1      -8.393   8.736  69.921  1.00  0.00    -0.125 A  
BRANCH   7  11
HETATM   11  C   UNL     1     -10.799   7.256  72.461  1.00  0.00    -0.272 C  
HETATM   12  O   UNL     1     -11.647   7.947  73.021  1.00  0.00    -0.351 OA 
BRANCH  11  13
HETATM   13  C   UNL     1     -10.452   5.939  73.076  1.00  0.00    -0.247 A  
HETATM   14  C   UNL     1      -9.117   5.729  73.455  1.00  0.00    -0.132 A  
HETATM   15  C   UNL     1      -8.729   4.538  74.068  1.00  0.00    -0.104 A  
HETATM   16  C   UNL     1      -9.673   3.542  74.307  1.00  0.00    -0.144 A  
HETATM   17  C   UNL     1     -10.997   3.725  73.905  1.00  0.00    -0.276 A  
HETATM   18  C   UNL     1     -11.385   4.913  73.276  1.00  0.00    -0.408 A  
ENDBRANCH  11  13
ENDBRANCH   7  11
ENDBRANCH   2   3
TORSDOF 3
ENDMDL
MODEL      184
REMARK 921   NORMALIZED FREE ENERGY PREDICTED BY IDOCK:   -3.44 KCAL/MOL
REMARK 922        TOTAL FREE ENERGY PREDICTED BY IDOCK:   -4.43 KCAL/MOL
REMARK 923 INTER-LIGAND FREE ENERGY PREDICTED BY IDOCK:   -3.71 KCAL/MOL
REMARK 924 INTRA-LIGAND FREE ENERGY PREDICTED BY IDOCK:   -0.72 KCAL/MOL
REMARK 927      BINDING AFFINITY PREDICTED BY RF-SCORE:    0.00 PKD
ROOT
HETATM    1  C   UNL     1      -6.318   1.973  71.622  1.00  0.00    -0.015 C  
HETATM    2  O   UNL     1      -7.066   2.807  70.736  1.00  0.00    -0.033 OA 
ENDROOT
BRANCH   2   3
HETATM    3  C   UNL     1      -7.431   4.018  71.257  1.00  0.00    -0.051 A  
HETATM    4  C   UNL     1      -7.269   4.383  72.593  1.00  0.00    -0.072 A  
HETATM    5  C   UNL     1      -7.737   5.622  73.040  1.00  0.00    -0.101 A  
HETATM    6  O   UNL     1      -7.615   5.911  74.371  1.00  0.00    -0.091 OA 
HETATM    7  C   UNL     1      -8.350   6.521  72.157  1.00  0.00    -0.107 A  
HETATM    8  H   UNL     1      -7.933   6.753  74.675  1.00  0.00     0.000 HD 
HETATM    9  C   UNL     1      -8.421   6.184  70.798  1.00  0.00    -0.131 A  
HETATM   10  C   UNL     1      -7.973   4.934  70.356  1.00  0.00    -0.070 A  
BRANCH   7  11
HETATM   11  C   UNL     1      -8.843   7.845  72.635  1.00  0.00    -0.178 C  
HETATM   12  O   UNL     1      -8.124   8.541  73.348  1.00  0.00    -0.373 OA 
BRANCH  11  13
HETATM   13  C   UNL     1     -10.166   8.403  72.219  1.00  0.00    -0.396 A  
HETATM   14  C   UNL     1     -10.165   9.454  71.289  1.00  0.00    -0.340 A  
HETATM   15  C   UNL     1     -11.364   9.999  70.829  1.00  0.00    -0.439 A  
HETATM   16  C   UNL     1     -12.576   9.500  71.296  1.00  0.00    -0.425 A  
HETATM   17  C   UNL     1     -12.590   8.478  72.247  1.00  0.00    -0.438 A  
HETATM   18  C   UNL     1     -11.389   7.940  72.721  1.00  0.00    -0.453 A  
ENDBRANCH  11  13
ENDBRANCH   7  11
ENDBRANCH   2   3
TORSDOF 3
ENDMDL
MODEL      185
REMARK 921   NORMALIZED FREE ENERGY PREDICTED BY IDOCK:   -3.44 KCAL/MOL
REMARK 922        TOTAL FREE ENERGY PREDICTED BY IDOCK:   -4.43 KCAL/MOL
REMARK 923 INTER-LIGAND FREE ENERGY PREDICTED BY IDOCK:   -3.70 KCAL/MOL
REMARK 924 INTRA-LIGAND FREE ENERGY PREDICTED BY IDOCK:   -0.74 KCAL/MOL
REMARK 927      BINDING AFFINITY PREDICTED BY RF-SCORE:    0.00 PKD
ROOT
HETATM    1  C   UNL     1      -5.417  11.930  68.638  1.00  0.00    -0.049 C  
HETATM    2  O   UNL     1      -6.796  11.994  69.002  1.00  0.00    -0.098 OA 
ENDROOT
BRANCH   2   3
HETATM    3  C   UNL     1      -7.498  13.013  68.418  1.00  0.00    -0.128 A  
HETATM    4  C   UNL     1      -8.266  12.881  67.262  1.00  0.00    -0.176 A  
HETATM    5  C   UNL     1      -8.892  14.001  66.708  1.00  0.00    -0.157 A  
HETATM    6  O   UNL     1      -9.581  13.837  65.538  1.00  0.00    -0.509 OA 
HETATM    7  C   UNL     1      -8.781  15.261  67.312  1.00  0.00    -0.216 A  
HETATM    8  H   UNL     1     -10.007  14.598  65.161  1.00  0.00     0.000 HD 
HETATM    9  C   UNL     1      -8.086  15.364  68.525  1.00  0.00    -0.142 A  
HETATM   10  C   UNL     1      -7.440  14.246  69.067  1.00  0.00    -0.102 A  
BRANCH   7  11
HETATM   11  C   UNL     1      -9.454  16.453  66.721  1.00  0.00    -0.247 C  
HETATM   12  O   UNL     1     -10.667  16.433  66.526  1.00  0.00    -0.270 OA 
BRANCH  11  13
HETATM   13  C   UNL     1      -8.719  17.719  66.420  1.00  0.00    -0.255 A  
HETATM   14  C   UNL     1      -9.290  18.924  66.860  1.00  0.00    -0.333 A  
HETATM   15  C   UNL     1      -8.641  20.140  66.645  1.00  0.00    -0.352 A  
HETATM   16  C   UNL     1      -7.415  20.165  65.986  1.00  0.00    -0.300 A  
HETATM   17  C   UNL     1      -6.853  18.977  65.514  1.00  0.00    -0.274 A  
HETATM   18  C   UNL     1      -7.509  17.758  65.715  1.00  0.00    -0.086 A  
ENDBRANCH  11  13
ENDBRANCH   7  11
ENDBRANCH   2   3
TORSDOF 3
ENDMDL
MODEL      186
REMARK 921   NORMALIZED FREE ENERGY PREDICTED BY IDOCK:   -3.44 KCAL/MOL
REMARK 922        TOTAL FREE ENERGY PREDICTED BY IDOCK:   -4.43 KCAL/MOL
REMARK 923 INTER-LIGAND FREE ENERGY PREDICTED BY IDOCK:   -3.69 KCAL/MOL
REMARK 924 INTRA-LIGAND FREE ENERGY PREDICTED BY IDOCK:   -0.74 KCAL/MOL
REMARK 927      BINDING AFFINITY PREDICTED BY RF-SCORE:    0.00 PKD
ROOT
HETATM    1  C   UNL     1      -8.761  12.703  67.790  1.00  0.00    -0.179 C  
HETATM    2  O   UNL     1      -9.998  12.273  68.360  1.00  0.00    -0.215 OA 
ENDROOT
BRANCH   2   3
HETATM    3  C   UNL     1     -10.145  10.916  68.456  1.00  0.00    -0.183 A  
HETATM    4  C   UNL     1     -10.106  10.200  69.652  1.00  0.00    -0.265 A  
HETATM    5  C   UNL     1     -10.201   8.806  69.635  1.00  0.00    -0.210 A  
HETATM    6  O   UNL     1     -10.092   8.141  70.825  1.00  0.00    -0.188 OA 
HETATM    7  C   UNL     1     -10.361   8.110  68.429  1.00  0.00    -0.236 A  
HETATM    8  H   UNL     1     -10.158   7.193  70.813  1.00  0.00     0.000 HD 
HETATM    9  C   UNL     1     -10.495   8.845  67.243  1.00  0.00    -0.348 A  
HETATM   10  C   UNL     1     -10.376  10.240  67.258  1.00  0.00    -0.284 A  
BRANCH   7  11
HETATM   11  C   UNL     1     -10.468   6.622  68.414  1.00  0.00    -0.211 C  
HETATM   12  O   UNL     1     -11.206   6.057  69.217  1.00  0.00    -0.384 OA 
BRANCH  11  13
HETATM   13  C   UNL     1      -9.762   5.780  67.400  1.00  0.00    -0.133 A  
HETATM   14  C   UNL     1      -8.359   5.800  67.401  1.00  0.00    -0.104 A  
HETATM   15  C   UNL     1      -7.634   5.011  66.507  1.00  0.00    -0.088 A  
HETATM   16  C   UNL     1      -8.306   4.195  65.601  1.00  0.00    -0.109 A  
HETATM   17  C   UNL     1      -9.702   4.192  65.567  1.00  0.00    -0.202 A  
HETATM   18  C   UNL     1     -10.430   4.994  66.453  1.00  0.00    -0.349 A  
ENDBRANCH  11  13
ENDBRANCH   7  11
ENDBRANCH   2   3
TORSDOF 3
ENDMDL
MODEL      187
REMARK 921   NORMALIZED FREE ENERGY PREDICTED BY IDOCK:   -3.39 KCAL/MOL
REMARK 922        TOTAL FREE ENERGY PREDICTED BY IDOCK:   -4.37 KCAL/MOL
REMARK 923 INTER-LIGAND FREE ENERGY PREDICTED BY IDOCK:   -3.63 KCAL/MOL
REMARK 924 INTRA-LIGAND FREE ENERGY PREDICTED BY IDOCK:   -0.74 KCAL/MOL
REMARK 927      BINDING AFFINITY PREDICTED BY RF-SCORE:    0.00 PKD
ROOT
HETATM    1  C   UNL     1      -8.538  10.914  67.415  1.00  0.00    -0.127 C  
HETATM    2  O   UNL     1      -9.245  10.326  66.323  1.00  0.00    -0.153 OA 
ENDROOT
BRANCH   2   3
HETATM    3  C   UNL     1      -9.425   8.973  66.417  1.00  0.00    -0.226 A  
HETATM    4  C   UNL     1     -10.514   8.363  67.038  1.00  0.00    -0.375 A  
HETATM    5  C   UNL     1     -10.571   6.970  67.138  1.00  0.00    -0.341 A  
HETATM    6  O   UNL     1     -11.625   6.418  67.812  1.00  0.00    -0.622 OA 
HETATM    7  C   UNL     1      -9.556   6.168  66.600  1.00  0.00    -0.181 A  
HETATM    8  H   UNL     1     -11.663   5.471  67.880  1.00  0.00     0.000 HD 
HETATM    9  C   UNL     1      -8.514   6.787  65.895  1.00  0.00    -0.146 A  
HETATM   10  C   UNL     1      -8.447   8.183  65.815  1.00  0.00    -0.162 A  
BRANCH   7  11
HETATM   11  C   UNL     1      -9.621   4.681  66.704  1.00  0.00    -0.182 C  
HETATM   12  O   UNL     1      -9.668   4.150  67.811  1.00  0.00    -0.166 OA 
BRANCH  11  13
HETATM   13  C   UNL     1      -9.707   3.799  65.500  1.00  0.00    -0.151 A  
HETATM   14  C   UNL     1      -8.823   2.711  65.427  1.00  0.00    -0.129 A  
HETATM   15  C   UNL     1      -8.872   1.825  64.349  1.00  0.00    -0.102 A  
HETATM   16  C   UNL     1      -9.804   2.019  63.334  1.00  0.00    -0.116 A  
HETATM   17  C   UNL     1     -10.666   3.117  63.379  1.00  0.00    -0.244 A  
HETATM   18  C   UNL     1     -10.609   4.015  64.450  1.00  0.00    -0.206 A  
ENDBRANCH  11  13
ENDBRANCH   7  11
ENDBRANCH   2   3
TORSDOF 3
ENDMDL
MODEL      188
REMARK 921   NORMALIZED FREE ENERGY PREDICTED BY IDOCK:   -3.38 KCAL/MOL
REMARK 922        TOTAL FREE ENERGY PREDICTED BY IDOCK:   -4.36 KCAL/MOL
REMARK 923 INTER-LIGAND FREE ENERGY PREDICTED BY IDOCK:   -3.77 KCAL/MOL
REMARK 924 INTRA-LIGAND FREE ENERGY PREDICTED BY IDOCK:   -0.59 KCAL/MOL
REMARK 927      BINDING AFFINITY PREDICTED BY RF-SCORE:    0.00 PKD
ROOT
HETATM    1  C   UNL     1     -10.476   9.841  67.285  1.00  0.00    -0.261 C  
HETATM    2  O   UNL     1      -9.891  10.864  66.479  1.00  0.00    -0.193 OA 
ENDROOT
BRANCH   2   3
HETATM    3  C   UNL     1      -9.557  12.006  67.153  1.00  0.00    -0.192 A  
HETATM    4  C   UNL     1     -10.361  12.621  68.112  1.00  0.00    -0.238 A  
HETATM    5  C   UNL     1      -9.956  13.824  68.696  1.00  0.00    -0.174 A  
HETATM    6  O   UNL     1     -10.807  14.424  69.583  1.00  0.00    -0.384 OA 
HETATM    7  C   UNL     1      -8.735  14.418  68.350  1.00  0.00    -0.180 A  
HETATM    8  H   UNL     1     -10.531  15.242  69.981  1.00  0.00     0.000 HD 
HETATM    9  C   UNL     1      -7.891  13.743  67.456  1.00  0.00    -0.189 A  
HETATM   10  C   UNL     1      -8.307  12.550  66.855  1.00  0.00    -0.097 A  
BRANCH   7  11
HETATM   11  C   UNL     1      -8.302  15.699  68.979  1.00  0.00    -0.235 C  
HETATM   12  O   UNL     1      -7.741  15.682  70.071  1.00  0.00     0.027 OA 
BRANCH  11  13
HETATM   13  C   UNL     1      -8.458  17.018  68.294  1.00  0.00    -0.233 A  
HETATM   14  C   UNL     1      -7.322  17.575  67.686  1.00  0.00    -0.192 A  
HETATM   15  C   UNL     1      -7.403  18.786  66.998  1.00  0.00    -0.224 A  
HETATM   16  C   UNL     1      -8.621  19.454  66.912  1.00  0.00    -0.325 A  
HETATM   17  C   UNL     1      -9.751  18.929  67.541  1.00  0.00    -0.360 A  
HETATM   18  C   UNL     1      -9.669  17.722  68.244  1.00  0.00    -0.320 A  
ENDBRANCH  11  13
ENDBRANCH   7  11
ENDBRANCH   2   3
TORSDOF 3
ENDMDL
MODEL      189
REMARK 921   NORMALIZED FREE ENERGY PREDICTED BY IDOCK:   -3.38 KCAL/MOL
REMARK 922        TOTAL FREE ENERGY PREDICTED BY IDOCK:   -4.35 KCAL/MOL
REMARK 923 INTER-LIGAND FREE ENERGY PREDICTED BY IDOCK:   -3.70 KCAL/MOL
REMARK 924 INTRA-LIGAND FREE ENERGY PREDICTED BY IDOCK:   -0.65 KCAL/MOL
REMARK 927      BINDING AFFINITY PREDICTED BY RF-SCORE:    0.00 PKD
ROOT
HETATM    1  C   UNL     1     -12.714  10.795  70.842  1.00  0.00    -0.384 C  
HETATM    2  O   UNL     1     -13.114   9.430  70.968  1.00  0.00    -0.265 OA 
ENDROOT
BRANCH   2   3
HETATM    3  C   UNL     1     -12.186   8.610  71.548  1.00  0.00    -0.318 A  
HETATM    4  C   UNL     1     -10.966   9.043  72.067  1.00  0.00    -0.355 A  
HETATM    5  C   UNL     1     -10.057   8.113  72.581  1.00  0.00    -0.309 A  
HETATM    6  O   UNL     1      -8.847   8.575  73.020  1.00  0.00    -0.321 OA 
HETATM    7  C   UNL     1     -10.361   6.746  72.605  1.00  0.00    -0.225 A  
HETATM    8  H   UNL     1      -8.229   7.944  73.369  1.00  0.00     0.000 HD 
HETATM    9  C   UNL     1     -11.628   6.333  72.169  1.00  0.00    -0.367 A  
HETATM   10  C   UNL     1     -12.529   7.261  71.633  1.00  0.00    -0.394 A  
BRANCH   7  11
HETATM   11  C   UNL     1      -9.392   5.757  73.158  1.00  0.00    -0.139 C  
HETATM   12  O   UNL     1      -9.261   5.648  74.375  1.00  0.00    -0.121 OA 
BRANCH  11  13
HETATM   13  C   UNL     1      -8.613   4.826  72.286  1.00  0.00    -0.121 A  
HETATM   14  C   UNL     1      -8.967   3.468  72.305  1.00  0.00    -0.130 A  
HETATM   15  C   UNL     1      -8.306   2.548  71.489  1.00  0.00    -0.080 A  
HETATM   16  C   UNL     1      -7.285   2.978  70.647  1.00  0.00    -0.033 A  
HETATM   17  C   UNL     1      -6.901   4.320  70.643  1.00  0.00    -0.033 A  
HETATM   18  C   UNL     1      -7.552   5.241  71.472  1.00  0.00    -0.102 A  
ENDBRANCH  11  13
ENDBRANCH   7  11
ENDBRANCH   2   3
TORSDOF 3
ENDMDL
MODEL      190
REMARK 921   NORMALIZED FREE ENERGY PREDICTED BY IDOCK:   -3.35 KCAL/MOL
REMARK 922        TOTAL FREE ENERGY PREDICTED BY IDOCK:   -4.32 KCAL/MOL
REMARK 923 INTER-LIGAND FREE ENERGY PREDICTED BY IDOCK:   -3.58 KCAL/MOL
REMARK 924 INTRA-LIGAND FREE ENERGY PREDICTED BY IDOCK:   -0.74 KCAL/MOL
REMARK 927      BINDING AFFINITY PREDICTED BY RF-SCORE:    0.00 PKD
ROOT
HETATM    1  C   UNL     1     -12.563   6.889  71.651  1.00  0.00    -0.367 C  
HETATM    2  O   UNL     1     -11.648   6.272  70.745  1.00  0.00    -0.344 OA 
ENDROOT
BRANCH   2   3
HETATM    3  C   UNL     1     -11.109   7.113  69.811  1.00  0.00    -0.210 A  
HETATM    4  C   UNL     1     -10.716   8.427  70.065  1.00  0.00    -0.236 A  
HETATM    5  C   UNL     1     -10.237   9.227  69.024  1.00  0.00    -0.206 A  
HETATM    6  O   UNL     1      -9.924  10.528  69.306  1.00  0.00    -0.212 OA 
HETATM    7  C   UNL     1     -10.121   8.721  67.722  1.00  0.00    -0.261 A  
HETATM    8  H   UNL     1      -9.598  11.071  68.599  1.00  0.00     0.000 HD 
HETATM    9  C   UNL     1     -10.429   7.372  67.497  1.00  0.00    -0.338 A  
HETATM   10  C   UNL     1     -10.930   6.578  68.536  1.00  0.00    -0.360 A  
BRANCH   7  11
HETATM   11  C   UNL     1      -9.605   9.575  66.614  1.00  0.00    -0.188 C  
HETATM   12  O   UNL     1     -10.122  10.668  66.396  1.00  0.00    -0.211 OA 
BRANCH  11  13
HETATM   13  C   UNL     1      -8.420   9.185  65.790  1.00  0.00    -0.152 A  
HETATM   14  C   UNL     1      -7.253   8.803  66.468  1.00  0.00    -0.081 A  
HETATM   15  C   UNL     1      -6.120   8.393  65.764  1.00  0.00    -0.048 A  
HETATM   16  C   UNL     1      -6.144   8.363  64.372  1.00  0.00    -0.065 A  
HETATM   17  C   UNL     1      -7.287   8.773  63.684  1.00  0.00    -0.103 A  
HETATM   18  C   UNL     1      -8.418   9.199  64.389  1.00  0.00    -0.198 A  
ENDBRANCH  11  13
ENDBRANCH   7  11
ENDBRANCH   2   3
TORSDOF 3
ENDMDL
MODEL      191
REMARK 921   NORMALIZED FREE ENERGY PREDICTED BY IDOCK:   -3.32 KCAL/MOL
REMARK 922        TOTAL FREE ENERGY PREDICTED BY IDOCK:   -4.29 KCAL/MOL
REMARK 923 INTER-LIGAND FREE ENERGY PREDICTED BY IDOCK:   -3.76 KCAL/MOL
REMARK 924 INTRA-LIGAND FREE ENERGY PREDICTED BY IDOCK:   -0.52 KCAL/MOL
REMARK 927      BINDING AFFINITY PREDICTED BY RF-SCORE:    0.00 PKD
ROOT
HETATM    1  C   UNL     1     -12.494  14.199  63.989  1.00  0.00    -0.163 C  
HETATM    2  O   UNL     1     -12.800  14.363  65.374  1.00  0.00    -0.518 OA 
ENDROOT
BRANCH   2   3
HETATM    3  C   UNL     1     -11.733  14.230  66.218  1.00  0.00    -0.393 A  
HETATM    4  C   UNL     1     -11.745  13.481  67.394  1.00  0.00    -0.419 A  
HETATM    5  C   UNL     1     -10.620  13.462  68.223  1.00  0.00    -0.254 A  
HETATM    6  O   UNL     1     -10.700  12.767  69.398  1.00  0.00    -0.439 OA 
HETATM    7  C   UNL     1      -9.461  14.171  67.879  1.00  0.00    -0.211 A  
HETATM    8  H   UNL     1      -9.935  12.754  69.961  1.00  0.00     0.000 HD 
HETATM    9  C   UNL     1      -9.426  14.842  66.649  1.00  0.00    -0.286 A  
HETATM   10  C   UNL     1     -10.561  14.879  65.831  1.00  0.00    -0.334 A  
BRANCH   7  11
HETATM   11  C   UNL     1      -8.259  14.145  68.763  1.00  0.00    -0.074 C  
HETATM   12  O   UNL     1      -8.084  15.049  69.576  1.00  0.00    -0.195 OA 
BRANCH  11  13
HETATM   13  C   UNL     1      -7.283  13.014  68.753  1.00  0.00    -0.082 A  
HETATM   14  C   UNL     1      -6.133  13.140  69.547  1.00  0.00    -0.114 A  
HETATM   15  C   UNL     1      -5.197  12.107  69.614  1.00  0.00    -0.073 A  
HETATM   16  C   UNL     1      -5.401  10.939  68.886  1.00  0.00    -0.040 A  
HETATM   17  C   UNL     1      -6.524  10.815  68.066  1.00  0.00    -0.062 A  
HETATM   18  C   UNL     1      -7.456  11.855  67.985  1.00  0.00    -0.107 A  
ENDBRANCH  11  13
ENDBRANCH   7  11
ENDBRANCH   2   3
TORSDOF 3
ENDMDL
MODEL      192
REMARK 921   NORMALIZED FREE ENERGY PREDICTED BY IDOCK:   -3.31 KCAL/MOL
REMARK 922        TOTAL FREE ENERGY PREDICTED BY IDOCK:   -4.28 KCAL/MOL
REMARK 923 INTER-LIGAND FREE ENERGY PREDICTED BY IDOCK:   -3.55 KCAL/MOL
REMARK 924 INTRA-LIGAND FREE ENERGY PREDICTED BY IDOCK:   -0.73 KCAL/MOL
REMARK 927      BINDING AFFINITY PREDICTED BY RF-SCORE:    0.00 PKD
ROOT
HETATM    1  C   UNL     1     -11.105   5.847  72.316  1.00  0.00    -0.280 C  
HETATM    2  O   UNL     1     -11.033   5.420  70.956  1.00  0.00    -0.179 OA 
ENDROOT
BRANCH   2   3
HETATM    3  C   UNL     1     -10.812   6.421  70.050  1.00  0.00    -0.307 A  
HETATM    4  C   UNL     1     -11.043   6.310  68.679  1.00  0.00    -0.409 A  
HETATM    5  C   UNL     1     -10.722   7.371  67.828  1.00  0.00    -0.179 A  
HETATM    6  O   UNL     1     -10.905   7.194  66.485  1.00  0.00    -0.482 OA 
HETATM    7  C   UNL     1     -10.189   8.564  68.335  1.00  0.00    -0.236 A  
HETATM    8  H   UNL     1     -10.687   7.916  65.907  1.00  0.00     0.000 HD 
HETATM    9  C   UNL     1     -10.050   8.700  69.723  1.00  0.00    -0.199 A  
HETATM   10  C   UNL     1     -10.350   7.628  70.572  1.00  0.00    -0.211 A  
BRANCH   7  11
HETATM   11  C   UNL     1      -9.851   9.697  67.426  1.00  0.00    -0.171 C  
HETATM   12  O   UNL     1     -10.751  10.304  66.850  1.00  0.00    -0.239 OA 
BRANCH  11  13
HETATM   13  C   UNL     1      -8.450  10.182  67.239  1.00  0.00    -0.125 A  
HETATM   14  C   UNL     1      -8.230  11.568  67.282  1.00  0.00    -0.155 A  
HETATM   15  C   UNL     1      -6.942  12.089  67.151  1.00  0.00    -0.134 A  
HETATM   16  C   UNL     1      -5.862  11.230  66.974  1.00  0.00    -0.091 A  
HETATM   17  C   UNL     1      -6.071   9.852  66.896  1.00  0.00    -0.063 A  
HETATM   18  C   UNL     1      -7.363   9.328  67.011  1.00  0.00    -0.091 A  
ENDBRANCH  11  13
ENDBRANCH   7  11
ENDBRANCH   2   3
TORSDOF 3
ENDMDL
MODEL      193
REMARK 921   NORMALIZED FREE ENERGY PREDICTED BY IDOCK:   -3.31 KCAL/MOL
REMARK 922        TOTAL FREE ENERGY PREDICTED BY IDOCK:   -4.28 KCAL/MOL
REMARK 923 INTER-LIGAND FREE ENERGY PREDICTED BY IDOCK:   -4.02 KCAL/MOL
REMARK 924 INTRA-LIGAND FREE ENERGY PREDICTED BY IDOCK:   -0.26 KCAL/MOL
REMARK 927      BINDING AFFINITY PREDICTED BY RF-SCORE:    0.00 PKD
ROOT
HETATM    1  C   UNL     1      -5.204  20.538  72.067  1.00  0.00    -0.175 C  
HETATM    2  O   UNL     1      -5.352  21.190  70.805  1.00  0.00    -0.561 OA 
ENDROOT
BRANCH   2   3
HETATM    3  C   UNL     1      -5.824  20.392  69.799  1.00  0.00    -0.356 A  
HETATM    4  C   UNL     1      -6.212  19.063  69.962  1.00  0.00    -0.179 A  
HETATM    5  C   UNL     1      -6.619  18.314  68.854  1.00  0.00    -0.245 A  
HETATM    6  O   UNL     1      -6.929  16.996  69.050  1.00  0.00    -0.209 OA 
HETATM    7  C   UNL     1      -6.667  18.886  67.576  1.00  0.00    -0.208 A  
HETATM    8  H   UNL     1      -7.206  16.487  68.297  1.00  0.00     0.000 HD 
HETATM    9  C   UNL     1      -6.366  20.248  67.439  1.00  0.00    -0.249 A  
HETATM   10  C   UNL     1      -5.937  20.992  68.545  1.00  0.00    -0.315 A  
BRANCH   7  11
HETATM   11  C   UNL     1      -7.107  18.086  66.396  1.00  0.00    -0.247 C  
HETATM   12  O   UNL     1      -6.382  18.013  65.407  1.00  0.00    -0.215 OA 
BRANCH  11  13
HETATM   13  C   UNL     1      -8.376  17.297  66.394  1.00  0.00    -0.315 A  
HETATM   14  C   UNL     1      -8.328  15.989  65.887  1.00  0.00     0.296 A  
HETATM   15  C   UNL     1      -9.467  15.182  65.887  1.00  0.00    -0.334 A  
HETATM   16  C   UNL     1     -10.666  15.676  66.392  1.00  0.00    -0.291 A  
HETATM   17  C   UNL     1     -10.735  16.987  66.868  1.00  0.00    -0.125 A  
HETATM   18  C   UNL     1      -9.598  17.802  66.855  1.00  0.00    -0.288 A  
ENDBRANCH  11  13
ENDBRANCH   7  11
ENDBRANCH   2   3
TORSDOF 3
ENDMDL
MODEL      194
REMARK 921   NORMALIZED FREE ENERGY PREDICTED BY IDOCK:   -3.31 KCAL/MOL
REMARK 922        TOTAL FREE ENERGY PREDICTED BY IDOCK:   -4.27 KCAL/MOL
REMARK 923 INTER-LIGAND FREE ENERGY PREDICTED BY IDOCK:   -3.77 KCAL/MOL
REMARK 924 INTRA-LIGAND FREE ENERGY PREDICTED BY IDOCK:   -0.50 KCAL/MOL
REMARK 927      BINDING AFFINITY PREDICTED BY RF-SCORE:    0.00 PKD
ROOT
HETATM    1  C   UNL     1     -10.869   3.729  73.278  1.00  0.00    -0.198 C  
HETATM    2  O   UNL     1     -10.400   3.969  71.951  1.00  0.00    -0.133 OA 
ENDROOT
BRANCH   2   3
HETATM    3  C   UNL     1     -10.078   5.272  71.682  1.00  0.00    -0.199 A  
HETATM    4  C   UNL     1     -10.769   6.375  72.181  1.00  0.00    -0.259 A  
HETATM    5  C   UNL     1     -10.399   7.665  71.793  1.00  0.00    -0.197 A  
HETATM    6  O   UNL     1     -11.146   8.713  72.256  1.00  0.00    -0.354 OA 
HETATM    7  C   UNL     1      -9.321   7.874  70.922  1.00  0.00    -0.162 A  
HETATM    8  H   UNL     1     -10.894   9.591  71.992  1.00  0.00     0.000 HD 
HETATM    9  C   UNL     1      -8.574   6.764  70.502  1.00  0.00    -0.142 A  
HETATM   10  C   UNL     1      -8.960   5.471  70.873  1.00  0.00    -0.153 A  
BRANCH   7  11
HETATM   11  C   UNL     1      -8.925   9.252  70.513  1.00  0.00    -0.250 C  
HETATM   12  O   UNL     1      -7.974   9.801  71.065  1.00  0.00    -0.242 OA 
BRANCH  11  13
HETATM   13  C   UNL     1      -9.597   9.978  69.393  1.00  0.00    -0.237 A  
HETATM   14  C   UNL     1      -9.053   9.838  68.107  1.00  0.00    -0.125 A  
HETATM   15  C   UNL     1      -9.649  10.458  67.009  1.00  0.00    -0.197 A  
HETATM   16  C   UNL     1     -10.796  11.228  67.186  1.00  0.00    -0.321 A  
HETATM   17  C   UNL     1     -11.327  11.403  68.465  1.00  0.00    -0.333 A  
HETATM   18  C   UNL     1     -10.722  10.794  69.569  1.00  0.00    -0.268 A  
ENDBRANCH  11  13
ENDBRANCH   7  11
ENDBRANCH   2   3
TORSDOF 3
ENDMDL
MODEL      195
REMARK 921   NORMALIZED FREE ENERGY PREDICTED BY IDOCK:   -3.30 KCAL/MOL
REMARK 922        TOTAL FREE ENERGY PREDICTED BY IDOCK:   -4.26 KCAL/MOL
REMARK 923 INTER-LIGAND FREE ENERGY PREDICTED BY IDOCK:   -3.53 KCAL/MOL
REMARK 924 INTRA-LIGAND FREE ENERGY PREDICTED BY IDOCK:   -0.73 KCAL/MOL
REMARK 927      BINDING AFFINITY PREDICTED BY RF-SCORE:    0.00 PKD
ROOT
HETATM    1  C   UNL     1      -7.588   7.661  74.562  1.00  0.00    -0.163 C  
HETATM    2  O   UNL     1      -8.352   8.707  73.962  1.00  0.00    -0.325 OA 
ENDROOT
BRANCH   2   3
HETATM    3  C   UNL     1      -8.887   8.399  72.740  1.00  0.00    -0.206 A  
HETATM    4  C   UNL     1     -10.225   8.582  72.396  1.00  0.00    -0.369 A  
HETATM    5  C   UNL     1     -10.686   8.173  71.142  1.00  0.00    -0.221 A  
HETATM    6  O   UNL     1     -12.020   8.313  70.872  1.00  0.00    -0.393 OA 
HETATM    7  C   UNL     1      -9.815   7.598  70.207  1.00  0.00    -0.180 A  
HETATM    8  H   UNL     1     -12.333   8.035  70.019  1.00  0.00     0.000 HD 
HETATM    9  C   UNL     1      -8.453   7.506  70.527  1.00  0.00    -0.133 A  
HETATM   10  C   UNL     1      -7.997   7.895  71.792  1.00  0.00    -0.118 A  
BRANCH   7  11
HETATM   11  C   UNL     1     -10.308   7.167  68.867  1.00  0.00    -0.196 C  
HETATM   12  O   UNL     1     -11.357   6.534  68.780  1.00  0.00    -0.278 OA 
BRANCH  11  13
HETATM   13  C   UNL     1      -9.610   7.541  67.599  1.00  0.00    -0.171 A  
HETATM   14  C   UNL     1      -9.160   6.501  66.772  1.00  0.00    -0.153 A  
HETATM   15  C   UNL     1      -8.532   6.776  65.557  1.00  0.00    -0.124 A  
HETATM   16  C   UNL     1      -8.346   8.096  65.158  1.00  0.00    -0.152 A  
HETATM   17  C   UNL     1      -8.758   9.141  65.987  1.00  0.00    -0.176 A  
HETATM   18  C   UNL     1      -9.374   8.867  67.212  1.00  0.00    -0.173 A  
ENDBRANCH  11  13
ENDBRANCH   7  11
ENDBRANCH   2   3
TORSDOF 3
ENDMDL
MODEL      196
REMARK 921   NORMALIZED FREE ENERGY PREDICTED BY IDOCK:   -3.27 KCAL/MOL
REMARK 922        TOTAL FREE ENERGY PREDICTED BY IDOCK:   -4.23 KCAL/MOL
REMARK 923 INTER-LIGAND FREE ENERGY PREDICTED BY IDOCK:   -3.47 KCAL/MOL
REMARK 924 INTRA-LIGAND FREE ENERGY PREDICTED BY IDOCK:   -0.76 KCAL/MOL
REMARK 927      BINDING AFFINITY PREDICTED BY RF-SCORE:    0.00 PKD
ROOT
HETATM    1  C   UNL     1      -5.680  13.537  68.921  1.00  0.00    -0.074 C  
HETATM    2  O   UNL     1      -6.788  12.916  68.269  1.00  0.00    -0.075 OA 
ENDROOT
BRANCH   2   3
HETATM    3  C   UNL     1      -7.226  11.760  68.856  1.00  0.00    -0.107 A  
HETATM    4  C   UNL     1      -6.632  11.166  69.969  1.00  0.00    -0.105 A  
HETATM    5  C   UNL     1      -7.118   9.948  70.452  1.00  0.00    -0.139 A  
HETATM    6  O   UNL     1      -6.464   9.369  71.505  1.00  0.00    -0.227 OA 
HETATM    7  C   UNL     1      -8.214   9.318  69.848  1.00  0.00    -0.148 A  
HETATM    8  H   UNL     1      -6.794   8.541  71.834  1.00  0.00     0.000 HD 
HETATM    9  C   UNL     1      -8.862   9.971  68.790  1.00  0.00    -0.137 A  
HETATM   10  C   UNL     1      -8.362  11.180  68.292  1.00  0.00    -0.143 A  
BRANCH   7  11
HETATM   11  C   UNL     1      -8.734   8.021  70.369  1.00  0.00    -0.136 C  
HETATM   12  O   UNL     1      -7.975   7.060  70.474  1.00  0.00    -0.109 OA 
BRANCH  11  13
HETATM   13  C   UNL     1     -10.141   7.856  70.844  1.00  0.00    -0.205 A  
HETATM   14  C   UNL     1     -10.608   8.752  71.818  1.00  0.00    -0.417 A  
HETATM   15  C   UNL     1     -11.922   8.679  72.282  1.00  0.00    -0.438 A  
HETATM   16  C   UNL     1     -12.782   7.708  71.777  1.00  0.00    -0.356 A  
HETATM   17  C   UNL     1     -12.320   6.789  70.833  1.00  0.00    -0.336 A  
HETATM   18  C   UNL     1     -10.998   6.851  70.378  1.00  0.00    -0.315 A  
ENDBRANCH  11  13
ENDBRANCH   7  11
ENDBRANCH   2   3
TORSDOF 3
ENDMDL
MODEL      197
REMARK 921   NORMALIZED FREE ENERGY PREDICTED BY IDOCK:   -3.22 KCAL/MOL
REMARK 922        TOTAL FREE ENERGY PREDICTED BY IDOCK:   -4.17 KCAL/MOL
REMARK 923 INTER-LIGAND FREE ENERGY PREDICTED BY IDOCK:   -3.60 KCAL/MOL
REMARK 924 INTRA-LIGAND FREE ENERGY PREDICTED BY IDOCK:   -0.58 KCAL/MOL
REMARK 927      BINDING AFFINITY PREDICTED BY RF-SCORE:    0.00 PKD
ROOT
HETATM    1  C   UNL     1      -8.254  11.607  67.294  1.00  0.00    -0.159 C  
HETATM    2  O   UNL     1      -9.424  10.948  66.807  1.00  0.00    -0.173 OA 
ENDROOT
BRANCH   2   3
HETATM    3  C   UNL     1      -9.672   9.727  67.372  1.00  0.00    -0.163 A  
HETATM    4  C   UNL     1     -10.526   8.767  66.832  1.00  0.00    -0.319 A  
HETATM    5  C   UNL     1     -10.763   7.574  67.522  1.00  0.00    -0.226 A  
HETATM    6  O   UNL     1     -11.658   6.690  66.986  1.00  0.00    -0.727 OA 
HETATM    7  C   UNL     1     -10.133   7.314  68.746  1.00  0.00    -0.179 A  
HETATM    8  H   UNL     1     -11.819   5.880  67.455  1.00  0.00     0.000 HD 
HETATM    9  C   UNL     1      -9.203   8.243  69.232  1.00  0.00    -0.151 A  
HETATM   10  C   UNL     1      -8.984   9.447  68.552  1.00  0.00    -0.128 A  
BRANCH   7  11
HETATM   11  C   UNL     1     -10.382   6.039  69.478  1.00  0.00    -0.233 C  
HETATM   12  O   UNL     1     -11.357   5.944  70.221  1.00  0.00    -0.322 OA 
BRANCH  11  13
HETATM   13  C   UNL     1      -9.528   4.827  69.289  1.00  0.00    -0.221 A  
HETATM   14  C   UNL     1      -8.580   4.855  68.254  1.00  0.00    -0.105 A  
HETATM   15  C   UNL     1      -7.724   3.773  68.043  1.00  0.00    -0.066 A  
HETATM   16  C   UNL     1      -7.808   2.652  68.863  1.00  0.00    -0.055 A  
HETATM   17  C   UNL     1      -8.769   2.599  69.875  1.00  0.00    -0.126 A  
HETATM   18  C   UNL     1      -9.638   3.675  70.079  1.00  0.00    -0.244 A  
ENDBRANCH  11  13
ENDBRANCH   7  11
ENDBRANCH   2   3
TORSDOF 3
ENDMDL
MODEL      198
REMARK 921   NORMALIZED FREE ENERGY PREDICTED BY IDOCK:   -3.22 KCAL/MOL
REMARK 922        TOTAL FREE ENERGY PREDICTED BY IDOCK:   -4.17 KCAL/MOL
REMARK 923 INTER-LIGAND FREE ENERGY PREDICTED BY IDOCK:   -4.11 KCAL/MOL
REMARK 924 INTRA-LIGAND FREE ENERGY PREDICTED BY IDOCK:   -0.06 KCAL/MOL
REMARK 927      BINDING AFFINITY PREDICTED BY RF-SCORE:    0.00 PKD
ROOT
HETATM    1  C   UNL     1      -6.147  18.588  70.317  1.00  0.00    -0.013 C  
HETATM    2  O   UNL     1      -5.917  18.215  68.958  1.00  0.00    -0.205 OA 
ENDROOT
BRANCH   2   3
HETATM    3  C   UNL     1      -6.641  17.137  68.528  1.00  0.00    -0.167 A  
HETATM    4  C   UNL     1      -8.025  17.018  68.645  1.00  0.00    -0.258 A  
HETATM    5  C   UNL     1      -8.662  15.844  68.232  1.00  0.00    -0.174 A  
HETATM    6  O   UNL     1     -10.013  15.746  68.426  1.00  0.00    -0.213 OA 
HETATM    7  C   UNL     1      -7.932  14.785  67.677  1.00  0.00    -0.191 A  
HETATM    8  H   UNL     1     -10.446  14.948  68.145  1.00  0.00     0.000 HD 
HETATM    9  C   UNL     1      -6.555  14.953  67.476  1.00  0.00    -0.140 A  
HETATM   10  C   UNL     1      -5.914  16.119  67.910  1.00  0.00    -0.147 A  
BRANCH   7  11
HETATM   11  C   UNL     1      -8.615  13.536  67.232  1.00  0.00    -0.213 C  
HETATM   12  O   UNL     1      -8.200  12.446  67.618  1.00  0.00    -0.146 OA 
BRANCH  11  13
HETATM   13  C   UNL     1      -9.846  13.556  66.385  1.00  0.00    -0.299 A  
HETATM   14  C   UNL     1     -10.815  12.569  66.622  1.00  0.00    -0.277 A  
HETATM   15  C   UNL     1     -12.005  12.549  65.893  1.00  0.00    -0.472 A  
HETATM   16  C   UNL     1     -12.236  13.515  64.917  1.00  0.00    -0.447 A  
HETATM   17  C   UNL     1     -11.265  14.481  64.648  1.00  0.00    -0.359 A  
HETATM   18  C   UNL     1     -10.066  14.494  65.368  1.00  0.00    -0.394 A  
ENDBRANCH  11  13
ENDBRANCH   7  11
ENDBRANCH   2   3
TORSDOF 3
ENDMDL
MODEL      199
REMARK 921   NORMALIZED FREE ENERGY PREDICTED BY IDOCK:   -3.21 KCAL/MOL
REMARK 922        TOTAL FREE ENERGY PREDICTED BY IDOCK:   -4.16 KCAL/MOL
REMARK 923 INTER-LIGAND FREE ENERGY PREDICTED BY IDOCK:   -3.66 KCAL/MOL
REMARK 924 INTRA-LIGAND FREE ENERGY PREDICTED BY IDOCK:   -0.50 KCAL/MOL
REMARK 927      BINDING AFFINITY PREDICTED BY RF-SCORE:    0.00 PKD
ROOT
HETATM    1  C   UNL     1      -8.917   2.876  65.786  1.00  0.00    -0.144 C  
HETATM    2  O   UNL     1      -8.287   4.152  65.669  1.00  0.00    -0.108 OA 
ENDROOT
BRANCH   2   3
HETATM    3  C   UNL     1      -8.753   5.104  66.534  1.00  0.00    -0.111 A  
HETATM    4  C   UNL     1      -7.942   5.924  67.316  1.00  0.00    -0.102 A  
HETATM    5  C   UNL     1      -8.519   6.822  68.218  1.00  0.00    -0.125 A  
HETATM    6  O   UNL     1      -7.684   7.560  69.012  1.00  0.00    -0.112 OA 
HETATM    7  C   UNL     1      -9.911   6.930  68.335  1.00  0.00    -0.150 A  
HETATM    8  H   UNL     1      -8.077   8.171  69.625  1.00  0.00     0.000 HD 
HETATM    9  C   UNL     1     -10.717   6.170  67.477  1.00  0.00    -0.393 A  
HETATM   10  C   UNL     1     -10.139   5.255  66.590  1.00  0.00    -0.259 A  
BRANCH   7  11
HETATM   11  C   UNL     1     -10.525   7.893  69.296  1.00  0.00    -0.216 C  
HETATM   12  O   UNL     1     -10.872   7.504  70.409  1.00  0.00    -0.235 OA 
BRANCH  11  13
HETATM   13  C   UNL     1     -10.672   9.347  68.986  1.00  0.00    -0.209 A  
HETATM   14  C   UNL     1     -10.454   9.756  67.661  1.00  0.00    -0.305 A  
HETATM   15  C   UNL     1     -10.608  11.093  67.293  1.00  0.00    -0.279 A  
HETATM   16  C   UNL     1     -10.982  12.035  68.247  1.00  0.00    -0.275 A  
HETATM   17  C   UNL     1     -11.169  11.648  69.575  1.00  0.00    -0.282 A  
HETATM   18  C   UNL     1     -11.000  10.311  69.949  1.00  0.00    -0.358 A  
ENDBRANCH  11  13
ENDBRANCH   7  11
ENDBRANCH   2   3
TORSDOF 3
ENDMDL
MODEL      200
REMARK 921   NORMALIZED FREE ENERGY PREDICTED BY IDOCK:   -3.21 KCAL/MOL
REMARK 922        TOTAL FREE ENERGY PREDICTED BY IDOCK:   -4.16 KCAL/MOL
REMARK 923 INTER-LIGAND FREE ENERGY PREDICTED BY IDOCK:   -3.43 KCAL/MOL
REMARK 924 INTRA-LIGAND FREE ENERGY PREDICTED BY IDOCK:   -0.72 KCAL/MOL
REMARK 927      BINDING AFFINITY PREDICTED BY RF-SCORE:    0.00 PKD
ROOT
HETATM    1  C   UNL     1     -13.848   9.535  72.381  1.00  0.00    -0.282 C  
HETATM    2  O   UNL     1     -13.379   8.787  71.259  1.00  0.00    -0.270 OA 
ENDROOT
BRANCH   2   3
HETATM    3  C   UNL     1     -12.183   8.152  71.451  1.00  0.00    -0.297 A  
HETATM    4  C   UNL     1     -11.059   8.744  72.025  1.00  0.00    -0.441 A  
HETATM    5  C   UNL     1      -9.862   8.027  72.116  1.00  0.00    -0.223 A  
HETATM    6  O   UNL     1      -8.767   8.669  72.627  1.00  0.00    -0.380 OA 
HETATM    7  C   UNL     1      -9.778   6.705  71.659  1.00  0.00    -0.170 A  
HETATM    8  H   UNL     1      -7.954   8.181  72.689  1.00  0.00     0.000 HD 
HETATM    9  C   UNL     1     -10.939   6.089  71.171  1.00  0.00    -0.341 A  
HETATM   10  C   UNL     1     -12.130   6.815  71.059  1.00  0.00    -0.426 A  
BRANCH   7  11
HETATM   11  C   UNL     1      -8.501   5.941  71.762  1.00  0.00    -0.131 C  
HETATM   12  O   UNL     1      -7.916   5.877  72.840  1.00  0.00    -0.106 OA 
BRANCH  11  13
HETATM   13  C   UNL     1      -7.932   5.175  70.611  1.00  0.00    -0.088 A  
HETATM   14  C   UNL     1      -7.298   5.905  69.594  1.00  0.00    -0.075 A  
HETATM   15  C   UNL     1      -6.713   5.254  68.508  1.00  0.00    -0.054 A  
HETATM   16  C   UNL     1      -6.757   3.865  68.427  1.00  0.00    -0.046 A  
HETATM   17  C   UNL     1      -7.415   3.129  69.415  1.00  0.00    -0.048 A  
HETATM   18  C   UNL     1      -8.015   3.781  70.497  1.00  0.00    -0.055 A  
ENDBRANCH  11  13
ENDBRANCH   7  11
ENDBRANCH   2   3
TORSDOF 3
ENDMDL
MODEL      201
REMARK 921   NORMALIZED FREE ENERGY PREDICTED BY IDOCK:   -3.21 KCAL/MOL
REMARK 922        TOTAL FREE ENERGY PREDICTED BY IDOCK:   -4.15 KCAL/MOL
REMARK 923 INTER-LIGAND FREE ENERGY PREDICTED BY IDOCK:   -3.66 KCAL/MOL
REMARK 924 INTRA-LIGAND FREE ENERGY PREDICTED BY IDOCK:   -0.50 KCAL/MOL
REMARK 927      BINDING AFFINITY PREDICTED BY RF-SCORE:    0.00 PKD
ROOT
HETATM    1  C   UNL     1     -12.470   8.957  72.558  1.00  0.00    -0.274 C  
HETATM    2  O   UNL     1     -12.894   8.083  71.511  1.00  0.00    -0.319 OA 
ENDROOT
BRANCH   2   3
HETATM    3  C   UNL     1     -12.042   7.045  71.250  1.00  0.00    -0.361 A  
HETATM    4  C   UNL     1     -11.465   6.233  72.226  1.00  0.00    -0.351 A  
HETATM    5  C   UNL     1     -10.554   5.239  71.858  1.00  0.00    -0.209 A  
HETATM    6  O   UNL     1      -9.964   4.510  72.854  1.00  0.00    -0.142 OA 
HETATM    7  C   UNL     1     -10.226   5.025  70.513  1.00  0.00    -0.316 A  
HETATM    8  H   UNL     1      -9.345   3.834  72.603  1.00  0.00     0.000 HD 
HETATM    9  C   UNL     1     -10.883   5.783  69.533  1.00  0.00    -0.410 A  
HETATM   10  C   UNL     1     -11.778   6.794  69.904  1.00  0.00    -0.279 A  
BRANCH   7  11
HETATM   11  C   UNL     1      -9.258   3.960  70.122  1.00  0.00    -0.147 C  
HETATM   12  O   UNL     1      -8.928   3.107  70.943  1.00  0.00    -0.079 OA 
BRANCH  11  13
HETATM   13  C   UNL     1      -8.720   3.838  68.733  1.00  0.00    -0.138 A  
HETATM   14  C   UNL     1      -9.174   2.766  67.951  1.00  0.00    -0.251 A  
HETATM   15  C   UNL     1      -8.742   2.611  66.633  1.00  0.00    -0.129 A  
HETATM   16  C   UNL     1      -7.848   3.527  66.085  1.00  0.00    -0.089 A  
HETATM   17  C   UNL     1      -7.362   4.579  66.864  1.00  0.00    -0.081 A  
HETATM   18  C   UNL     1      -7.783   4.727  68.190  1.00  0.00    -0.082 A  
ENDBRANCH  11  13
ENDBRANCH   7  11
ENDBRANCH   2   3
TORSDOF 3
ENDMDL
MODEL      202
REMARK 921   NORMALIZED FREE ENERGY PREDICTED BY IDOCK:   -3.17 KCAL/MOL
REMARK 922        TOTAL FREE ENERGY PREDICTED BY IDOCK:   -4.11 KCAL/MOL
REMARK 923 INTER-LIGAND FREE ENERGY PREDICTED BY IDOCK:   -3.71 KCAL/MOL
REMARK 924 INTRA-LIGAND FREE ENERGY PREDICTED BY IDOCK:   -0.41 KCAL/MOL
REMARK 927      BINDING AFFINITY PREDICTED BY RF-SCORE:    0.00 PKD
ROOT
HETATM    1  C   UNL     1      -5.678  20.309  67.835  1.00  0.00    -0.212 C  
HETATM    2  O   UNL     1      -6.415  19.663  66.797  1.00  0.00    -0.191 OA 
ENDROOT
BRANCH   2   3
HETATM    3  C   UNL     1      -6.680  18.339  67.020  1.00  0.00    -0.185 A  
HETATM    4  C   UNL     1      -5.754  17.420  67.511  1.00  0.00    -0.151 A  
HETATM    5  C   UNL     1      -6.107  16.074  67.640  1.00  0.00    -0.156 A  
HETATM    6  O   UNL     1      -5.146  15.198  68.065  1.00  0.00    -0.111 OA 
HETATM    7  C   UNL     1      -7.393  15.631  67.304  1.00  0.00    -0.255 A  
HETATM    8  H   UNL     1      -5.386  14.283  68.153  1.00  0.00     0.000 HD 
HETATM    9  C   UNL     1      -8.344  16.579  66.902  1.00  0.00    -0.245 A  
HETATM   10  C   UNL     1      -7.984  17.923  66.751  1.00  0.00    -0.259 A  
BRANCH   7  11
HETATM   11  C   UNL     1      -7.768  14.195  67.448  1.00  0.00    -0.169 C  
HETATM   12  O   UNL     1      -6.947  13.392  67.886  1.00  0.00    -0.106 OA 
BRANCH  11  13
HETATM   13  C   UNL     1      -9.144  13.694  67.147  1.00  0.00    -0.241 A  
HETATM   14  C   UNL     1      -9.958  13.337  68.233  1.00  0.00    -0.236 A  
HETATM   15  C   UNL     1     -11.266  12.895  68.028  1.00  0.00    -0.305 A  
HETATM   16  C   UNL     1     -11.772  12.805  66.734  1.00  0.00    -0.459 A  
HETATM   17  C   UNL     1     -10.961  13.125  65.644  1.00  0.00    -0.295 A  
HETATM   18  C   UNL     1      -9.645  13.554  65.846  1.00  0.00    -0.132 A  
ENDBRANCH  11  13
ENDBRANCH   7  11
ENDBRANCH   2   3
TORSDOF 3
ENDMDL
MODEL      203
REMARK 921   NORMALIZED FREE ENERGY PREDICTED BY IDOCK:   -3.17 KCAL/MOL
REMARK 922        TOTAL FREE ENERGY PREDICTED BY IDOCK:   -4.11 KCAL/MOL
REMARK 923 INTER-LIGAND FREE ENERGY PREDICTED BY IDOCK:   -3.32 KCAL/MOL
REMARK 924 INTRA-LIGAND FREE ENERGY PREDICTED BY IDOCK:   -0.79 KCAL/MOL
REMARK 927      BINDING AFFINITY PREDICTED BY RF-SCORE:    0.00 PKD
ROOT
HETATM    1  C   UNL     1     -11.129   3.989  73.343  1.00  0.00    -0.246 C  
HETATM    2  O   UNL     1     -11.282   5.393  73.552  1.00  0.00    -0.274 OA 
ENDROOT
BRANCH   2   3
HETATM    3  C   UNL     1     -11.004   6.170  72.460  1.00  0.00    -0.259 A  
HETATM    4  C   UNL     1     -11.034   7.563  72.455  1.00  0.00    -0.362 A  
HETATM    5  C   UNL     1     -10.798   8.263  71.268  1.00  0.00    -0.237 A  
HETATM    6  O   UNL     1     -10.902   9.626  71.296  1.00  0.00    -0.350 OA 
HETATM    7  C   UNL     1     -10.506   7.584  70.078  1.00  0.00    -0.231 A  
HETATM    8  H   UNL     1     -10.742  10.102  70.489  1.00  0.00     0.000 HD 
HETATM    9  C   UNL     1     -10.384   6.187  70.115  1.00  0.00    -0.269 A  
HETATM   10  C   UNL     1     -10.643   5.487  71.299  1.00  0.00    -0.304 A  
BRANCH   7  11
HETATM   11  C   UNL     1     -10.250   8.333  68.814  1.00  0.00    -0.210 C  
HETATM   12  O   UNL     1     -11.116   9.078  68.362  1.00  0.00     0.016 OA 
BRANCH  11  13
HETATM   13  C   UNL     1      -8.938   8.272  68.101  1.00  0.00    -0.139 A  
HETATM   14  C   UNL     1      -7.794   8.674  68.807  1.00  0.00    -0.106 A  
HETATM   15  C   UNL     1      -6.532   8.610  68.216  1.00  0.00    -0.060 A  
HETATM   16  C   UNL     1      -6.401   8.145  66.911  1.00  0.00    -0.056 A  
HETATM   17  C   UNL     1      -7.535   7.774  66.185  1.00  0.00    -0.079 A  
HETATM   18  C   UNL     1      -8.803   7.852  66.771  1.00  0.00    -0.154 A  
ENDBRANCH  11  13
ENDBRANCH   7  11
ENDBRANCH   2   3
TORSDOF 3
ENDMDL
MODEL      204
REMARK 921   NORMALIZED FREE ENERGY PREDICTED BY IDOCK:   -3.16 KCAL/MOL
REMARK 922        TOTAL FREE ENERGY PREDICTED BY IDOCK:   -4.09 KCAL/MOL
REMARK 923 INTER-LIGAND FREE ENERGY PREDICTED BY IDOCK:   -3.36 KCAL/MOL
REMARK 924 INTRA-LIGAND FREE ENERGY PREDICTED BY IDOCK:   -0.74 KCAL/MOL
REMARK 927      BINDING AFFINITY PREDICTED BY RF-SCORE:    0.00 PKD
ROOT
HETATM    1  C   UNL     1      -9.278   1.469  64.666  1.00  0.00    -0.126 C  
HETATM    2  O   UNL     1      -9.142   2.847  64.315  1.00  0.00    -0.108 OA 
ENDROOT
BRANCH   2   3
HETATM    3  C   UNL     1      -9.274   3.721  65.358  1.00  0.00    -0.152 A  
HETATM    4  C   UNL     1     -10.347   4.595  65.525  1.00  0.00    -0.225 A  
HETATM    5  C   UNL     1     -10.354   5.497  66.593  1.00  0.00    -0.269 A  
HETATM    6  O   UNL     1     -11.395   6.380  66.680  1.00  0.00    -0.726 OA 
HETATM    7  C   UNL     1      -9.304   5.523  67.520  1.00  0.00    -0.114 A  
HETATM    8  H   UNL     1     -11.400   6.992  67.406  1.00  0.00     0.000 HD 
HETATM    9  C   UNL     1      -8.277   4.576  67.398  1.00  0.00    -0.101 A  
HETATM   10  C   UNL     1      -8.260   3.689  66.315  1.00  0.00    -0.100 A  
BRANCH   7  11
HETATM   11  C   UNL     1      -9.316   6.483  68.662  1.00  0.00    -0.125 C  
HETATM   12  O   UNL     1      -9.431   7.687  68.443  1.00  0.00    -0.148 OA 
BRANCH  11  13
HETATM   13  C   UNL     1      -9.268   6.032  70.086  1.00  0.00    -0.165 A  
HETATM   14  C   UNL     1     -10.473   5.629  70.682  1.00  0.00    -0.340 A  
HETATM   15  C   UNL     1     -10.497   5.163  71.997  1.00  0.00    -0.278 A  
HETATM   16  C   UNL     1      -9.316   5.096  72.730  1.00  0.00    -0.149 A  
HETATM   17  C   UNL     1      -8.116   5.526  72.160  1.00  0.00    -0.111 A  
HETATM   18  C   UNL     1      -8.093   6.008  70.847  1.00  0.00    -0.121 A  
ENDBRANCH  11  13
ENDBRANCH   7  11
ENDBRANCH   2   3
TORSDOF 3
ENDMDL
MODEL      205
REMARK 921   NORMALIZED FREE ENERGY PREDICTED BY IDOCK:   -3.15 KCAL/MOL
REMARK 922        TOTAL FREE ENERGY PREDICTED BY IDOCK:   -4.09 KCAL/MOL
REMARK 923 INTER-LIGAND FREE ENERGY PREDICTED BY IDOCK:   -3.90 KCAL/MOL
REMARK 924 INTRA-LIGAND FREE ENERGY PREDICTED BY IDOCK:   -0.19 KCAL/MOL
REMARK 927      BINDING AFFINITY PREDICTED BY RF-SCORE:    0.00 PKD
ROOT
HETATM    1  C   UNL     1      -7.166   9.833  64.700  1.00  0.00    -0.131 C  
HETATM    2  O   UNL     1      -7.068   8.522  65.255  1.00  0.00    -0.079 OA 
ENDROOT
BRANCH   2   3
HETATM    3  C   UNL     1      -7.676   8.365  66.471  1.00  0.00    -0.089 A  
HETATM    4  C   UNL     1      -8.148   7.151  66.966  1.00  0.00    -0.117 A  
HETATM    5  C   UNL     1      -8.814   7.109  68.194  1.00  0.00    -0.126 A  
HETATM    6  O   UNL     1      -9.317   5.907  68.610  1.00  0.00    -0.117 OA 
HETATM    7  C   UNL     1      -8.998   8.272  68.954  1.00  0.00    -0.144 A  
HETATM    8  H   UNL     1      -9.770   5.879  69.445  1.00  0.00     0.000 HD 
HETATM    9  C   UNL     1      -8.436   9.470  68.491  1.00  0.00    -0.119 A  
HETATM   10  C   UNL     1      -7.789   9.515  67.251  1.00  0.00    -0.098 A  
BRANCH   7  11
HETATM   11  C   UNL     1      -9.705   8.224  70.266  1.00  0.00    -0.175 C  
HETATM   12  O   UNL     1      -9.331   7.436  71.131  1.00  0.00    -0.155 OA 
BRANCH  11  13
HETATM   13  C   UNL     1     -10.820   9.159  70.608  1.00  0.00    -0.321 A  
HETATM   14  C   UNL     1     -10.896  10.368  69.899  1.00  0.00    -0.353 A  
HETATM   15  C   UNL     1     -11.931  11.272  70.142  1.00  0.00    -0.452 A  
HETATM   16  C   UNL     1     -12.900  10.977  71.096  1.00  0.00    -0.491 A  
HETATM   17  C   UNL     1     -12.817   9.793  71.832  1.00  0.00    -0.520 A  
HETATM   18  C   UNL     1     -11.771   8.893  71.601  1.00  0.00    -0.411 A  
ENDBRANCH  11  13
ENDBRANCH   7  11
ENDBRANCH   2   3
TORSDOF 3
ENDMDL
MODEL      206
REMARK 921   NORMALIZED FREE ENERGY PREDICTED BY IDOCK:   -3.13 KCAL/MOL
REMARK 922        TOTAL FREE ENERGY PREDICTED BY IDOCK:   -4.07 KCAL/MOL
REMARK 923 INTER-LIGAND FREE ENERGY PREDICTED BY IDOCK:   -3.56 KCAL/MOL
REMARK 924 INTRA-LIGAND FREE ENERGY PREDICTED BY IDOCK:   -0.51 KCAL/MOL
REMARK 927      BINDING AFFINITY PREDICTED BY RF-SCORE:    0.00 PKD
ROOT
HETATM    1  C   UNL     1      -9.152   9.338  65.996  1.00  0.00    -0.188 C  
HETATM    2  O   UNL     1      -9.758  10.514  65.459  1.00  0.00    -0.208 OA 
ENDROOT
BRANCH   2   3
HETATM    3  C   UNL     1      -9.480  11.667  66.141  1.00  0.00    -0.224 A  
HETATM    4  C   UNL     1      -8.431  11.814  67.047  1.00  0.00    -0.175 A  
HETATM    5  C   UNL     1      -8.272  13.016  67.743  1.00  0.00    -0.168 A  
HETATM    6  O   UNL     1      -7.269  13.093  68.669  1.00  0.00    -0.101 OA 
HETATM    7  C   UNL     1      -9.141  14.093  67.526  1.00  0.00    -0.195 A  
HETATM    8  H   UNL     1      -7.160  13.910  69.142  1.00  0.00     0.000 HD 
HETATM    9  C   UNL     1     -10.133  13.968  66.544  1.00  0.00    -0.287 A  
HETATM   10  C   UNL     1     -10.306  12.756  65.865  1.00  0.00    -0.298 A  
BRANCH   7  11
HETATM   11  C   UNL     1      -8.966  15.377  68.265  1.00  0.00    -0.185 C  
HETATM   12  O   UNL     1      -9.700  15.637  69.216  1.00  0.00    -0.234 OA 
BRANCH  11  13
HETATM   13  C   UNL     1      -7.872  16.343  67.943  1.00  0.00    -0.161 A  
HETATM   14  C   UNL     1      -7.466  16.443  66.603  1.00  0.00    -0.267 A  
HETATM   15  C   UNL     1      -6.475  17.349  66.225  1.00  0.00    -0.270 A  
HETATM   16  C   UNL     1      -5.879  18.164  67.183  1.00  0.00    -0.158 A  
HETATM   17  C   UNL     1      -6.250  18.051  68.524  1.00  0.00    -0.197 A  
HETATM   18  C   UNL     1      -7.232  17.132  68.908  1.00  0.00    -0.242 A  
ENDBRANCH  11  13
ENDBRANCH   7  11
ENDBRANCH   2   3
TORSDOF 3
ENDMDL
MODEL      207
REMARK 921   NORMALIZED FREE ENERGY PREDICTED BY IDOCK:   -3.12 KCAL/MOL
REMARK 922        TOTAL FREE ENERGY PREDICTED BY IDOCK:   -4.05 KCAL/MOL
REMARK 923 INTER-LIGAND FREE ENERGY PREDICTED BY IDOCK:   -3.73 KCAL/MOL
REMARK 924 INTRA-LIGAND FREE ENERGY PREDICTED BY IDOCK:   -0.32 KCAL/MOL
REMARK 927      BINDING AFFINITY PREDICTED BY RF-SCORE:    0.00 PKD
ROOT
HETATM    1  C   UNL     1     -12.643   6.293  72.115  1.00  0.00     0.019 C  
HETATM    2  O   UNL     1     -12.214   7.644  72.283  1.00  0.00    -0.285 OA 
ENDROOT
BRANCH   2   3
HETATM    3  C   UNL     1     -11.549   8.173  71.211  1.00  0.00    -0.273 A  
HETATM    4  C   UNL     1     -11.073   7.430  70.133  1.00  0.00    -0.265 A  
HETATM    5  C   UNL     1     -10.346   8.058  69.117  1.00  0.00    -0.220 A  
HETATM    6  O   UNL     1      -9.843   7.279  68.112  1.00  0.00    -0.143 OA 
HETATM    7  C   UNL     1     -10.106   9.438  69.153  1.00  0.00    -0.200 A  
HETATM    8  H   UNL     1      -9.349   7.707  67.422  1.00  0.00     0.000 HD 
HETATM    9  C   UNL     1     -10.670  10.191  70.192  1.00  0.00    -0.355 A  
HETATM   10  C   UNL     1     -11.378   9.557  71.220  1.00  0.00    -0.446 A  
BRANCH   7  11
HETATM   11  C   UNL     1      -9.334  10.108  68.066  1.00  0.00    -0.141 C  
HETATM   12  O   UNL     1      -8.610   9.439  67.332  1.00  0.00    -0.124 OA 
BRANCH  11  13
HETATM   13  C   UNL     1      -9.462  11.569  67.778  1.00  0.00    -0.168 A  
HETATM   14  C   UNL     1      -8.279  12.311  67.639  1.00  0.00    -0.166 A  
HETATM   15  C   UNL     1      -8.323  13.672  67.334  1.00  0.00    -0.198 A  
HETATM   16  C   UNL     1      -9.551  14.305  67.167  1.00  0.00    -0.245 A  
HETATM   17  C   UNL     1     -10.736  13.586  67.335  1.00  0.00    -0.269 A  
HETATM   18  C   UNL     1     -10.694  12.225  67.656  1.00  0.00    -0.250 A  
ENDBRANCH  11  13
ENDBRANCH   7  11
ENDBRANCH   2   3
TORSDOF 3
ENDMDL
MODEL      208
REMARK 921   NORMALIZED FREE ENERGY PREDICTED BY IDOCK:   -3.09 KCAL/MOL
REMARK 922        TOTAL FREE ENERGY PREDICTED BY IDOCK:   -4.02 KCAL/MOL
REMARK 923 INTER-LIGAND FREE ENERGY PREDICTED BY IDOCK:   -3.39 KCAL/MOL
REMARK 924 INTRA-LIGAND FREE ENERGY PREDICTED BY IDOCK:   -0.63 KCAL/MOL
REMARK 927      BINDING AFFINITY PREDICTED BY RF-SCORE:    0.00 PKD
ROOT
HETATM    1  C   UNL     1     -11.324   6.057  72.109  1.00  0.00    -0.299 C  
HETATM    2  O   UNL     1     -11.698   6.494  70.802  1.00  0.00    -0.361 OA 
ENDROOT
BRANCH   2   3
HETATM    3  C   UNL     1     -10.995   5.918  69.780  1.00  0.00    -0.382 A  
HETATM    4  C   UNL     1     -10.135   4.831  69.929  1.00  0.00    -0.299 A  
HETATM    5  C   UNL     1      -9.410   4.358  68.831  1.00  0.00    -0.153 A  
HETATM    6  O   UNL     1      -8.530   3.332  69.037  1.00  0.00    -0.059 OA 
HETATM    7  C   UNL     1      -9.551   4.947  67.568  1.00  0.00    -0.179 A  
HETATM    8  H   UNL     1      -8.038   3.010  68.291  1.00  0.00     0.000 HD 
HETATM    9  C   UNL     1     -10.489   5.977  67.409  1.00  0.00    -0.309 A  
HETATM   10  C   UNL     1     -11.197   6.465  68.514  1.00  0.00    -0.321 A  
BRANCH   7  11
HETATM   11  C   UNL     1      -8.781   4.438  66.396  1.00  0.00    -0.112 C  
HETATM   12  O   UNL     1      -7.565   4.606  66.348  1.00  0.00    -0.088 OA 
BRANCH  11  13
HETATM   13  C   UNL     1      -9.423   3.655  65.297  1.00  0.00    -0.162 A  
HETATM   14  C   UNL     1      -9.151   2.280  65.233  1.00  0.00    -0.119 A  
HETATM   15  C   UNL     1      -9.743   1.481  64.254  1.00  0.00    -0.092 A  
HETATM   16  C   UNL     1     -10.614   2.049  63.329  1.00  0.00    -0.177 A  
HETATM   17  C   UNL     1     -10.867   3.422  63.361  1.00  0.00    -0.200 A  
HETATM   18  C   UNL     1     -10.261   4.227  64.332  1.00  0.00    -0.076 A  
ENDBRANCH  11  13
ENDBRANCH   7  11
ENDBRANCH   2   3
TORSDOF 3
ENDMDL
MODEL      209
REMARK 921   NORMALIZED FREE ENERGY PREDICTED BY IDOCK:   -3.08 KCAL/MOL
REMARK 922        TOTAL FREE ENERGY PREDICTED BY IDOCK:   -4.00 KCAL/MOL
REMARK 923 INTER-LIGAND FREE ENERGY PREDICTED BY IDOCK:   -3.24 KCAL/MOL
REMARK 924 INTRA-LIGAND FREE ENERGY PREDICTED BY IDOCK:   -0.77 KCAL/MOL
REMARK 927      BINDING AFFINITY PREDICTED BY RF-SCORE:    0.00 PKD
ROOT
HETATM    1  C   UNL     1      -7.587   7.639  74.557  1.00  0.00    -0.163 C  
HETATM    2  O   UNL     1      -8.410   8.567  73.850  1.00  0.00    -0.351 OA 
ENDROOT
BRANCH   2   3
HETATM    3  C   UNL     1      -8.870   8.121  72.641  1.00  0.00    -0.219 A  
HETATM    4  C   UNL     1      -9.809   8.791  71.858  1.00  0.00    -0.395 A  
HETATM    5  C   UNL     1     -10.263   8.217  70.667  1.00  0.00    -0.193 A  
HETATM    6  O   UNL     1     -11.232   8.879  69.965  1.00  0.00    -0.361 OA 
HETATM    7  C   UNL     1      -9.771   6.980  70.231  1.00  0.00    -0.177 A  
HETATM    8  H   UNL     1     -11.541   8.489  69.155  1.00  0.00     0.000 HD 
HETATM    9  C   UNL     1      -8.758   6.361  70.976  1.00  0.00    -0.135 A  
HETATM   10  C   UNL     1      -8.320   6.925  72.180  1.00  0.00    -0.105 A  
BRANCH   7  11
HETATM   11  C   UNL     1     -10.253   6.372  68.957  1.00  0.00    -0.183 C  
HETATM   12  O   UNL     1     -11.458   6.336  68.718  1.00  0.00    -0.294 OA 
BRANCH  11  13
HETATM   13  C   UNL     1      -9.317   5.862  67.909  1.00  0.00    -0.107 A  
HETATM   14  C   UNL     1      -8.553   6.805  67.205  1.00  0.00    -0.120 A  
HETATM   15  C   UNL     1      -7.633   6.398  66.238  1.00  0.00    -0.090 A  
HETATM   16  C   UNL     1      -7.469   5.043  65.965  1.00  0.00    -0.082 A  
HETATM   17  C   UNL     1      -8.247   4.097  66.635  1.00  0.00    -0.101 A  
HETATM   18  C   UNL     1      -9.180   4.504  67.594  1.00  0.00    -0.160 A  
ENDBRANCH  11  13
ENDBRANCH   7  11
ENDBRANCH   2   3
TORSDOF 3
ENDMDL
MODEL      210
REMARK 921   NORMALIZED FREE ENERGY PREDICTED BY IDOCK:   -3.06 KCAL/MOL
REMARK 922        TOTAL FREE ENERGY PREDICTED BY IDOCK:   -3.98 KCAL/MOL
REMARK 923 INTER-LIGAND FREE ENERGY PREDICTED BY IDOCK:   -3.32 KCAL/MOL
REMARK 924 INTRA-LIGAND FREE ENERGY PREDICTED BY IDOCK:   -0.66 KCAL/MOL
REMARK 927      BINDING AFFINITY PREDICTED BY RF-SCORE:    0.00 PKD
ROOT
HETATM    1  C   UNL     1     -12.754  11.925  71.770  1.00  0.00    -0.182 C  
HETATM    2  O   UNL     1     -12.233  11.713  70.457  1.00  0.00    -0.356 OA 
ENDROOT
BRANCH   2   3
HETATM    3  C   UNL     1     -11.733  10.460  70.233  1.00  0.00    -0.321 A  
HETATM    4  C   UNL     1     -11.877   9.385  71.109  1.00  0.00    -0.413 A  
HETATM    5  C   UNL     1     -11.270   8.160  70.817  1.00  0.00    -0.261 A  
HETATM    6  O   UNL     1     -11.383   7.152  71.735  1.00  0.00    -0.241 OA 
HETATM    7  C   UNL     1     -10.533   7.984  69.638  1.00  0.00    -0.224 A  
HETATM    8  H   UNL     1     -10.971   6.320  71.536  1.00  0.00     0.000 HD 
HETATM    9  C   UNL     1     -10.475   9.042  68.719  1.00  0.00    -0.230 A  
HETATM   10  C   UNL     1     -11.064  10.275  69.024  1.00  0.00    -0.277 A  
BRANCH   7  11
HETATM   11  C   UNL     1      -9.891   6.674  69.325  1.00  0.00    -0.149 C  
HETATM   12  O   UNL     1     -10.581   5.737  68.931  1.00  0.00    -0.239 OA 
BRANCH  11  13
HETATM   13  C   UNL     1      -8.413   6.470  69.402  1.00  0.00    -0.127 A  
HETATM   14  C   UNL     1      -7.721   6.265  68.198  1.00  0.00    -0.104 A  
HETATM   15  C   UNL     1      -6.335   6.104  68.191  1.00  0.00    -0.043 A  
HETATM   16  C   UNL     1      -5.627   6.144  69.388  1.00  0.00    -0.012 A  
HETATM   17  C   UNL     1      -6.307   6.313  70.596  1.00  0.00    -0.040 A  
HETATM   18  C   UNL     1      -7.698   6.460  70.606  1.00  0.00    -0.105 A  
ENDBRANCH  11  13
ENDBRANCH   7  11
ENDBRANCH   2   3
TORSDOF 3
ENDMDL
MODEL      211
REMARK 921   NORMALIZED FREE ENERGY PREDICTED BY IDOCK:   -3.06 KCAL/MOL
REMARK 922        TOTAL FREE ENERGY PREDICTED BY IDOCK:   -3.98 KCAL/MOL
REMARK 923 INTER-LIGAND FREE ENERGY PREDICTED BY IDOCK:   -3.21 KCAL/MOL
REMARK 924 INTRA-LIGAND FREE ENERGY PREDICTED BY IDOCK:   -0.76 KCAL/MOL
REMARK 927      BINDING AFFINITY PREDICTED BY RF-SCORE:    0.00 PKD
ROOT
HETATM    1  C   UNL     1     -11.364   8.123  72.431  1.00  0.00    -0.391 C  
HETATM    2  O   UNL     1     -11.915   7.732  71.174  1.00  0.00    -0.297 OA 
ENDROOT
BRANCH   2   3
HETATM    3  C   UNL     1     -11.095   6.953  70.404  1.00  0.00    -0.296 A  
HETATM    4  C   UNL     1     -10.841   5.603  70.638  1.00  0.00    -0.304 A  
HETATM    5  C   UNL     1      -9.934   4.912  69.829  1.00  0.00    -0.244 A  
HETATM    6  O   UNL     1      -9.666   3.607  70.136  1.00  0.00    -0.192 OA 
HETATM    7  C   UNL     1      -9.287   5.552  68.763  1.00  0.00    -0.152 A  
HETATM    8  H   UNL     1      -9.050   3.138  69.586  1.00  0.00     0.000 HD 
HETATM    9  C   UNL     1      -9.623   6.884  68.478  1.00  0.00    -0.131 A  
HETATM   10  C   UNL     1     -10.514   7.581  69.302  1.00  0.00    -0.216 A  
BRANCH   7  11
HETATM   11  C   UNL     1      -8.324   4.812  67.898  1.00  0.00    -0.103 C  
HETATM   12  O   UNL     1      -7.350   4.261  68.406  1.00  0.00    -0.059 OA 
BRANCH  11  13
HETATM   13  C   UNL     1      -8.533   4.647  66.428  1.00  0.00    -0.109 A  
HETATM   14  C   UNL     1      -9.723   4.035  66.005  1.00  0.00    -0.195 A  
HETATM   15  C   UNL     1     -10.000   3.880  64.646  1.00  0.00    -0.206 A  
HETATM   16  C   UNL     1      -9.090   4.335  63.697  1.00  0.00    -0.142 A  
HETATM   17  C   UNL     1      -7.888   4.915  64.105  1.00  0.00    -0.092 A  
HETATM   18  C   UNL     1      -7.600   5.057  65.466  1.00  0.00    -0.086 A  
ENDBRANCH  11  13
ENDBRANCH   7  11
ENDBRANCH   2   3
TORSDOF 3
ENDMDL
MODEL      212
REMARK 921   NORMALIZED FREE ENERGY PREDICTED BY IDOCK:   -2.97 KCAL/MOL
REMARK 922        TOTAL FREE ENERGY PREDICTED BY IDOCK:   -3.87 KCAL/MOL
REMARK 923 INTER-LIGAND FREE ENERGY PREDICTED BY IDOCK:   -3.29 KCAL/MOL
REMARK 924 INTRA-LIGAND FREE ENERGY PREDICTED BY IDOCK:   -0.58 KCAL/MOL
REMARK 927      BINDING AFFINITY PREDICTED BY RF-SCORE:    0.00 PKD
ROOT
HETATM    1  C   UNL     1      -9.276   2.901  72.367  1.00  0.00    -0.098 C  
HETATM    2  O   UNL     1      -8.343   3.103  71.306  1.00  0.00    -0.062 OA 
ENDROOT
BRANCH   2   3
HETATM    3  C   UNL     1      -8.480   4.289  70.638  1.00  0.00    -0.074 A  
HETATM    4  C   UNL     1      -7.558   5.332  70.684  1.00  0.00    -0.076 A  
HETATM    5  C   UNL     1      -7.824   6.531  70.016  1.00  0.00    -0.111 A  
HETATM    6  O   UNL     1      -6.921   7.551  70.143  1.00  0.00    -0.056 OA 
HETATM    7  C   UNL     1      -9.002   6.695  69.275  1.00  0.00    -0.135 A  
HETATM    8  H   UNL     1      -7.103   8.365  69.689  1.00  0.00     0.000 HD 
HETATM    9  C   UNL     1      -9.877   5.607  69.157  1.00  0.00    -0.216 A  
HETATM   10  C   UNL     1      -9.620   4.415  69.844  1.00  0.00    -0.275 A  
BRANCH   7  11
HETATM   11  C   UNL     1      -9.282   7.973  68.559  1.00  0.00    -0.135 C  
HETATM   12  O   UNL     1      -8.748   8.193  67.474  1.00  0.00    -0.128 OA 
BRANCH  11  13
HETATM   13  C   UNL     1     -10.256   8.983  69.075  1.00  0.00    -0.216 A  
HETATM   14  C   UNL     1     -10.815   8.758  70.343  1.00  0.00    -0.256 A  
HETATM   15  C   UNL     1     -11.704   9.677  70.903  1.00  0.00    -0.412 A  
HETATM   16  C   UNL     1     -12.044  10.829  70.200  1.00  0.00    -0.427 A  
HETATM   17  C   UNL     1     -11.521  11.047  68.924  1.00  0.00    -0.364 A  
HETATM   18  C   UNL     1     -10.642  10.120  68.354  1.00  0.00    -0.249 A  
ENDBRANCH  11  13
ENDBRANCH   7  11
ENDBRANCH   2   3
TORSDOF 3
ENDMDL
MODEL      213
REMARK 921   NORMALIZED FREE ENERGY PREDICTED BY IDOCK:   -2.95 KCAL/MOL
REMARK 922        TOTAL FREE ENERGY PREDICTED BY IDOCK:   -3.85 KCAL/MOL
REMARK 923 INTER-LIGAND FREE ENERGY PREDICTED BY IDOCK:   -3.29 KCAL/MOL
REMARK 924 INTRA-LIGAND FREE ENERGY PREDICTED BY IDOCK:   -0.56 KCAL/MOL
REMARK 927      BINDING AFFINITY PREDICTED BY RF-SCORE:    0.00 PKD
ROOT
HETATM    1  C   UNL     1      -8.291  13.225  67.543  1.00  0.00    -0.186 C  
HETATM    2  O   UNL     1      -9.489  12.897  68.248  1.00  0.00    -0.217 OA 
ENDROOT
BRANCH   2   3
HETATM    3  C   UNL     1      -9.821  11.570  68.232  1.00  0.00    -0.203 A  
HETATM    4  C   UNL     1     -10.700  10.965  69.129  1.00  0.00    -0.265 A  
HETATM    5  C   UNL     1     -10.921   9.586  69.068  1.00  0.00    -0.100 A  
HETATM    6  O   UNL     1     -11.741   9.026  70.009  1.00  0.00    -0.465 OA 
HETATM    7  C   UNL     1     -10.287   8.797  68.099  1.00  0.00    -0.266 A  
HETATM    8  H   UNL     1     -11.891   8.089  69.967  1.00  0.00     0.000 HD 
HETATM    9  C   UNL     1      -9.480   9.430  67.142  1.00  0.00    -0.185 A  
HETATM   10  C   UNL     1      -9.241  10.807  67.218  1.00  0.00    -0.158 A  
BRANCH   7  11
HETATM   11  C   UNL     1     -10.529   7.327  68.032  1.00  0.00    -0.197 C  
HETATM   12  O   UNL     1     -11.404   6.887  67.291  1.00  0.00    -0.263 OA 
BRANCH  11  13
HETATM   13  C   UNL     1      -9.691   6.344  68.785  1.00  0.00    -0.135 A  
HETATM   14  C   UNL     1      -8.611   5.757  68.108  1.00  0.00    -0.108 A  
HETATM   15  C   UNL     1      -7.766   4.858  68.759  1.00  0.00    -0.077 A  
HETATM   16  C   UNL     1      -7.992   4.537  70.094  1.00  0.00    -0.063 A  
HETATM   17  C   UNL     1      -9.083   5.088  70.769  1.00  0.00    -0.174 A  
HETATM   18  C   UNL     1      -9.941   5.978  70.114  1.00  0.00    -0.228 A  
ENDBRANCH  11  13
ENDBRANCH   7  11
ENDBRANCH   2   3
TORSDOF 3
ENDMDL
MODEL      214
REMARK 921   NORMALIZED FREE ENERGY PREDICTED BY IDOCK:   -2.95 KCAL/MOL
REMARK 922        TOTAL FREE ENERGY PREDICTED BY IDOCK:   -3.85 KCAL/MOL
REMARK 923 INTER-LIGAND FREE ENERGY PREDICTED BY IDOCK:   -3.17 KCAL/MOL
REMARK 924 INTRA-LIGAND FREE ENERGY PREDICTED BY IDOCK:   -0.68 KCAL/MOL
REMARK 927      BINDING AFFINITY PREDICTED BY RF-SCORE:    0.00 PKD
ROOT
HETATM    1  C   UNL     1      -9.131   2.366  67.279  1.00  0.00    -0.150 C  
HETATM    2  O   UNL     1      -8.894   2.917  65.983  1.00  0.00    -0.131 OA 
ENDROOT
BRANCH   2   3
HETATM    3  C   UNL     1      -8.597   4.252  65.972  1.00  0.00    -0.113 A  
HETATM    4  C   UNL     1      -8.613   5.073  67.099  1.00  0.00    -0.104 A  
HETATM    5  C   UNL     1      -8.358   6.441  66.970  1.00  0.00    -0.112 A  
HETATM    6  O   UNL     1      -8.448   7.219  68.092  1.00  0.00    -0.123 OA 
HETATM    7  C   UNL     1      -8.061   7.004  65.721  1.00  0.00    -0.123 A  
HETATM    8  H   UNL     1      -8.275   8.149  68.004  1.00  0.00     0.000 HD 
HETATM    9  C   UNL     1      -7.954   6.154  64.612  1.00  0.00    -0.124 A  
HETATM   10  C   UNL     1      -8.232   4.788  64.738  1.00  0.00    -0.122 A  
BRANCH   7  11
HETATM   11  C   UNL     1      -7.785   8.463  65.587  1.00  0.00    -0.099 C  
HETATM   12  O   UNL     1      -6.786   8.945  66.117  1.00  0.00    -0.068 OA 
BRANCH  11  13
HETATM   13  C   UNL     1      -8.642   9.367  64.762  1.00  0.00    -0.202 A  
HETATM   14  C   UNL     1      -9.702  10.025  65.405  1.00  0.00    -0.368 A  
HETATM   15  C   UNL     1     -10.522  10.911  64.704  1.00  0.00    -0.384 A  
HETATM   16  C   UNL     1     -10.290  11.147  63.352  1.00  0.00    -0.419 A  
HETATM   17  C   UNL     1      -9.260  10.474  62.693  1.00  0.00    -0.329 A  
HETATM   18  C   UNL     1      -8.447   9.574  63.390  1.00  0.00    -0.197 A  
ENDBRANCH  11  13
ENDBRANCH   7  11
ENDBRANCH   2   3
TORSDOF 3
ENDMDL
MODEL      215
REMARK 921   NORMALIZED FREE ENERGY PREDICTED BY IDOCK:   -2.91 KCAL/MOL
REMARK 922        TOTAL FREE ENERGY PREDICTED BY IDOCK:   -3.81 KCAL/MOL
REMARK 923 INTER-LIGAND FREE ENERGY PREDICTED BY IDOCK:   -3.17 KCAL/MOL
REMARK 924 INTRA-LIGAND FREE ENERGY PREDICTED BY IDOCK:   -0.64 KCAL/MOL
REMARK 927      BINDING AFFINITY PREDICTED BY RF-SCORE:    0.00 PKD
ROOT
HETATM    1  C   UNL     1     -12.955  10.981  71.488  1.00  0.00    -0.448 C  
HETATM    2  O   UNL     1     -12.963   9.556  71.564  1.00  0.00    -0.342 OA 
ENDROOT
BRANCH   2   3
HETATM    3  C   UNL     1     -11.777   8.957  71.237  1.00  0.00    -0.306 A  
HETATM    4  C   UNL     1     -10.826   9.506  70.377  1.00  0.00    -0.338 A  
HETATM    5  C   UNL     1      -9.675   8.782  70.055  1.00  0.00    -0.173 A  
HETATM    6  O   UNL     1      -8.801   9.332  69.158  1.00  0.00    -0.134 OA 
HETATM    7  C   UNL     1      -9.445   7.513  70.604  1.00  0.00    -0.164 A  
HETATM    8  H   UNL     1      -8.019   8.840  68.940  1.00  0.00     0.000 HD 
HETATM    9  C   UNL     1     -10.360   7.012  71.540  1.00  0.00    -0.218 A  
HETATM   10  C   UNL     1     -11.524   7.727  71.844  1.00  0.00    -0.320 A  
BRANCH   7  11
HETATM   11  C   UNL     1      -8.213   6.745  70.263  1.00  0.00    -0.125 C  
HETATM   12  O   UNL     1      -7.109   7.234  70.490  1.00  0.00    -0.060 OA 
BRANCH  11  13
HETATM   13  C   UNL     1      -8.263   5.354  69.718  1.00  0.00    -0.100 A  
HETATM   14  C   UNL     1      -8.259   4.294  70.638  1.00  0.00    -0.076 A  
HETATM   15  C   UNL     1      -8.340   2.971  70.201  1.00  0.00    -0.076 A  
HETATM   16  C   UNL     1      -8.425   2.695  68.840  1.00  0.00    -0.099 A  
HETATM   17  C   UNL     1      -8.395   3.739  67.913  1.00  0.00    -0.100 A  
HETATM   18  C   UNL     1      -8.299   5.065  68.348  1.00  0.00    -0.088 A  
ENDBRANCH  11  13
ENDBRANCH   7  11
ENDBRANCH   2   3
TORSDOF 3
ENDMDL
MODEL      216
REMARK 921   NORMALIZED FREE ENERGY PREDICTED BY IDOCK:   -2.85 KCAL/MOL
REMARK 922        TOTAL FREE ENERGY PREDICTED BY IDOCK:   -3.74 KCAL/MOL
REMARK 923 INTER-LIGAND FREE ENERGY PREDICTED BY IDOCK:   -3.30 KCAL/MOL
REMARK 924 INTRA-LIGAND FREE ENERGY PREDICTED BY IDOCK:   -0.44 KCAL/MOL
REMARK 927      BINDING AFFINITY PREDICTED BY RF-SCORE:    0.00 PKD
ROOT
HETATM    1  C   UNL     1      -6.450   3.077  65.792  1.00  0.00    -0.032 C  
HETATM    2  O   UNL     1      -7.467   3.731  65.033  1.00  0.00    -0.071 OA 
ENDROOT
BRANCH   2   3
HETATM    3  C   UNL     1      -8.113   4.743  65.689  1.00  0.00    -0.111 A  
HETATM    4  C   UNL     1      -7.719   6.080  65.660  1.00  0.00    -0.094 A  
HETATM    5  C   UNL     1      -8.410   7.028  66.420  1.00  0.00    -0.125 A  
HETATM    6  O   UNL     1      -7.948   8.315  66.413  1.00  0.00    -0.093 OA 
HETATM    7  C   UNL     1      -9.515   6.660  67.199  1.00  0.00    -0.158 A  
HETATM    8  H   UNL     1      -8.418   8.960  66.929  1.00  0.00     0.000 HD 
HETATM    9  C   UNL     1      -9.960   5.332  67.146  1.00  0.00    -0.211 A  
HETATM   10  C   UNL     1      -9.254   4.379  66.403  1.00  0.00    -0.142 A  
BRANCH   7  11
HETATM   11  C   UNL     1     -10.253   7.675  68.006  1.00  0.00    -0.202 C  
HETATM   12  O   UNL     1     -10.773   8.636  67.444  1.00  0.00    -0.264 OA 
BRANCH  11  13
HETATM   13  C   UNL     1     -10.455   7.532  69.480  1.00  0.00    -0.227 A  
HETATM   14  C   UNL     1     -11.217   6.444  69.930  1.00  0.00    -0.485 A  
HETATM   15  C   UNL     1     -11.416   6.229  71.294  1.00  0.00    -0.352 A  
HETATM   16  C   UNL     1     -10.856   7.102  72.222  1.00  0.00    -0.264 A  
HETATM   17  C   UNL     1     -10.123   8.207  71.786  1.00  0.00    -0.267 A  
HETATM   18  C   UNL     1      -9.936   8.433  70.418  1.00  0.00    -0.199 A  
ENDBRANCH  11  13
ENDBRANCH   7  11
ENDBRANCH   2   3
TORSDOF 3
ENDMDL
MODEL      217
REMARK 921   NORMALIZED FREE ENERGY PREDICTED BY IDOCK:   -2.79 KCAL/MOL
REMARK 922        TOTAL FREE ENERGY PREDICTED BY IDOCK:   -3.67 KCAL/MOL
REMARK 923 INTER-LIGAND FREE ENERGY PREDICTED BY IDOCK:   -2.94 KCAL/MOL
REMARK 924 INTRA-LIGAND FREE ENERGY PREDICTED BY IDOCK:   -0.73 KCAL/MOL
REMARK 927      BINDING AFFINITY PREDICTED BY RF-SCORE:    0.00 PKD
ROOT
HETATM    1  C   UNL     1      -6.567   2.702  65.712  1.00  0.00    -0.032 C  
HETATM    2  O   UNL     1      -7.703   3.563  65.628  1.00  0.00    -0.080 OA 
ENDROOT
BRANCH   2   3
HETATM    3  C   UNL     1      -8.061   4.160  66.806  1.00  0.00    -0.101 A  
HETATM    4  C   UNL     1      -7.163   4.742  67.699  1.00  0.00    -0.070 A  
HETATM    5  C   UNL     1      -7.625   5.269  68.909  1.00  0.00    -0.081 A  
HETATM    6  O   UNL     1      -6.701   5.772  69.783  1.00  0.00    -0.048 OA 
HETATM    7  C   UNL     1      -8.988   5.242  69.233  1.00  0.00    -0.126 A  
HETATM    8  H   UNL     1      -7.014   6.130  70.605  1.00  0.00     0.000 HD 
HETATM    9  C   UNL     1      -9.892   4.740  68.286  1.00  0.00    -0.181 A  
HETATM   10  C   UNL     1      -9.427   4.193  67.085  1.00  0.00    -0.215 A  
BRANCH   7  11
HETATM   11  C   UNL     1      -9.478   5.809  70.522  1.00  0.00    -0.167 C  
HETATM   12  O   UNL     1      -9.225   5.231  71.577  1.00  0.00    -0.143 OA 
BRANCH  11  13
HETATM   13  C   UNL     1     -10.213   7.108  70.597  1.00  0.00    -0.205 A  
HETATM   14  C   UNL     1     -11.297   7.193  71.483  1.00  0.00    -0.285 A  
HETATM   15  C   UNL     1     -12.006   8.386  71.630  1.00  0.00    -0.357 A  
HETATM   16  C   UNL     1     -11.638   9.506  70.891  1.00  0.00    -0.398 A  
HETATM   17  C   UNL     1     -10.582   9.426  69.981  1.00  0.00    -0.267 A  
HETATM   18  C   UNL     1      -9.880   8.226  69.821  1.00  0.00    -0.187 A  
ENDBRANCH  11  13
ENDBRANCH   7  11
ENDBRANCH   2   3
TORSDOF 3
ENDMDL
MODEL      218
REMARK 921   NORMALIZED FREE ENERGY PREDICTED BY IDOCK:   -2.78 KCAL/MOL
REMARK 922        TOTAL FREE ENERGY PREDICTED BY IDOCK:   -3.65 KCAL/MOL
REMARK 923 INTER-LIGAND FREE ENERGY PREDICTED BY IDOCK:   -2.99 KCAL/MOL
REMARK 924 INTRA-LIGAND FREE ENERGY PREDICTED BY IDOCK:   -0.66 KCAL/MOL
REMARK 927      BINDING AFFINITY PREDICTED BY RF-SCORE:    0.00 PKD
ROOT
HETATM    1  C   UNL     1     -12.488  11.926  71.005  1.00  0.00    -0.290 C  
HETATM    2  O   UNL     1     -12.728  11.074  69.884  1.00  0.00    -0.212 OA 
ENDROOT
BRANCH   2   3
HETATM    3  C   UNL     1     -11.601  10.594  69.275  1.00  0.00    -0.275 A  
HETATM    4  C   UNL     1     -11.374  10.622  67.900  1.00  0.00    -0.342 A  
HETATM    5  C   UNL     1     -10.216  10.045  67.372  1.00  0.00    -0.219 A  
HETATM    6  O   UNL     1     -10.066  10.038  66.012  1.00  0.00    -0.254 OA 
HETATM    7  C   UNL     1      -9.260   9.454  68.208  1.00  0.00    -0.133 A  
HETATM    8  H   UNL     1      -9.279   9.646  65.653  1.00  0.00     0.000 HD 
HETATM    9  C   UNL     1      -9.452   9.515  69.595  1.00  0.00    -0.213 A  
HETATM   10  C   UNL     1     -10.623  10.073  70.122  1.00  0.00    -0.350 A  
BRANCH   7  11
HETATM   11  C   UNL     1      -8.022   8.843  67.642  1.00  0.00    -0.102 C  
HETATM   12  O   UNL     1      -7.187   9.558  67.093  1.00  0.00    -0.086 OA 
BRANCH  11  13
HETATM   13  C   UNL     1      -7.714   7.387  67.780  1.00  0.00    -0.112 A  
HETATM   14  C   UNL     1      -8.020   6.551  66.694  1.00  0.00    -0.109 A  
HETATM   15  C   UNL     1      -7.726   5.188  66.740  1.00  0.00    -0.092 A  
HETATM   16  C   UNL     1      -7.125   4.646  67.872  1.00  0.00    -0.061 A  
HETATM   17  C   UNL     1      -6.847   5.460  68.972  1.00  0.00    -0.055 A  
HETATM   18  C   UNL     1      -7.154   6.824  68.934  1.00  0.00    -0.089 A  
ENDBRANCH  11  13
ENDBRANCH   7  11
ENDBRANCH   2   3
TORSDOF 3
ENDMDL
MODEL      219
REMARK 921   NORMALIZED FREE ENERGY PREDICTED BY IDOCK:   -2.72 KCAL/MOL
REMARK 922        TOTAL FREE ENERGY PREDICTED BY IDOCK:   -3.58 KCAL/MOL
REMARK 923 INTER-LIGAND FREE ENERGY PREDICTED BY IDOCK:   -3.01 KCAL/MOL
REMARK 924 INTRA-LIGAND FREE ENERGY PREDICTED BY IDOCK:   -0.57 KCAL/MOL
REMARK 927      BINDING AFFINITY PREDICTED BY RF-SCORE:    0.00 PKD
ROOT
HETATM    1  C   UNL     1     -10.333   8.382  70.914  1.00  0.00    -0.194 C  
HETATM    2  O   UNL     1     -11.120   7.525  70.086  1.00  0.00    -0.260 OA 
ENDROOT
BRANCH   2   3
HETATM    3  C   UNL     1     -10.512   7.131  68.926  1.00  0.00    -0.207 A  
HETATM    4  C   UNL     1     -11.154   6.454  67.889  1.00  0.00    -0.370 A  
HETATM    5  C   UNL     1     -10.426   6.036  66.772  1.00  0.00    -0.267 A  
HETATM    6  O   UNL     1     -11.083   5.320  65.809  1.00  0.00    -0.762 OA 
HETATM    7  C   UNL     1      -9.056   6.307  66.662  1.00  0.00    -0.152 A  
HETATM    8  H   UNL     1     -10.589   5.036  65.050  1.00  0.00     0.000 HD 
HETATM    9  C   UNL     1      -8.441   7.071  67.665  1.00  0.00    -0.123 A  
HETATM   10  C   UNL     1      -9.166   7.469  68.794  1.00  0.00    -0.145 A  
BRANCH   7  11
HETATM   11  C   UNL     1      -8.282   5.865  65.466  1.00  0.00    -0.137 C  
HETATM   12  O   UNL     1      -8.218   6.594  64.479  1.00  0.00    -0.105 OA 
BRANCH  11  13
HETATM   13  C   UNL     1      -7.509   4.586  65.443  1.00  0.00    -0.081 A  
HETATM   14  C   UNL     1      -6.115   4.666  65.590  1.00  0.00    -0.027 A  
HETATM   15  C   UNL     1      -5.334   3.510  65.613  1.00  0.00    -0.009 A  
HETATM   16  C   UNL     1      -5.938   2.263  65.488  1.00  0.00    -0.018 A  
HETATM   17  C   UNL     1      -7.320   2.171  65.306  1.00  0.00    -0.058 A  
HETATM   18  C   UNL     1      -8.103   3.330  65.267  1.00  0.00    -0.093 A  
ENDBRANCH  11  13
ENDBRANCH   7  11
ENDBRANCH   2   3
TORSDOF 3
ENDMDL
MODEL      220
REMARK 921   NORMALIZED FREE ENERGY PREDICTED BY IDOCK:   -2.69 KCAL/MOL
REMARK 922        TOTAL FREE ENERGY PREDICTED BY IDOCK:   -3.55 KCAL/MOL
REMARK 923 INTER-LIGAND FREE ENERGY PREDICTED BY IDOCK:   -2.78 KCAL/MOL
REMARK 924 INTRA-LIGAND FREE ENERGY PREDICTED BY IDOCK:   -0.76 KCAL/MOL
REMARK 927      BINDING AFFINITY PREDICTED BY RF-SCORE:    0.00 PKD
ROOT
HETATM    1  C   UNL     1     -11.217   5.713  72.991  1.00  0.00    -0.270 C  
HETATM    2  O   UNL     1     -11.688   6.483  71.885  1.00  0.00    -0.296 OA 
ENDROOT
BRANCH   2   3
HETATM    3  C   UNL     1     -10.850   6.509  70.804  1.00  0.00    -0.261 A  
HETATM    4  C   UNL     1     -11.066   5.802  69.622  1.00  0.00    -0.306 A  
HETATM    5  C   UNL     1     -10.113   5.844  68.599  1.00  0.00    -0.168 A  
HETATM    6  O   UNL     1     -10.336   5.084  67.484  1.00  0.00    -0.160 OA 
HETATM    7  C   UNL     1      -8.946   6.608  68.733  1.00  0.00    -0.125 A  
HETATM    8  H   UNL     1      -9.689   5.112  66.789  1.00  0.00     0.000 HD 
HETATM    9  C   UNL     1      -8.785   7.389  69.886  1.00  0.00    -0.141 A  
HETATM   10  C   UNL     1      -9.728   7.329  70.918  1.00  0.00    -0.170 A  
BRANCH   7  11
HETATM   11  C   UNL     1      -7.934   6.655  67.639  1.00  0.00    -0.115 C  
HETATM   12  O   UNL     1      -7.344   5.628  67.311  1.00  0.00    -0.074 OA 
BRANCH  11  13
HETATM   13  C   UNL     1      -7.654   7.900  66.861  1.00  0.00    -0.099 A  
HETATM   14  C   UNL     1      -8.716   8.471  66.142  1.00  0.00    -0.176 A  
HETATM   15  C   UNL     1      -8.535   9.653  65.423  1.00  0.00    -0.155 A  
HETATM   16  C   UNL     1      -7.291  10.276  65.414  1.00  0.00    -0.144 A  
HETATM   17  C   UNL     1      -6.218   9.700  66.098  1.00  0.00    -0.068 A  
HETATM   18  C   UNL     1      -6.393   8.507  66.807  1.00  0.00    -0.056 A  
ENDBRANCH  11  13
ENDBRANCH   7  11
ENDBRANCH   2   3
TORSDOF 3
ENDMDL
MODEL      221
REMARK 921   NORMALIZED FREE ENERGY PREDICTED BY IDOCK:   -2.59 KCAL/MOL
REMARK 922        TOTAL FREE ENERGY PREDICTED BY IDOCK:   -3.43 KCAL/MOL
REMARK 923 INTER-LIGAND FREE ENERGY PREDICTED BY IDOCK:   -2.90 KCAL/MOL
REMARK 924 INTRA-LIGAND FREE ENERGY PREDICTED BY IDOCK:   -0.53 KCAL/MOL
REMARK 927      BINDING AFFINITY PREDICTED BY RF-SCORE:    0.00 PKD
ROOT
HETATM    1  C   UNL     1     -12.612  11.639  71.124  1.00  0.00    -0.335 C  
HETATM    2  O   UNL     1     -12.781  11.116  69.806  1.00  0.00    -0.147 OA 
ENDROOT
BRANCH   2   3
HETATM    3  C   UNL     1     -11.639  10.636  69.226  1.00  0.00    -0.275 A  
HETATM    4  C   UNL     1     -10.641   9.941  69.907  1.00  0.00    -0.312 A  
HETATM    5  C   UNL     1      -9.479   9.550  69.236  1.00  0.00    -0.169 A  
HETATM    6  O   UNL     1      -8.499   8.927  69.958  1.00  0.00    -0.121 OA 
HETATM    7  C   UNL     1      -9.307   9.827  67.873  1.00  0.00    -0.139 A  
HETATM    8  H   UNL     1      -7.710   8.661  69.502  1.00  0.00     0.000 HD 
HETATM    9  C   UNL     1     -10.357  10.442  67.176  1.00  0.00    -0.290 A  
HETATM   10  C   UNL     1     -11.510  10.853  67.855  1.00  0.00    -0.344 A  
BRANCH   7  11
HETATM   11  C   UNL     1      -8.069   9.405  67.157  1.00  0.00    -0.102 C  
HETATM   12  O   UNL     1      -7.131  10.191  67.048  1.00  0.00    -0.087 OA 
BRANCH  11  13
HETATM   13  C   UNL     1      -7.887   8.021  66.622  1.00  0.00    -0.098 A  
HETATM   14  C   UNL     1      -6.657   7.388  66.860  1.00  0.00    -0.057 A  
HETATM   15  C   UNL     1      -6.431   6.083  66.421  1.00  0.00    -0.046 A  
HETATM   16  C   UNL     1      -7.432   5.398  65.738  1.00  0.00    -0.081 A  
HETATM   17  C   UNL     1      -8.647   6.029  65.465  1.00  0.00    -0.145 A  
HETATM   18  C   UNL     1      -8.871   7.342  65.891  1.00  0.00    -0.149 A  
ENDBRANCH  11  13
ENDBRANCH   7  11
ENDBRANCH   2   3
TORSDOF 3
ENDMDL
MODEL      222
REMARK 921   NORMALIZED FREE ENERGY PREDICTED BY IDOCK:   -2.59 KCAL/MOL
REMARK 922        TOTAL FREE ENERGY PREDICTED BY IDOCK:   -3.43 KCAL/MOL
REMARK 923 INTER-LIGAND FREE ENERGY PREDICTED BY IDOCK:   -2.84 KCAL/MOL
REMARK 924 INTRA-LIGAND FREE ENERGY PREDICTED BY IDOCK:   -0.59 KCAL/MOL
REMARK 927      BINDING AFFINITY PREDICTED BY RF-SCORE:    0.00 PKD
ROOT
HETATM    1  C   UNL     1      -9.923   3.497  72.370  1.00  0.00    -0.167 C  
HETATM    2  O   UNL     1      -9.620   3.223  71.002  1.00  0.00    -0.153 OA 
ENDROOT
BRANCH   2   3
HETATM    3  C   UNL     1      -9.536   4.328  70.200  1.00  0.00    -0.198 A  
HETATM    4  C   UNL     1     -10.562   5.256  70.024  1.00  0.00    -0.300 A  
HETATM    5  C   UNL     1     -10.399   6.317  69.129  1.00  0.00    -0.216 A  
HETATM    6  O   UNL     1     -11.456   7.165  68.941  1.00  0.00    -0.457 OA 
HETATM    7  C   UNL     1      -9.204   6.480  68.416  1.00  0.00    -0.121 A  
HETATM    8  H   UNL     1     -11.345   7.887  68.333  1.00  0.00     0.000 HD 
HETATM    9  C   UNL     1      -8.145   5.598  68.672  1.00  0.00    -0.100 A  
HETATM   10  C   UNL     1      -8.317   4.522  69.551  1.00  0.00    -0.082 A  
BRANCH   7  11
HETATM   11  C   UNL     1      -9.030   7.617  67.466  1.00  0.00    -0.126 C  
HETATM   12  O   UNL     1      -9.414   7.502  66.304  1.00  0.00    -0.169 OA 
BRANCH  11  13
HETATM   13  C   UNL     1      -8.468   8.935  67.890  1.00  0.00    -0.125 A  
HETATM   14  C   UNL     1      -8.351   9.937  66.914  1.00  0.00    -0.124 A  
HETATM   15  C   UNL     1      -7.868  11.203  67.246  1.00  0.00    -0.137 A  
HETATM   16  C   UNL     1      -7.496  11.480  68.558  1.00  0.00    -0.115 A  
HETATM   17  C   UNL     1      -7.575  10.482  69.532  1.00  0.00    -0.148 A  
HETATM   18  C   UNL     1      -8.045   9.207  69.197  1.00  0.00    -0.105 A  
ENDBRANCH  11  13
ENDBRANCH   7  11
ENDBRANCH   2   3
TORSDOF 3
ENDMDL
MODEL      223
REMARK 921   NORMALIZED FREE ENERGY PREDICTED BY IDOCK:   -2.57 KCAL/MOL
REMARK 922        TOTAL FREE ENERGY PREDICTED BY IDOCK:   -3.41 KCAL/MOL
REMARK 923 INTER-LIGAND FREE ENERGY PREDICTED BY IDOCK:   -2.92 KCAL/MOL
REMARK 924 INTRA-LIGAND FREE ENERGY PREDICTED BY IDOCK:   -0.49 KCAL/MOL
REMARK 927      BINDING AFFINITY PREDICTED BY RF-SCORE:    0.00 PKD
ROOT
HETATM    1  C   UNL     1      -7.964   7.424  66.752  1.00  0.00    -0.115 C  
HETATM    2  O   UNL     1      -7.644   8.555  65.942  1.00  0.00    -0.083 OA 
ENDROOT
BRANCH   2   3
HETATM    3  C   UNL     1      -7.674   9.757  66.595  1.00  0.00    -0.102 A  
HETATM    4  C   UNL     1      -6.935  10.052  67.739  1.00  0.00    -0.085 A  
HETATM    5  C   UNL     1      -7.087  11.290  68.370  1.00  0.00    -0.081 A  
HETATM    6  O   UNL     1      -6.391  11.511  69.526  1.00  0.00    -0.091 OA 
HETATM    7  C   UNL     1      -7.960  12.257  67.855  1.00  0.00    -0.152 A  
HETATM    8  H   UNL     1      -6.495  12.353  69.954  1.00  0.00     0.000 HD 
HETATM    9  C   UNL     1      -8.626  11.987  66.651  1.00  0.00    -0.143 A  
HETATM   10  C   UNL     1      -8.491  10.738  66.033  1.00  0.00    -0.169 A  
BRANCH   7  11
HETATM   11  C   UNL     1      -8.118  13.580  68.526  1.00  0.00    -0.108 C  
HETATM   12  O   UNL     1      -7.127  14.164  68.960  1.00  0.00    -0.107 OA 
BRANCH  11  13
HETATM   13  C   UNL     1      -9.438  14.272  68.631  1.00  0.00    -0.178 A  
HETATM   14  C   UNL     1      -9.434  15.672  68.716  1.00  0.00    -0.214 A  
HETATM   15  C   UNL     1     -10.632  16.386  68.781  1.00  0.00    -0.310 A  
HETATM   16  C   UNL     1     -11.846  15.705  68.761  1.00  0.00    -0.336 A  
HETATM   17  C   UNL     1     -11.863  14.310  68.710  1.00  0.00    -0.377 A  
HETATM   18  C   UNL     1     -10.663  13.592  68.661  1.00  0.00    -0.272 A  
ENDBRANCH  11  13
ENDBRANCH   7  11
ENDBRANCH   2   3
TORSDOF 3
ENDMDL
MODEL      224
REMARK 921   NORMALIZED FREE ENERGY PREDICTED BY IDOCK:   -2.54 KCAL/MOL
REMARK 922        TOTAL FREE ENERGY PREDICTED BY IDOCK:   -3.37 KCAL/MOL
REMARK 923 INTER-LIGAND FREE ENERGY PREDICTED BY IDOCK:   -2.73 KCAL/MOL
REMARK 924 INTRA-LIGAND FREE ENERGY PREDICTED BY IDOCK:   -0.64 KCAL/MOL
REMARK 927      BINDING AFFINITY PREDICTED BY RF-SCORE:    0.00 PKD
ROOT
HETATM    1  C   UNL     1      -7.414   2.289  69.488  1.00  0.00    -0.043 C  
HETATM    2  O   UNL     1      -8.772   2.699  69.651  1.00  0.00    -0.062 OA 
ENDROOT
BRANCH   2   3
HETATM    3  C   UNL     1      -8.994   4.037  69.473  1.00  0.00    -0.103 A  
HETATM    4  C   UNL     1     -10.252   4.613  69.306  1.00  0.00    -0.059 A  
HETATM    5  C   UNL     1     -10.366   5.985  69.065  1.00  0.00    -0.225 A  
HETATM    6  O   UNL     1     -11.615   6.496  68.842  1.00  0.00    -0.606 OA 
HETATM    7  C   UNL     1      -9.229   6.803  69.010  1.00  0.00    -0.136 A  
HETATM    8  H   UNL     1     -11.692   7.429  68.678  1.00  0.00     0.000 HD 
HETATM    9  C   UNL     1      -7.977   6.230  69.275  1.00  0.00    -0.109 A  
HETATM   10  C   UNL     1      -7.862   4.853  69.493  1.00  0.00    -0.067 A  
BRANCH   7  11
HETATM   11  C   UNL     1      -9.353   8.268  68.758  1.00  0.00    -0.143 C  
HETATM   12  O   UNL     1      -9.613   9.026  69.689  1.00  0.00    -0.164 OA 
BRANCH  11  13
HETATM   13  C   UNL     1      -9.099   8.872  67.414  1.00  0.00    -0.147 A  
HETATM   14  C   UNL     1      -8.848  10.252  67.358  1.00  0.00    -0.134 A  
HETATM   15  C   UNL     1      -8.567  10.876  66.142  1.00  0.00    -0.170 A  
HETATM   16  C   UNL     1      -8.537  10.127  64.970  1.00  0.00    -0.178 A  
HETATM   17  C   UNL     1      -8.819   8.760  65.007  1.00  0.00    -0.151 A  
HETATM   18  C   UNL     1      -9.116   8.135  66.223  1.00  0.00    -0.231 A  
ENDBRANCH  11  13
ENDBRANCH   7  11
ENDBRANCH   2   3
TORSDOF 3
ENDMDL
MODEL      225
REMARK 921   NORMALIZED FREE ENERGY PREDICTED BY IDOCK:   -2.53 KCAL/MOL
REMARK 922        TOTAL FREE ENERGY PREDICTED BY IDOCK:   -3.36 KCAL/MOL
REMARK 923 INTER-LIGAND FREE ENERGY PREDICTED BY IDOCK:   -2.81 KCAL/MOL
REMARK 924 INTRA-LIGAND FREE ENERGY PREDICTED BY IDOCK:   -0.55 KCAL/MOL
REMARK 927      BINDING AFFINITY PREDICTED BY RF-SCORE:    0.00 PKD
ROOT
HETATM    1  C   UNL     1      -8.881  11.566  68.545  1.00  0.00    -0.139 C  
HETATM    2  O   UNL     1      -9.891  10.564  68.425  1.00  0.00    -0.152 OA 
ENDROOT
BRANCH   2   3
HETATM    3  C   UNL     1      -9.687   9.448  69.189  1.00  0.00    -0.165 A  
HETATM    4  C   UNL     1      -8.433   8.974  69.573  1.00  0.00    -0.125 A  
HETATM    5  C   UNL     1      -8.330   7.784  70.300  1.00  0.00    -0.127 A  
HETATM    6  O   UNL     1      -7.078   7.323  70.600  1.00  0.00    -0.062 OA 
HETATM    7  C   UNL     1      -9.474   7.066  70.673  1.00  0.00    -0.165 A  
HETATM    8  H   UNL     1      -7.007   6.515  71.095  1.00  0.00     0.000 HD 
HETATM    9  C   UNL     1     -10.732   7.601  70.363  1.00  0.00    -0.241 A  
HETATM   10  C   UNL     1     -10.834   8.780  69.615  1.00  0.00    -0.175 A  
BRANCH   7  11
HETATM   11  C   UNL     1      -9.361   5.800  71.453  1.00  0.00    -0.146 C  
HETATM   12  O   UNL     1      -9.314   5.844  72.680  1.00  0.00    -0.144 OA 
BRANCH  11  13
HETATM   13  C   UNL     1      -9.378   4.455  70.802  1.00  0.00    -0.224 A  
HETATM   14  C   UNL     1      -9.133   4.397  69.421  1.00  0.00    -0.171 A  
HETATM   15  C   UNL     1      -9.098   3.172  68.754  1.00  0.00    -0.209 A  
HETATM   16  C   UNL     1      -9.310   1.992  69.461  1.00  0.00    -0.160 A  
HETATM   17  C   UNL     1      -9.588   2.038  70.828  1.00  0.00    -0.167 A  
HETATM   18  C   UNL     1      -9.638   3.266  71.496  1.00  0.00    -0.234 A  
ENDBRANCH  11  13
ENDBRANCH   7  11
ENDBRANCH   2   3
TORSDOF 3
ENDMDL
MODEL      226
REMARK 921   NORMALIZED FREE ENERGY PREDICTED BY IDOCK:   -2.53 KCAL/MOL
REMARK 922        TOTAL FREE ENERGY PREDICTED BY IDOCK:   -3.36 KCAL/MOL
REMARK 923 INTER-LIGAND FREE ENERGY PREDICTED BY IDOCK:   -2.93 KCAL/MOL
REMARK 924 INTRA-LIGAND FREE ENERGY PREDICTED BY IDOCK:   -0.43 KCAL/MOL
REMARK 927      BINDING AFFINITY PREDICTED BY RF-SCORE:    0.00 PKD
ROOT
HETATM    1  C   UNL     1      -8.500   7.230  74.426  1.00  0.00    -0.203 C  
HETATM    2  O   UNL     1      -9.640   7.785  73.770  1.00  0.00    -0.288 OA 
ENDROOT
BRANCH   2   3
HETATM    3  C   UNL     1      -9.583   7.764  72.403  1.00  0.00    -0.181 A  
HETATM    4  C   UNL     1     -10.693   7.639  71.569  1.00  0.00    -0.249 A  
HETATM    5  C   UNL     1     -10.521   7.561  70.184  1.00  0.00    -0.222 A  
HETATM    6  O   UNL     1     -11.632   7.373  69.409  1.00  0.00    -0.412 OA 
HETATM    7  C   UNL     1      -9.244   7.630  69.612  1.00  0.00    -0.146 A  
HETATM    8  H   UNL     1     -11.515   7.320  68.468  1.00  0.00     0.000 HD 
HETATM    9  C   UNL     1      -8.144   7.852  70.453  1.00  0.00    -0.114 A  
HETATM   10  C   UNL     1      -8.315   7.907  71.841  1.00  0.00    -0.151 A  
BRANCH   7  11
HETATM   11  C   UNL     1      -9.063   7.552  68.134  1.00  0.00    -0.128 C  
HETATM   12  O   UNL     1      -9.356   6.518  67.539  1.00  0.00    -0.123 OA 
BRANCH  11  13
HETATM   13  C   UNL     1      -8.603   8.720  67.322  1.00  0.00    -0.122 A  
HETATM   14  C   UNL     1      -8.211   9.878  68.010  1.00  0.00    -0.113 A  
HETATM   15  C   UNL     1      -7.738  10.993  67.318  1.00  0.00    -0.118 A  
HETATM   16  C   UNL     1      -7.653  10.961  65.929  1.00  0.00    -0.057 A  
HETATM   17  C   UNL     1      -8.071   9.828  65.230  1.00  0.00    -0.126 A  
HETATM   18  C   UNL     1      -8.561   8.715  65.921  1.00  0.00    -0.177 A  
ENDBRANCH  11  13
ENDBRANCH   7  11
ENDBRANCH   2   3
TORSDOF 3
ENDMDL
MODEL      227
REMARK 921   NORMALIZED FREE ENERGY PREDICTED BY IDOCK:   -2.50 KCAL/MOL
REMARK 922        TOTAL FREE ENERGY PREDICTED BY IDOCK:   -3.32 KCAL/MOL
REMARK 923 INTER-LIGAND FREE ENERGY PREDICTED BY IDOCK:   -2.70 KCAL/MOL
REMARK 924 INTRA-LIGAND FREE ENERGY PREDICTED BY IDOCK:   -0.63 KCAL/MOL
REMARK 927      BINDING AFFINITY PREDICTED BY RF-SCORE:    0.00 PKD
ROOT
HETATM    1  C   UNL     1      -5.626  13.619  69.125  1.00  0.00    -0.075 C  
HETATM    2  O   UNL     1      -6.794  13.477  68.316  1.00  0.00    -0.085 OA 
ENDROOT
BRANCH   2   3
HETATM    3  C   UNL     1      -7.538  12.357  68.572  1.00  0.00    -0.122 A  
HETATM    4  C   UNL     1      -7.195  11.378  69.504  1.00  0.00     0.022 A  
HETATM    5  C   UNL     1      -7.990  10.237  69.643  1.00  0.00    -0.154 A  
HETATM    6  O   UNL     1      -7.581   9.273  70.522  1.00  0.00    -0.107 OA 
HETATM    7  C   UNL     1      -9.149  10.069  68.873  1.00  0.00    -0.159 A  
HETATM    8  H   UNL     1      -8.122   8.498  70.617  1.00  0.00     0.000 HD 
HETATM    9  C   UNL     1      -9.536  11.103  68.009  1.00  0.00    -0.174 A  
HETATM   10  C   UNL     1      -8.726  12.234  67.853  1.00  0.00    -0.177 A  
BRANCH   7  11
HETATM   11  C   UNL     1      -9.999   8.853  69.027  1.00  0.00    -0.190 C  
HETATM   12  O   UNL     1     -10.802   8.786  69.955  1.00  0.00    -0.231 OA 
BRANCH  11  13
HETATM   13  C   UNL     1      -9.970   7.727  68.044  1.00  0.00    -0.210 A  
HETATM   14  C   UNL     1      -8.840   7.612  67.220  1.00  0.00    -0.122 A  
HETATM   15  C   UNL     1      -8.730   6.565  66.305  1.00  0.00    -0.148 A  
HETATM   16  C   UNL     1      -9.749   5.623  66.204  1.00  0.00    -0.127 A  
HETATM   17  C   UNL     1     -10.893   5.745  66.994  1.00  0.00    -0.328 A  
HETATM   18  C   UNL     1     -11.013   6.803  67.901  1.00  0.00    -0.309 A  
ENDBRANCH  11  13
ENDBRANCH   7  11
ENDBRANCH   2   3
TORSDOF 3
ENDMDL
MODEL      228
REMARK 921   NORMALIZED FREE ENERGY PREDICTED BY IDOCK:   -2.48 KCAL/MOL
REMARK 922        TOTAL FREE ENERGY PREDICTED BY IDOCK:   -3.30 KCAL/MOL
REMARK 923 INTER-LIGAND FREE ENERGY PREDICTED BY IDOCK:   -2.57 KCAL/MOL
REMARK 924 INTRA-LIGAND FREE ENERGY PREDICTED BY IDOCK:   -0.73 KCAL/MOL
REMARK 927      BINDING AFFINITY PREDICTED BY RF-SCORE:    0.00 PKD
ROOT
HETATM    1  C   UNL     1     -11.206   5.738  72.999  1.00  0.00    -0.246 C  
HETATM    2  O   UNL     1     -11.569   6.586  71.909  1.00  0.00    -0.281 OA 
ENDROOT
BRANCH   2   3
HETATM    3  C   UNL     1     -10.653   6.642  70.894  1.00  0.00    -0.224 A  
HETATM    4  C   UNL     1      -9.272   6.569  71.074  1.00  0.00    -0.161 A  
HETATM    5  C   UNL     1      -8.417   6.702  69.976  1.00  0.00    -0.139 A  
HETATM    6  O   UNL     1      -7.069   6.689  70.207  1.00  0.00    -0.068 OA 
HETATM    7  C   UNL     1      -8.928   6.887  68.684  1.00  0.00    -0.129 A  
HETATM    8  H   UNL     1      -6.488   6.779  69.461  1.00  0.00     0.000 HD 
HETATM    9  C   UNL     1     -10.318   6.864  68.503  1.00  0.00    -0.204 A  
HETATM   10  C   UNL     1     -11.173   6.753  69.605  1.00  0.00    -0.345 A  
BRANCH   7  11
HETATM   11  C   UNL     1      -8.014   7.024  67.513  1.00  0.00    -0.113 C  
HETATM   12  O   UNL     1      -7.238   7.975  67.456  1.00  0.00    -0.084 OA 
BRANCH  11  13
HETATM   13  C   UNL     1      -7.948   6.001  66.426  1.00  0.00    -0.105 A  
HETATM   14  C   UNL     1      -8.336   6.395  65.136  1.00  0.00    -0.109 A  
HETATM   15  C   UNL     1      -8.265   5.502  64.067  1.00  0.00    -0.117 A  
HETATM   16  C   UNL     1      -7.807   4.205  64.276  1.00  0.00    -0.085 A  
HETATM   17  C   UNL     1      -7.450   3.790  65.561  1.00  0.00    -0.077 A  
HETATM   18  C   UNL     1      -7.535   4.679  66.637  1.00  0.00    -0.086 A  
ENDBRANCH  11  13
ENDBRANCH   7  11
ENDBRANCH   2   3
TORSDOF 3
ENDMDL
MODEL      229
REMARK 921   NORMALIZED FREE ENERGY PREDICTED BY IDOCK:   -2.44 KCAL/MOL
REMARK 922        TOTAL FREE ENERGY PREDICTED BY IDOCK:   -3.25 KCAL/MOL
REMARK 923 INTER-LIGAND FREE ENERGY PREDICTED BY IDOCK:   -2.50 KCAL/MOL
REMARK 924 INTRA-LIGAND FREE ENERGY PREDICTED BY IDOCK:   -0.75 KCAL/MOL
REMARK 927      BINDING AFFINITY PREDICTED BY RF-SCORE:    0.00 PKD
ROOT
HETATM    1  C   UNL     1      -8.543  12.653  67.724  1.00  0.00    -0.179 C  
HETATM    2  O   UNL     1      -9.647  12.184  68.499  1.00  0.00    -0.198 OA 
ENDROOT
BRANCH   2   3
HETATM    3  C   UNL     1      -9.641  10.840  68.754  1.00  0.00    -0.189 A  
HETATM    4  C   UNL     1     -10.644  10.164  69.447  1.00  0.00    -0.261 A  
HETATM    5  C   UNL     1     -10.511   8.799  69.713  1.00  0.00    -0.219 A  
HETATM    6  O   UNL     1     -11.489   8.191  70.451  1.00  0.00    -0.396 OA 
HETATM    7  C   UNL     1      -9.388   8.086  69.272  1.00  0.00    -0.151 A  
HETATM    8  H   UNL     1     -11.398   7.262  70.631  1.00  0.00     0.000 HD 
HETATM    9  C   UNL     1      -8.432   8.754  68.495  1.00  0.00    -0.130 A  
HETATM   10  C   UNL     1      -8.555  10.126  68.249  1.00  0.00    -0.116 A  
BRANCH   7  11
HETATM   11  C   UNL     1      -9.250   6.627  69.553  1.00  0.00    -0.143 C  
HETATM   12  O   UNL     1     -10.205   5.878  69.362  1.00  0.00    -0.183 OA 
BRANCH  11  13
HETATM   13  C   UNL     1      -7.959   6.016  69.992  1.00  0.00    -0.109 A  
HETATM   14  C   UNL     1      -7.432   6.425  71.227  1.00  0.00    -0.089 A  
HETATM   15  C   UNL     1      -6.249   5.870  71.716  1.00  0.00    -0.044 A  
HETATM   16  C   UNL     1      -5.580   4.900  70.974  1.00  0.00    -0.012 A  
HETATM   17  C   UNL     1      -6.076   4.509  69.729  1.00  0.00    -0.019 A  
HETATM   18  C   UNL     1      -7.254   5.075  69.230  1.00  0.00    -0.057 A  
ENDBRANCH  11  13
ENDBRANCH   7  11
ENDBRANCH   2   3
TORSDOF 3
ENDMDL
MODEL      230
REMARK 921   NORMALIZED FREE ENERGY PREDICTED BY IDOCK:   -2.43 KCAL/MOL
REMARK 922        TOTAL FREE ENERGY PREDICTED BY IDOCK:   -3.24 KCAL/MOL
REMARK 923 INTER-LIGAND FREE ENERGY PREDICTED BY IDOCK:   -2.93 KCAL/MOL
REMARK 924 INTRA-LIGAND FREE ENERGY PREDICTED BY IDOCK:   -0.32 KCAL/MOL
REMARK 927      BINDING AFFINITY PREDICTED BY RF-SCORE:    0.00 PKD
ROOT
HETATM    1  C   UNL     1      -8.074  13.356  68.343  1.00  0.00    -0.138 C  
HETATM    2  O   UNL     1      -9.268  12.899  67.707  1.00  0.00    -0.184 OA 
ENDROOT
BRANCH   2   3
HETATM    3  C   UNL     1      -9.230  11.599  67.281  1.00  0.00    -0.170 A  
HETATM    4  C   UNL     1     -10.281  10.694  67.414  1.00  0.00    -0.243 A  
HETATM    5  C   UNL     1     -10.118   9.368  67.004  1.00  0.00    -0.240 A  
HETATM    6  O   UNL     1     -11.154   8.499  67.213  1.00  0.00    -0.401 OA 
HETATM    7  C   UNL     1      -8.913   8.933  66.436  1.00  0.00    -0.193 A  
HETATM    8  H   UNL     1     -11.042   7.598  66.935  1.00  0.00     0.000 HD 
HETATM    9  C   UNL     1      -7.896   9.874  66.220  1.00  0.00    -0.108 A  
HETATM   10  C   UNL     1      -8.052  11.196  66.651  1.00  0.00    -0.159 A  
BRANCH   7  11
HETATM   11  C   UNL     1      -8.742   7.519  65.995  1.00  0.00    -0.158 C  
HETATM   12  O   UNL     1      -8.354   7.280  64.854  1.00  0.00    -0.111 OA 
BRANCH  11  13
HETATM   13  C   UNL     1      -8.955   6.362  66.917  1.00  0.00    -0.126 A  
HETATM   14  C   UNL     1      -9.734   5.292  66.451  1.00  0.00    -0.184 A  
HETATM   15  C   UNL     1      -9.944   4.164  67.245  1.00  0.00    -0.089 A  
HETATM   16  C   UNL     1      -9.378   4.096  68.515  1.00  0.00    -0.216 A  
HETATM   17  C   UNL     1      -8.628   5.167  69.004  1.00  0.00    -0.093 A  
HETATM   18  C   UNL     1      -8.429   6.306  68.215  1.00  0.00    -0.114 A  
ENDBRANCH  11  13
ENDBRANCH   7  11
ENDBRANCH   2   3
TORSDOF 3
ENDMDL
MODEL      231
REMARK 921   NORMALIZED FREE ENERGY PREDICTED BY IDOCK:   -2.42 KCAL/MOL
REMARK 922        TOTAL FREE ENERGY PREDICTED BY IDOCK:   -3.23 KCAL/MOL
REMARK 923 INTER-LIGAND FREE ENERGY PREDICTED BY IDOCK:   -2.63 KCAL/MOL
REMARK 924 INTRA-LIGAND FREE ENERGY PREDICTED BY IDOCK:   -0.61 KCAL/MOL
REMARK 927      BINDING AFFINITY PREDICTED BY RF-SCORE:    0.00 PKD
ROOT
HETATM    1  C   UNL     1      -5.793   8.752  73.977  1.00  0.00    -0.118 C  
HETATM    2  O   UNL     1      -7.211   8.896  74.053  1.00  0.00    -0.393 OA 
ENDROOT
BRANCH   2   3
HETATM    3  C   UNL     1      -7.858   8.856  72.849  1.00  0.00     0.442 A  
HETATM    4  C   UNL     1      -9.196   8.499  72.683  1.00  0.00    -0.269 A  
HETATM    5  C   UNL     1      -9.746   8.426  71.400  1.00  0.00    -0.199 A  
HETATM    6  O   UNL     1     -11.043   8.008  71.281  1.00  0.00    -0.239 OA 
HETATM    7  C   UNL     1      -8.977   8.730  70.269  1.00  0.00    -0.174 A  
HETATM    8  H   UNL     1     -11.416   7.959  70.409  1.00  0.00     0.000 HD 
HETATM    9  C   UNL     1      -7.662   9.180  70.453  1.00  0.00    -0.132 A  
HETATM   10  C   UNL     1      -7.105   9.231  71.736  1.00  0.00     0.229 A  
BRANCH   7  11
HETATM   11  C   UNL     1      -9.567   8.657  68.901  1.00  0.00    -0.159 C  
HETATM   12  O   UNL     1      -9.916   7.570  68.447  1.00  0.00    -0.160 OA 
BRANCH  11  13
HETATM   13  C   UNL     1      -9.824   9.875  68.074  1.00  0.00    -0.170 A  
HETATM   14  C   UNL     1      -8.728  10.465  67.427  1.00  0.00    -0.125 A  
HETATM   15  C   UNL     1      -8.900  11.584  66.610  1.00  0.00    -0.187 A  
HETATM   16  C   UNL     1     -10.170  12.124  66.434  1.00  0.00    -0.245 A  
HETATM   17  C   UNL     1     -11.264  11.566  67.099  1.00  0.00    -0.365 A  
HETATM   18  C   UNL     1     -11.091  10.455  67.930  1.00  0.00    -0.363 A  
ENDBRANCH  11  13
ENDBRANCH   7  11
ENDBRANCH   2   3
TORSDOF 3
ENDMDL
MODEL      232
REMARK 921   NORMALIZED FREE ENERGY PREDICTED BY IDOCK:   -2.38 KCAL/MOL
REMARK 922        TOTAL FREE ENERGY PREDICTED BY IDOCK:   -3.18 KCAL/MOL
REMARK 923 INTER-LIGAND FREE ENERGY PREDICTED BY IDOCK:   -2.65 KCAL/MOL
REMARK 924 INTRA-LIGAND FREE ENERGY PREDICTED BY IDOCK:   -0.53 KCAL/MOL
REMARK 927      BINDING AFFINITY PREDICTED BY RF-SCORE:    0.00 PKD
ROOT
HETATM    1  C   UNL     1      -9.209  11.830  68.680  1.00  0.00    -0.083 C  
HETATM    2  O   UNL     1     -10.364  11.029  68.430  1.00  0.00    -0.169 OA 
ENDROOT
BRANCH   2   3
HETATM    3  C   UNL     1     -10.273   9.737  68.870  1.00  0.00    -0.200 A  
HETATM    4  C   UNL     1     -11.332   9.014  69.417  1.00  0.00     0.224 A  
HETATM    5  C   UNL     1     -11.119   7.719  69.898  1.00  0.00    -0.136 A  
HETATM    6  O   UNL     1     -12.171   7.071  70.485  1.00  0.00    -0.567 OA 
HETATM    7  C   UNL     1      -9.854   7.121  69.820  1.00  0.00    -0.173 A  
HETATM    8  H   UNL     1     -12.026   6.191  70.812  1.00  0.00     0.000 HD 
HETATM    9  C   UNL     1      -8.820   7.821  69.183  1.00  0.00    -0.138 A  
HETATM   10  C   UNL     1      -9.029   9.126  68.721  1.00  0.00    -0.136 A  
BRANCH   7  11
HETATM   11  C   UNL     1      -9.630   5.737  70.330  1.00  0.00    -0.164 C  
HETATM   12  O   UNL     1      -9.581   4.798  69.539  1.00  0.00    -0.144 OA 
BRANCH  11  13
HETATM   13  C   UNL     1      -9.385   5.448  71.776  1.00  0.00    -0.170 A  
HETATM   14  C   UNL     1      -8.089   5.659  72.271  1.00  0.00    -0.108 A  
HETATM   15  C   UNL     1      -7.797   5.443  73.618  1.00  0.00    -0.102 A  
HETATM   16  C   UNL     1      -8.799   5.013  74.484  1.00  0.00    -0.111 A  
HETATM   17  C   UNL     1     -10.084   4.767  73.997  1.00  0.00    -0.226 A  
HETATM   18  C   UNL     1     -10.374   4.968  72.643  1.00  0.00    -0.249 A  
ENDBRANCH  11  13
ENDBRANCH   7  11
ENDBRANCH   2   3
TORSDOF 3
ENDMDL
MODEL      233
REMARK 921   NORMALIZED FREE ENERGY PREDICTED BY IDOCK:   -2.38 KCAL/MOL
REMARK 922        TOTAL FREE ENERGY PREDICTED BY IDOCK:   -3.18 KCAL/MOL
REMARK 923 INTER-LIGAND FREE ENERGY PREDICTED BY IDOCK:   -2.58 KCAL/MOL
REMARK 924 INTRA-LIGAND FREE ENERGY PREDICTED BY IDOCK:   -0.60 KCAL/MOL
REMARK 927      BINDING AFFINITY PREDICTED BY RF-SCORE:    0.00 PKD
ROOT
HETATM    1  C   UNL     1      -7.877   8.530  74.150  1.00  0.00    -0.075 C  
HETATM    2  O   UNL     1      -8.890   8.469  73.146  1.00  0.00    -0.320 OA 
ENDROOT
BRANCH   2   3
HETATM    3  C   UNL     1      -9.081   7.230  72.596  1.00  0.00    -0.139 A  
HETATM    4  C   UNL     1     -10.096   6.350  72.967  1.00  0.00    -0.203 A  
HETATM    5  C   UNL     1     -10.164   5.079  72.390  1.00  0.00    -0.201 A  
HETATM    6  O   UNL     1     -11.137   4.225  72.831  1.00  0.00    -0.156 OA 
HETATM    7  C   UNL     1      -9.237   4.679  71.419  1.00  0.00    -0.192 A  
HETATM    8  H   UNL     1     -11.184   3.362  72.438  1.00  0.00     0.000 HD 
HETATM    9  C   UNL     1      -8.279   5.606  70.984  1.00  0.00    -0.121 A  
HETATM   10  C   UNL     1      -8.197   6.870  71.579  1.00  0.00    -0.110 A  
BRANCH   7  11
HETATM   11  C   UNL     1      -9.314   3.324  70.800  1.00  0.00    -0.153 C  
HETATM   12  O   UNL     1      -9.771   2.385  71.447  1.00  0.00    -0.148 OA 
BRANCH  11  13
HETATM   13  C   UNL     1      -8.924   3.070  69.380  1.00  0.00    -0.175 A  
HETATM   14  C   UNL     1      -9.650   3.729  68.377  1.00  0.00    -0.172 A  
HETATM   15  C   UNL     1      -9.318   3.567  67.032  1.00  0.00    -0.221 A  
HETATM   16  C   UNL     1      -8.255   2.741  66.676  1.00  0.00    -0.084 A  
HETATM   17  C   UNL     1      -7.546   2.053  67.662  1.00  0.00    -0.059 A  
HETATM   18  C   UNL     1      -7.887   2.202  69.010  1.00  0.00    -0.052 A  
ENDBRANCH  11  13
ENDBRANCH   7  11
ENDBRANCH   2   3
TORSDOF 3
ENDMDL
MODEL      234
REMARK 921   NORMALIZED FREE ENERGY PREDICTED BY IDOCK:   -2.33 KCAL/MOL
REMARK 922        TOTAL FREE ENERGY PREDICTED BY IDOCK:   -3.13 KCAL/MOL
REMARK 923 INTER-LIGAND FREE ENERGY PREDICTED BY IDOCK:   -2.74 KCAL/MOL
REMARK 924 INTRA-LIGAND FREE ENERGY PREDICTED BY IDOCK:   -0.38 KCAL/MOL
REMARK 927      BINDING AFFINITY PREDICTED BY RF-SCORE:    0.00 PKD
ROOT
HETATM    1  C   UNL     1     -11.633   6.269  72.027  1.00  0.00    -0.322 C  
HETATM    2  O   UNL     1     -12.126   6.955  70.876  1.00  0.00    -0.366 OA 
ENDROOT
BRANCH   2   3
HETATM    3  C   UNL     1     -11.244   7.038  69.834  1.00  0.00    -0.246 A  
HETATM    4  C   UNL     1     -10.456   8.153  69.554  1.00  0.00    -0.227 A  
HETATM    5  C   UNL     1      -9.633   8.161  68.424  1.00  0.00    -0.147 A  
HETATM    6  O   UNL     1      -8.927   9.300  68.152  1.00  0.00    -0.129 OA 
HETATM    7  C   UNL     1      -9.569   7.049  67.573  1.00  0.00    -0.155 A  
HETATM    8  H   UNL     1      -8.368   9.305  67.384  1.00  0.00     0.000 HD 
HETATM    9  C   UNL     1     -10.292   5.898  67.916  1.00  0.00    -0.262 A  
HETATM   10  C   UNL     1     -11.133   5.900  69.035  1.00  0.00    -0.295 A  
BRANCH   7  11
HETATM   11  C   UNL     1      -8.686   7.058  66.370  1.00  0.00    -0.142 C  
HETATM   12  O   UNL     1      -8.800   7.955  65.538  1.00  0.00    -0.130 OA 
BRANCH  11  13
HETATM   13  C   UNL     1      -7.603   6.049  66.166  1.00  0.00    -0.087 A  
HETATM   14  C   UNL     1      -7.977   4.698  66.089  1.00  0.00    -0.103 A  
HETATM   15  C   UNL     1      -7.023   3.706  65.864  1.00  0.00    -0.062 A  
HETATM   16  C   UNL     1      -5.683   4.054  65.715  1.00  0.00    -0.022 A  
HETATM   17  C   UNL     1      -5.293   5.390  65.824  1.00  0.00    -0.013 A  
HETATM   18  C   UNL     1      -6.246   6.385  66.064  1.00  0.00    -0.038 A  
ENDBRANCH  11  13
ENDBRANCH   7  11
ENDBRANCH   2   3
TORSDOF 3
ENDMDL
MODEL      235
REMARK 921   NORMALIZED FREE ENERGY PREDICTED BY IDOCK:   -2.30 KCAL/MOL
REMARK 922        TOTAL FREE ENERGY PREDICTED BY IDOCK:   -3.09 KCAL/MOL
REMARK 923 INTER-LIGAND FREE ENERGY PREDICTED BY IDOCK:   -2.55 KCAL/MOL
REMARK 924 INTRA-LIGAND FREE ENERGY PREDICTED BY IDOCK:   -0.54 KCAL/MOL
REMARK 927      BINDING AFFINITY PREDICTED BY RF-SCORE:    0.00 PKD
ROOT
HETATM    1  C   UNL     1      -7.494  11.728  66.465  1.00  0.00     0.094 C  
HETATM    2  O   UNL     1      -8.546  10.777  66.296  1.00  0.00    -0.150 OA 
ENDROOT
BRANCH   2   3
HETATM    3  C   UNL     1      -8.468   9.683  67.114  1.00  0.00    -0.131 A  
HETATM    4  C   UNL     1      -9.017   8.436  66.818  1.00  0.00    -0.172 A  
HETATM    5  C   UNL     1      -8.939   7.399  67.751  1.00  0.00    -0.127 A  
HETATM    6  O   UNL     1      -9.548   6.213  67.445  1.00  0.00    -0.113 OA 
HETATM    7  C   UNL     1      -8.293   7.584  68.981  1.00  0.00    -0.129 A  
HETATM    8  H   UNL     1      -9.494   5.508  68.080  1.00  0.00     0.000 HD 
HETATM    9  C   UNL     1      -7.662   8.812  69.229  1.00  0.00    -0.095 A  
HETATM   10  C   UNL     1      -7.761   9.857  68.303  1.00  0.00    -0.085 A  
BRANCH   7  11
HETATM   11  C   UNL     1      -8.206   6.475  69.974  1.00  0.00    -0.130 C  
HETATM   12  O   UNL     1      -7.218   5.745  69.986  1.00  0.00    -0.065 OA 
BRANCH  11  13
HETATM   13  C   UNL     1      -9.252   6.253  71.019  1.00  0.00    -0.160 A  
HETATM   14  C   UNL     1      -9.420   4.947  71.505  1.00  0.00    -0.208 A  
HETATM   15  C   UNL     1     -10.352   4.674  72.506  1.00  0.00    -0.259 A  
HETATM   16  C   UNL     1     -11.127   5.704  73.031  1.00  0.00    -0.327 A  
HETATM   17  C   UNL     1     -10.994   7.001  72.533  1.00  0.00    -0.298 A  
HETATM   18  C   UNL     1     -10.070   7.275  71.518  1.00  0.00    -0.196 A  
ENDBRANCH  11  13
ENDBRANCH   7  11
ENDBRANCH   2   3
TORSDOF 3
ENDMDL
MODEL      236
REMARK 921   NORMALIZED FREE ENERGY PREDICTED BY IDOCK:   -2.29 KCAL/MOL
REMARK 922        TOTAL FREE ENERGY PREDICTED BY IDOCK:   -3.08 KCAL/MOL
REMARK 923 INTER-LIGAND FREE ENERGY PREDICTED BY IDOCK:   -2.64 KCAL/MOL
REMARK 924 INTRA-LIGAND FREE ENERGY PREDICTED BY IDOCK:   -0.43 KCAL/MOL
REMARK 927      BINDING AFFINITY PREDICTED BY RF-SCORE:    0.00 PKD
ROOT
HETATM    1  C   UNL     1     -11.123  10.812  66.080  1.00  0.00     0.136 C  
HETATM    2  O   UNL     1      -9.992  11.355  66.764  1.00  0.00    -0.202 OA 
ENDROOT
BRANCH   2   3
HETATM    3  C   UNL     1      -9.608  10.662  67.879  1.00  0.00    -0.162 A  
HETATM    4  C   UNL     1      -8.386  10.005  68.017  1.00  0.00    -0.117 A  
HETATM    5  C   UNL     1      -8.116   9.269  69.174  1.00  0.00    -0.106 A  
HETATM    6  O   UNL     1      -6.932   8.587  69.239  1.00  0.00    -0.053 OA 
HETATM    7  C   UNL     1      -9.050   9.197  70.216  1.00  0.00    -0.247 A  
HETATM    8  H   UNL     1      -6.749   8.087  70.025  1.00  0.00     0.000 HD 
HETATM    9  C   UNL     1     -10.234   9.939  70.107  1.00  0.00    -0.326 A  
HETATM   10  C   UNL     1     -10.514  10.658  68.939  1.00  0.00    -0.232 A  
BRANCH   7  11
HETATM   11  C   UNL     1      -8.757   8.415  71.452  1.00  0.00    -0.172 C  
HETATM   12  O   UNL     1      -8.673   8.994  72.533  1.00  0.00    -0.318 OA 
BRANCH  11  13
HETATM   13  C   UNL     1      -8.634   6.926  71.445  1.00  0.00    -0.119 A  
HETATM   14  C   UNL     1      -9.766   6.180  71.084  1.00  0.00    -0.199 A  
HETATM   15  C   UNL     1      -9.713   4.787  71.021  1.00  0.00    -0.257 A  
HETATM   16  C   UNL     1      -8.525   4.126  71.321  1.00  0.00    -0.102 A  
HETATM   17  C   UNL     1      -7.401   4.854  71.714  1.00  0.00    -0.071 A  
HETATM   18  C   UNL     1      -7.457   6.249  71.793  1.00  0.00    -0.094 A  
ENDBRANCH  11  13
ENDBRANCH   7  11
ENDBRANCH   2   3
TORSDOF 3
ENDMDL
MODEL      237
REMARK 921   NORMALIZED FREE ENERGY PREDICTED BY IDOCK:   -2.17 KCAL/MOL
REMARK 922        TOTAL FREE ENERGY PREDICTED BY IDOCK:   -2.93 KCAL/MOL
REMARK 923 INTER-LIGAND FREE ENERGY PREDICTED BY IDOCK:   -2.43 KCAL/MOL
REMARK 924 INTRA-LIGAND FREE ENERGY PREDICTED BY IDOCK:   -0.50 KCAL/MOL
REMARK 927      BINDING AFFINITY PREDICTED BY RF-SCORE:    0.00 PKD
ROOT
HETATM    1  C   UNL     1     -10.590  11.780  65.037  1.00  0.00    -0.288 C  
HETATM    2  O   UNL     1      -9.468  12.049  65.877  1.00  0.00    -0.234 OA 
ENDROOT
BRANCH   2   3
HETATM    3  C   UNL     1      -9.155  11.048  66.755  1.00  0.00    -0.162 A  
HETATM    4  C   UNL     1      -7.939  10.366  66.773  1.00  0.00    -0.117 A  
HETATM    5  C   UNL     1      -7.742   9.312  67.670  1.00  0.00    -0.092 A  
HETATM    6  O   UNL     1      -6.559   8.630  67.609  1.00  0.00    -0.060 OA 
HETATM    7  C   UNL     1      -8.746   8.940  68.575  1.00  0.00    -0.134 A  
HETATM    8  H   UNL     1      -6.425   7.914  68.218  1.00  0.00     0.000 HD 
HETATM    9  C   UNL     1      -9.927   9.694  68.613  1.00  0.00    -0.179 A  
HETATM   10  C   UNL     1     -10.132  10.734  67.699  1.00  0.00    -0.205 A  
BRANCH   7  11
HETATM   11  C   UNL     1      -8.532   7.819  69.535  1.00  0.00    -0.131 C  
HETATM   12  O   UNL     1      -8.419   8.058  70.735  1.00  0.00    -0.118 OA 
BRANCH  11  13
HETATM   13  C   UNL     1      -8.522   6.388  69.103  1.00  0.00    -0.122 A  
HETATM   14  C   UNL     1      -9.684   5.883  68.498  1.00  0.00    -0.151 A  
HETATM   15  C   UNL     1      -9.733   4.566  68.039  1.00  0.00    -0.192 A  
HETATM   16  C   UNL     1      -8.621   3.741  68.180  1.00  0.00    -0.115 A  
HETATM   17  C   UNL     1      -7.471   4.221  68.810  1.00  0.00    -0.056 A  
HETATM   18  C   UNL     1      -7.425   5.536  69.285  1.00  0.00    -0.078 A  
ENDBRANCH  11  13
ENDBRANCH   7  11
ENDBRANCH   2   3
TORSDOF 3
ENDMDL
MODEL      238
REMARK 921   NORMALIZED FREE ENERGY PREDICTED BY IDOCK:   -2.11 KCAL/MOL
REMARK 922        TOTAL FREE ENERGY PREDICTED BY IDOCK:   -2.87 KCAL/MOL
REMARK 923 INTER-LIGAND FREE ENERGY PREDICTED BY IDOCK:   -2.34 KCAL/MOL
REMARK 924 INTRA-LIGAND FREE ENERGY PREDICTED BY IDOCK:   -0.53 KCAL/MOL
REMARK 927      BINDING AFFINITY PREDICTED BY RF-SCORE:    0.00 PKD
ROOT
HETATM    1  C   UNL     1      -5.701   8.639  73.981  1.00  0.00    -0.113 C  
HETATM    2  O   UNL     1      -7.089   8.462  73.698  1.00  0.00    -0.178 OA 
ENDROOT
BRANCH   2   3
HETATM    3  C   UNL     1      -7.380   8.211  72.385  1.00  0.00    -0.106 A  
HETATM    4  C   UNL     1      -8.530   7.560  71.942  1.00  0.00    -0.120 A  
HETATM    5  C   UNL     1      -8.702   7.293  70.581  1.00  0.00    -0.147 A  
HETATM    6  O   UNL     1      -9.815   6.595  70.199  1.00  0.00    -0.167 OA 
HETATM    7  C   UNL     1      -7.741   7.692  69.642  1.00  0.00    -0.099 A  
HETATM    8  H   UNL     1      -9.931   6.414  69.274  1.00  0.00     0.000 HD 
HETATM    9  C   UNL     1      -6.635   8.429  70.087  1.00  0.00    -0.039 A  
HETATM   10  C   UNL     1      -6.453   8.676  71.452  1.00  0.00    -0.066 A  
BRANCH   7  11
HETATM   11  C   UNL     1      -7.929   7.411  68.189  1.00  0.00    -0.123 C  
HETATM   12  O   UNL     1      -7.976   6.248  67.796  1.00  0.00    -0.111 OA 
BRANCH  11  13
HETATM   13  C   UNL     1      -8.139   8.498  67.185  1.00  0.00    -0.104 A  
HETATM   14  C   UNL     1      -9.284   8.424  66.377  1.00  0.00    -0.253 A  
HETATM   15  C   UNL     1      -9.562   9.423  65.443  1.00  0.00    -0.296 A  
HETATM   16  C   UNL     1      -8.698  10.505  65.307  1.00  0.00    -0.200 A  
HETATM   17  C   UNL     1      -7.538  10.572  66.081  1.00  0.00    -0.135 A  
HETATM   18  C   UNL     1      -7.249   9.564  67.007  1.00  0.00    -0.087 A  
ENDBRANCH  11  13
ENDBRANCH   7  11
ENDBRANCH   2   3
TORSDOF 3
ENDMDL
MODEL      239
REMARK 921   NORMALIZED FREE ENERGY PREDICTED BY IDOCK:   -2.10 KCAL/MOL
REMARK 922        TOTAL FREE ENERGY PREDICTED BY IDOCK:   -2.86 KCAL/MOL
REMARK 923 INTER-LIGAND FREE ENERGY PREDICTED BY IDOCK:   -2.28 KCAL/MOL
REMARK 924 INTRA-LIGAND FREE ENERGY PREDICTED BY IDOCK:   -0.57 KCAL/MOL
REMARK 927      BINDING AFFINITY PREDICTED BY RF-SCORE:    0.00 PKD
ROOT
HETATM    1  C   UNL     1      -7.812  10.859  67.272  1.00  0.00    -0.116 C  
HETATM    2  O   UNL     1      -8.831   9.971  66.812  1.00  0.00    -0.131 OA 
ENDROOT
BRANCH   2   3
HETATM    3  C   UNL     1      -8.772   8.708  67.335  1.00  0.00    -0.134 A  
HETATM    4  C   UNL     1      -7.734   8.234  68.136  1.00  0.00    -0.106 A  
HETATM    5  C   UNL     1      -7.736   6.904  68.567  1.00  0.00    -0.113 A  
HETATM    6  O   UNL     1      -6.666   6.465  69.297  1.00  0.00    -0.045 OA 
HETATM    7  C   UNL     1      -8.782   6.038  68.224  1.00  0.00    -0.113 A  
HETATM    8  H   UNL     1      -6.667   5.561  69.589  1.00  0.00     0.000 HD 
HETATM    9  C   UNL     1      -9.867   6.550  67.498  1.00  0.00    -0.150 A  
HETATM   10  C   UNL     1      -9.853   7.876  67.048  1.00  0.00    -0.293 A  
BRANCH   7  11
HETATM   11  C   UNL     1      -8.784   4.620  68.688  1.00  0.00    -0.097 C  
HETATM   12  O   UNL     1      -8.227   3.758  68.013  1.00  0.00    -0.086 OA 
BRANCH  11  13
HETATM   13  C   UNL     1      -9.380   4.208  69.995  1.00  0.00    -0.237 A  
HETATM   14  C   UNL     1      -9.588   2.837  70.213  1.00  0.00    -0.132 A  
HETATM   15  C   UNL     1     -10.107   2.378  71.424  1.00  0.00     0.057 A  
HETATM   16  C   UNL     1     -10.425   3.286  72.430  1.00  0.00    -0.086 A  
HETATM   17  C   UNL     1     -10.254   4.655  72.214  1.00  0.00    -0.256 A  
HETATM   18  C   UNL     1      -9.749   5.118  70.995  1.00  0.00    -0.245 A  
ENDBRANCH  11  13
ENDBRANCH   7  11
ENDBRANCH   2   3
TORSDOF 3
ENDMDL
MODEL      240
REMARK 921   NORMALIZED FREE ENERGY PREDICTED BY IDOCK:   -2.01 KCAL/MOL
REMARK 922        TOTAL FREE ENERGY PREDICTED BY IDOCK:   -2.75 KCAL/MOL
REMARK 923 INTER-LIGAND FREE ENERGY PREDICTED BY IDOCK:   -2.26 KCAL/MOL
REMARK 924 INTRA-LIGAND FREE ENERGY PREDICTED BY IDOCK:   -0.49 KCAL/MOL
REMARK 927      BINDING AFFINITY PREDICTED BY RF-SCORE:    0.00 PKD
ROOT
HETATM    1  C   UNL     1      -8.143   7.857  74.068  1.00  0.00    -0.226 C  
HETATM    2  O   UNL     1      -8.946   6.858  73.438  1.00  0.00    -0.125 OA 
ENDROOT
BRANCH   2   3
HETATM    3  C   UNL     1      -8.760   6.738  72.088  1.00  0.00    -0.132 A  
HETATM    4  C   UNL     1      -7.618   6.203  71.494  1.00  0.00    -0.099 A  
HETATM    5  C   UNL     1      -7.498   6.186  70.101  1.00  0.00    -0.094 A  
HETATM    6  O   UNL     1      -6.334   5.712  69.563  1.00  0.00    -0.033 OA 
HETATM    7  C   UNL     1      -8.525   6.679  69.284  1.00  0.00    -0.124 A  
HETATM    8  H   UNL     1      -6.253   5.700  68.617  1.00  0.00     0.000 HD 
HETATM    9  C   UNL     1      -9.707   7.126  69.890  1.00  0.00    -0.170 A  
HETATM   10  C   UNL     1      -9.817   7.164  71.285  1.00  0.00    -0.178 A  
BRANCH   7  11
HETATM   11  C   UNL     1      -8.397   6.655  67.798  1.00  0.00    -0.122 C  
HETATM   12  O   UNL     1      -8.216   5.586  67.220  1.00  0.00    -0.102 OA 
BRANCH  11  13
HETATM   13  C   UNL     1      -8.556   7.884  66.962  1.00  0.00    -0.128 A  
HETATM   14  C   UNL     1      -8.527   9.125  67.617  1.00  0.00    -0.116 A  
HETATM   15  C   UNL     1      -8.634  10.314  66.895  1.00  0.00    -0.127 A  
HETATM   16  C   UNL     1      -8.771  10.274  65.510  1.00  0.00    -0.176 A  
HETATM   17  C   UNL     1      -8.835   9.045  64.850  1.00  0.00    -0.190 A  
HETATM   18  C   UNL     1      -8.744   7.852  65.574  1.00  0.00    -0.112 A  
ENDBRANCH  11  13
ENDBRANCH   7  11
ENDBRANCH   2   3
TORSDOF 3
ENDMDL
MODEL      241
REMARK 921   NORMALIZED FREE ENERGY PREDICTED BY IDOCK:   -1.87 KCAL/MOL
REMARK 922        TOTAL FREE ENERGY PREDICTED BY IDOCK:   -2.58 KCAL/MOL
REMARK 923 INTER-LIGAND FREE ENERGY PREDICTED BY IDOCK:   -1.94 KCAL/MOL
REMARK 924 INTRA-LIGAND FREE ENERGY PREDICTED BY IDOCK:   -0.64 KCAL/MOL
REMARK 927      BINDING AFFINITY PREDICTED BY RF-SCORE:    0.00 PKD
ROOT
HETATM    1  C   UNL     1      -8.283   8.008  74.215  1.00  0.00    -0.253 C  
HETATM    2  O   UNL     1      -9.060   6.999  73.570  1.00  0.00    -0.135 OA 
ENDROOT
BRANCH   2   3
HETATM    3  C   UNL     1      -8.828   6.864  72.228  1.00  0.00    -0.134 A  
HETATM    4  C   UNL     1      -9.700   7.294  71.230  1.00  0.00    -0.168 A  
HETATM    5  C   UNL     1      -9.399   7.049  69.887  1.00  0.00    -0.150 A  
HETATM    6  O   UNL     1     -10.314   7.431  68.945  1.00  0.00    -0.198 OA 
HETATM    7  C   UNL     1      -8.215   6.395  69.522  1.00  0.00    -0.118 A  
HETATM    8  H   UNL     1     -10.109   7.265  68.032  1.00  0.00     0.000 HD 
HETATM    9  C   UNL     1      -7.301   6.052  70.528  1.00  0.00    -0.085 A  
HETATM   10  C   UNL     1      -7.613   6.277  71.874  1.00  0.00    -0.096 A  
BRANCH   7  11
HETATM   11  C   UNL     1      -7.893   6.139  68.088  1.00  0.00    -0.103 C  
HETATM   12  O   UNL     1      -7.819   7.083  67.304  1.00  0.00    -0.107 OA 
BRANCH  11  13
HETATM   13  C   UNL     1      -7.581   4.773  67.569  1.00  0.00    -0.082 A  
HETATM   14  C   UNL     1      -8.615   4.064  66.939  1.00  0.00    -0.105 A  
HETATM   15  C   UNL     1      -8.385   2.797  66.400  1.00  0.00    -0.093 A  
HETATM   16  C   UNL     1      -7.118   2.227  66.487  1.00  0.00    -0.052 A  
HETATM   17  C   UNL     1      -6.089   2.908  67.141  1.00  0.00    -0.024 A  
HETATM   18  C   UNL     1      -6.322   4.171  67.696  1.00  0.00    -0.037 A  
ENDBRANCH  11  13
ENDBRANCH   7  11
ENDBRANCH   2   3
TORSDOF 3
ENDMDL
MODEL      242
REMARK 921   NORMALIZED FREE ENERGY PREDICTED BY IDOCK:   -1.86 KCAL/MOL
REMARK 922        TOTAL FREE ENERGY PREDICTED BY IDOCK:   -2.58 KCAL/MOL
REMARK 923 INTER-LIGAND FREE ENERGY PREDICTED BY IDOCK:   -2.25 KCAL/MOL
REMARK 924 INTRA-LIGAND FREE ENERGY PREDICTED BY IDOCK:   -0.33 KCAL/MOL
REMARK 927      BINDING AFFINITY PREDICTED BY RF-SCORE:    0.00 PKD
ROOT
HETATM    1  C   UNL     1      -7.066  18.986  69.869  1.00  0.00     0.261 C  
HETATM    2  O   UNL     1      -6.095  18.181  69.200  1.00  0.00    -0.216 OA 
ENDROOT
BRANCH   2   3
HETATM    3  C   UNL     1      -6.437  16.864  69.062  1.00  0.00    -0.202 A  
HETATM    4  C   UNL     1      -7.714  16.352  69.287  1.00  0.00    -0.171 A  
HETATM    5  C   UNL     1      -7.944  14.978  69.181  1.00  0.00    -0.195 A  
HETATM    6  O   UNL     1      -9.197  14.513  69.474  1.00  0.00    -0.397 OA 
HETATM    7  C   UNL     1      -6.911  14.099  68.828  1.00  0.00    -0.104 A  
HETATM    8  H   UNL     1      -9.354  13.579  69.402  1.00  0.00     0.000 HD 
HETATM    9  C   UNL     1      -5.655  14.635  68.511  1.00  0.00    -0.101 A  
HETATM   10  C   UNL     1      -5.419  16.008  68.639  1.00  0.00    -0.101 A  
BRANCH   7  11
HETATM   11  C   UNL     1      -7.161  12.633  68.711  1.00  0.00    -0.083 C  
HETATM   12  O   UNL     1      -6.585  11.856  69.468  1.00  0.00    -0.118 OA 
BRANCH  11  13
HETATM   13  C   UNL     1      -8.152  12.065  67.747  1.00  0.00    -0.149 A  
HETATM   14  C   UNL     1      -8.739  10.832  68.069  1.00  0.00    -0.132 A  
HETATM   15  C   UNL     1      -9.699  10.260  67.233  1.00  0.00    -0.199 A  
HETATM   16  C   UNL     1     -10.081  10.915  66.066  1.00  0.00    -0.303 A  
HETATM   17  C   UNL     1      -9.480  12.126  65.718  1.00  0.00    -0.156 A  
HETATM   18  C   UNL     1      -8.506  12.694  66.547  1.00  0.00     0.119 A  
ENDBRANCH  11  13
ENDBRANCH   7  11
ENDBRANCH   2   3
TORSDOF 3
ENDMDL
MODEL      243
REMARK 921   NORMALIZED FREE ENERGY PREDICTED BY IDOCK:   -1.80 KCAL/MOL
REMARK 922        TOTAL FREE ENERGY PREDICTED BY IDOCK:   -2.50 KCAL/MOL
REMARK 923 INTER-LIGAND FREE ENERGY PREDICTED BY IDOCK:   -2.09 KCAL/MOL
REMARK 924 INTRA-LIGAND FREE ENERGY PREDICTED BY IDOCK:   -0.41 KCAL/MOL
REMARK 927      BINDING AFFINITY PREDICTED BY RF-SCORE:    0.00 PKD
ROOT
HETATM    1  C   UNL     1      -5.198   8.832  73.913  1.00  0.00    -0.098 C  
HETATM    2  O   UNL     1      -6.200   9.539  73.181  1.00  0.00    -0.263 OA 
ENDROOT
BRANCH   2   3
HETATM    3  C   UNL     1      -6.476   9.026  71.943  1.00  0.00    -0.002 A  
HETATM    4  C   UNL     1      -6.842   7.702  71.701  1.00  0.00    -0.053 A  
HETATM    5  C   UNL     1      -7.039   7.261  70.389  1.00  0.00    -0.065 A  
HETATM    6  O   UNL     1      -7.333   5.939  70.195  1.00  0.00    -0.073 OA 
HETATM    7  C   UNL     1      -6.898   8.138  69.306  1.00  0.00    -0.051 A  
HETATM    8  H   UNL     1      -7.468   5.639  69.304  1.00  0.00     0.000 HD 
HETATM    9  C   UNL     1      -6.624   9.488  69.567  1.00  0.00    -0.044 A  
HETATM   10  C   UNL     1      -6.404   9.924  70.878  1.00  0.00    -0.056 A  
BRANCH   7  11
HETATM   11  C   UNL     1      -7.114   7.666  67.907  1.00  0.00    -0.085 C  
HETATM   12  O   UNL     1      -6.177   7.668  67.113  1.00  0.00    -0.049 OA 
BRANCH  11  13
HETATM   13  C   UNL     1      -8.423   7.112  67.443  1.00  0.00    -0.122 A  
HETATM   14  C   UNL     1      -8.408   5.875  66.782  1.00  0.00    -0.109 A  
HETATM   15  C   UNL     1      -9.596   5.281  66.353  1.00  0.00    -0.171 A  
HETATM   16  C   UNL     1     -10.811   5.921  66.581  1.00  0.00    -0.292 A  
HETATM   17  C   UNL     1     -10.837   7.168  67.207  1.00  0.00    -0.382 A  
HETATM   18  C   UNL     1      -9.645   7.772  67.624  1.00  0.00    -0.177 A  
ENDBRANCH  11  13
ENDBRANCH   7  11
ENDBRANCH   2   3
TORSDOF 3
ENDMDL
MODEL      244
REMARK 921   NORMALIZED FREE ENERGY PREDICTED BY IDOCK:    5.84 KCAL/MOL
REMARK 922        TOTAL FREE ENERGY PREDICTED BY IDOCK:    6.48 KCAL/MOL
REMARK 923 INTER-LIGAND FREE ENERGY PREDICTED BY IDOCK:    6.72 KCAL/MOL
REMARK 924 INTRA-LIGAND FREE ENERGY PREDICTED BY IDOCK:   -0.23 KCAL/MOL
REMARK 927      BINDING AFFINITY PREDICTED BY RF-SCORE:    0.00 PKD
ROOT
HETATM    1  C   UNL     1     -13.952   5.591  72.622  1.00  0.00     1.749 C  
HETATM    2  O   UNL     1     -12.771   6.392  72.632  1.00  0.00     0.198 OA 
ENDROOT
BRANCH   2   3
HETATM    3  C   UNL     1     -11.916   6.169  71.587  1.00  0.00    -0.112 A  
HETATM    4  C   UNL     1     -11.879   4.996  70.835  1.00  0.00     2.754 A  
HETATM    5  C   UNL     1     -10.922   4.842  69.828  1.00  0.00     1.118 A  
HETATM    6  O   UNL     1     -10.880   3.650  69.160  1.00  0.00     2.438 OA 
HETATM    7  C   UNL     1     -10.006   5.864  69.543  1.00  0.00    -0.238 A  
HETATM    8  H   UNL     1     -10.230   3.545  68.475  1.00  0.00     0.000 HD 
HETATM    9  C   UNL     1     -10.114   7.075  70.241  1.00  0.00    -0.198 A  
HETATM   10  C   UNL     1     -11.058   7.220  71.264  1.00  0.00    -0.270 A  
BRANCH   7  11
HETATM   11  C   UNL     1      -8.989   5.699  68.465  1.00  0.00    -0.115 C  
HETATM   12  O   UNL     1      -8.872   4.614  67.899  1.00  0.00    -0.103 OA 
BRANCH  11  13
HETATM   13  C   UNL     1      -8.143   6.833  67.983  1.00  0.00    -0.114 A  
HETATM   14  C   UNL     1      -6.750   6.667  68.017  1.00  0.00    -0.071 A  
HETATM   15  C   UNL     1      -5.900   7.670  67.550  1.00  0.00    -0.036 A  
HETATM   16  C   UNL     1      -6.436   8.852  67.045  1.00  0.00    -0.061 A  
HETATM   17  C   UNL     1      -7.819   9.044  67.037  1.00  0.00    -0.098 A  
HETATM   18  C   UNL     1      -8.671   8.045  67.519  1.00  0.00    -0.125 A  
ENDBRANCH  11  13
ENDBRANCH   7  11
ENDBRANCH   2   3
TORSDOF 3
ENDMDL
MODEL      245
REMARK 921   NORMALIZED FREE ENERGY PREDICTED BY IDOCK:   13.39 KCAL/MOL
REMARK 922        TOTAL FREE ENERGY PREDICTED BY IDOCK:   15.36 KCAL/MOL
REMARK 923 INTER-LIGAND FREE ENERGY PREDICTED BY IDOCK:   15.85 KCAL/MOL
REMARK 924 INTRA-LIGAND FREE ENERGY PREDICTED BY IDOCK:   -0.49 KCAL/MOL
REMARK 927      BINDING AFFINITY PREDICTED BY RF-SCORE:    0.00 PKD
ROOT
HETATM    1  C   UNL     1     -13.368  20.049  69.135  1.00  0.00    12.417 C  
HETATM    2  O   UNL     1     -12.883  20.128  67.794  1.00  0.00     3.331 OA 
ENDROOT
BRANCH   2   3
HETATM    3  C   UNL     1     -11.628  19.615  67.606  1.00  0.00     1.129 A  
HETATM    4  C   UNL     1     -11.220  18.929  66.463  1.00  0.00     0.409 A  
HETATM    5  C   UNL     1      -9.933  18.387  66.397  1.00  0.00    -0.386 A  
HETATM    6  O   UNL     1      -9.598  17.666  65.283  1.00  0.00     0.139 OA 
HETATM    7  C   UNL     1      -9.031  18.540  67.458  1.00  0.00    -0.286 A  
HETATM    8  H   UNL     1      -8.723  17.298  65.238  1.00  0.00     0.000 HD 
HETATM    9  C   UNL     1      -9.420  19.313  68.562  1.00  0.00    -0.447 A  
HETATM   10  C   UNL     1     -10.716  19.836  68.637  1.00  0.00     0.153 A  
BRANCH   7  11
HETATM   11  C   UNL     1      -7.657  17.965  67.383  1.00  0.00    -0.206 C  
HETATM   12  O   UNL     1      -7.020  18.046  66.335  1.00  0.00    -0.202 OA 
BRANCH  11  13
HETATM   13  C   UNL     1      -6.983  17.349  68.566  1.00  0.00    -0.215 A  
HETATM   14  C   UNL     1      -6.777  15.961  68.548  1.00  0.00    -0.123 A  
HETATM   15  C   UNL     1      -6.121  15.324  69.603  1.00  0.00    -0.137 A  
HETATM   16  C   UNL     1      -5.666  16.069  70.686  1.00  0.00     0.011 A  
HETATM   17  C   UNL     1      -5.894  17.446  70.732  1.00  0.00     0.337 A  
HETATM   18  C   UNL     1      -6.565  18.084  69.683  1.00  0.00    -0.076 A  
ENDBRANCH  11  13
ENDBRANCH   7  11
ENDBRANCH   2   3
TORSDOF 3
ENDMDL
MODEL      246
REMARK 921   NORMALIZED FREE ENERGY PREDICTED BY IDOCK:   22.48 KCAL/MOL
REMARK 922        TOTAL FREE ENERGY PREDICTED BY IDOCK:   26.03 KCAL/MOL
REMARK 923 INTER-LIGAND FREE ENERGY PREDICTED BY IDOCK:   25.49 KCAL/MOL
REMARK 924 INTRA-LIGAND FREE ENERGY PREDICTED BY IDOCK:    0.54 KCAL/MOL
REMARK 927      BINDING AFFINITY PREDICTED BY RF-SCORE:    0.00 PKD
ROOT
HETATM    1  C   UNL     1      -5.177  14.241  66.622  1.00  0.00     2.679 C  
HETATM    2  O   UNL     1      -5.479  13.555  65.406  1.00  0.00     7.432 OA 
ENDROOT
BRANCH   2   3
HETATM    3  C   UNL     1      -6.566  12.727  65.468  1.00  0.00     5.962 A  
HETATM    4  C   UNL     1      -7.257  12.248  64.356  1.00  0.00     5.969 A  
HETATM    5  C   UNL     1      -8.398  11.460  64.528  1.00  0.00     0.724 A  
HETATM    6  O   UNL     1      -9.081  11.066  63.411  1.00  0.00    -0.264 OA 
HETATM    7  C   UNL     1      -8.851  11.120  65.810  1.00  0.00    -0.182 A  
HETATM    8  H   UNL     1      -9.856  10.530  63.528  1.00  0.00     0.000 HD 
HETATM    9  C   UNL     1      -8.095  11.527  66.918  1.00  0.00    -0.164 A  
HETATM   10  C   UNL     1      -6.966  12.336  66.745  1.00  0.00     0.180 A  
BRANCH   7  11
HETATM   11  C   UNL     1     -10.066  10.274  65.992  1.00  0.00    -0.244 C  
HETATM   12  O   UNL     1     -10.762   9.992  65.020  1.00  0.00     0.255 OA 
BRANCH  11  13
HETATM   13  C   UNL     1     -10.439   9.684  67.314  1.00  0.00    -0.323 A  
HETATM   14  C   UNL     1      -9.607   9.963  68.409  1.00  0.00    -0.157 A  
HETATM   15  C   UNL     1      -9.914   9.475  69.680  1.00  0.00    -0.220 A  
HETATM   16  C   UNL     1     -11.055   8.701  69.867  1.00  0.00    -0.119 A  
HETATM   17  C   UNL     1     -11.873   8.387  68.780  1.00  0.00     1.968 A  
HETATM   18  C   UNL     1     -11.559   8.863  67.502  1.00  0.00     1.994 A  
ENDBRANCH  11  13
ENDBRANCH   7  11
ENDBRANCH   2   3
TORSDOF 3
ENDMDL
