MODEL        1
REMARK 921   NORMALIZED FREE ENERGY PREDICTED BY IDOCK:   -6.44 KCAL/MOL
REMARK 922        TOTAL FREE ENERGY PREDICTED BY IDOCK:   -7.90 KCAL/MOL
REMARK 923 INTER-LIGAND FREE ENERGY PREDICTED BY IDOCK:   -7.57 KCAL/MOL
REMARK 924 INTRA-LIGAND FREE ENERGY PREDICTED BY IDOCK:   -0.33 KCAL/MOL
REMARK 927      BINDING AFFINITY PREDICTED BY RF-SCORE:    0.00 PKD
ROOT
HETATM    1  C   UNL     1     -11.310  10.722  68.812  1.00  0.00    -0.352 C  
HETATM    2  C   UNL     1     -11.300  12.187  69.162  1.00  0.00    -0.333 A  
HETATM    3  C   UNL     1     -12.063  12.592  70.275  1.00  0.00    -0.373 A  
HETATM    4  C   UNL     1     -12.227  13.936  70.664  1.00  0.00    -0.443 A  
HETATM    5  C   UNL     1     -11.500  14.871  69.908  1.00  0.00    -0.284 A  
HETATM    6  C   UNL     1     -10.624  13.151  68.389  1.00  0.00    -0.264 A  
HETATM    7  C   UNL     1      -9.964  15.578  68.012  1.00  0.00    -0.214 C  
HETATM    8  H   UNL     1     -11.023  16.835  69.713  1.00  0.00     0.000 HD 
HETATM    9  C   UNL     1     -10.704  14.510  68.788  1.00  0.00    -0.257 A  
HETATM   10  O   UNL     1     -11.514  16.203  70.225  1.00  0.00    -0.346 OA 
ENDROOT
BRANCH   4  11
HETATM   11  C   UNL     1     -13.134  14.244  71.885  1.00  0.00    -0.445 C  
HETATM   12  C   UNL     1     -12.452  15.017  73.039  1.00  0.00    -0.514 C  
HETATM   13  C   UNL     1     -14.366  15.117  71.508  1.00  0.00    -0.660 C  
HETATM   14  C   UNL     1     -13.658  12.900  72.428  1.00  0.00    -0.577 C  
ENDBRANCH   4  11
BRANCH   6  15
HETATM   15  C   UNL     1      -9.903  12.744  67.113  1.00  0.00    -0.216 C  
BRANCH  15  16
HETATM   16  C   UNL     1     -10.709  12.674  65.833  1.00  0.00    -0.266 A  
HETATM   17  N   UNL     1     -10.100  12.763  64.676  1.00  0.00    -0.518 NA 
HETATM   18  C   UNL     1     -11.174  12.634  63.658  1.00  0.00    -0.466 A  
HETATM   19  H   UNL     1      -9.102  12.893  64.511  1.00  0.00     0.000 HD 
HETATM   20  C   UNL     1     -12.477  12.343  64.411  1.00  0.00    -0.433 A  
HETATM   21  N   UNL     1     -12.052  12.421  65.789  1.00  0.00    -0.610 NA 
ENDBRANCH  15  16
ENDBRANCH   6  15
TORSDOF 3
ENDMDL
MODEL        2
REMARK 921   NORMALIZED FREE ENERGY PREDICTED BY IDOCK:   -6.05 KCAL/MOL
REMARK 922        TOTAL FREE ENERGY PREDICTED BY IDOCK:   -7.44 KCAL/MOL
REMARK 923 INTER-LIGAND FREE ENERGY PREDICTED BY IDOCK:   -7.08 KCAL/MOL
REMARK 924 INTRA-LIGAND FREE ENERGY PREDICTED BY IDOCK:   -0.36 KCAL/MOL
REMARK 927      BINDING AFFINITY PREDICTED BY RF-SCORE:    0.00 PKD
ROOT
HETATM    1  C   UNL     1     -10.329   8.647  68.070  1.00  0.00    -0.277 C  
HETATM    2  C   UNL     1     -10.854  10.057  68.000  1.00  0.00    -0.311 A  
HETATM    3  C   UNL     1     -10.904  10.665  66.730  1.00  0.00    -0.233 A  
HETATM    4  C   UNL     1     -11.280  12.007  66.521  1.00  0.00    -0.387 A  
HETATM    5  C   UNL     1     -11.689  12.701  67.672  1.00  0.00    -0.361 A  
HETATM    6  C   UNL     1     -11.218  10.792  69.144  1.00  0.00    -0.323 A  
HETATM    7  C   UNL     1     -12.111  12.943  70.166  1.00  0.00    -0.373 C  
HETATM    8  H   UNL     1     -12.422  14.459  68.376  1.00  0.00     0.000 HD 
HETATM    9  C   UNL     1     -11.671  12.125  68.971  1.00  0.00    -0.377 A  
HETATM   10  O   UNL     1     -12.146  13.990  67.598  1.00  0.00    -0.382 OA 
ENDROOT
BRANCH   4  11
HETATM   11  C   UNL     1     -11.248  12.564  65.072  1.00  0.00    -0.344 C  
HETATM   12  C   UNL     1     -12.614  13.027  64.511  1.00  0.00    -0.387 C  
HETATM   13  C   UNL     1     -10.327  13.811  64.932  1.00  0.00    -0.420 C  
HETATM   14  C   UNL     1     -10.684  11.458  64.159  1.00  0.00    -0.434 C  
ENDBRANCH   4  11
BRANCH   6  15
HETATM   15  C   UNL     1     -11.047  10.190  70.531  1.00  0.00    -0.400 C  
BRANCH  15  16
HETATM   16  C   UNL     1     -12.216   9.434  71.126  1.00  0.00    -0.323 A  
HETATM   17  N   UNL     1     -12.381   8.166  70.842  1.00  0.00    -0.498 NA 
HETATM   18  C   UNL     1     -13.588   7.749  71.601  1.00  0.00    -0.357 A  
HETATM   19  H   UNL     1     -11.804   7.589  70.230  1.00  0.00     0.000 HD 
HETATM   20  C   UNL     1     -14.020   8.947  72.454  1.00  0.00    -0.448 A  
HETATM   21  N   UNL     1     -13.083   9.965  72.040  1.00  0.00    -0.443 NA 
ENDBRANCH  15  16
ENDBRANCH   6  15
TORSDOF 3
ENDMDL
MODEL        3
REMARK 921   NORMALIZED FREE ENERGY PREDICTED BY IDOCK:   -6.00 KCAL/MOL
REMARK 922        TOTAL FREE ENERGY PREDICTED BY IDOCK:   -7.38 KCAL/MOL
REMARK 923 INTER-LIGAND FREE ENERGY PREDICTED BY IDOCK:   -7.10 KCAL/MOL
REMARK 924 INTRA-LIGAND FREE ENERGY PREDICTED BY IDOCK:   -0.27 KCAL/MOL
REMARK 927      BINDING AFFINITY PREDICTED BY RF-SCORE:    0.00 PKD
ROOT
HETATM    1  C   UNL     1     -10.190  15.640  67.691  1.00  0.00    -0.261 C  
HETATM    2  C   UNL     1     -10.915  14.664  68.580  1.00  0.00    -0.266 A  
HETATM    3  C   UNL     1     -11.535  15.180  69.735  1.00  0.00    -0.321 A  
HETATM    4  C   UNL     1     -12.166  14.378  70.708  1.00  0.00    -0.413 A  
HETATM    5  C   UNL     1     -12.214  13.005  70.413  1.00  0.00    -0.310 A  
HETATM    6  C   UNL     1     -10.931  13.277  68.336  1.00  0.00    -0.289 A  
HETATM    7  C   UNL     1     -11.696  10.949  69.013  1.00  0.00    -0.391 C  
HETATM    8  H   UNL     1     -12.892  11.197  71.040  1.00  0.00     0.000 HD 
HETATM    9  C   UNL     1     -11.618  12.441  69.253  1.00  0.00    -0.379 A  
HETATM   10  O   UNL     1     -12.860  12.125  71.239  1.00  0.00    -0.358 OA 
ENDROOT
BRANCH   4  11
HETATM   11  C   UNL     1     -12.770  15.074  71.957  1.00  0.00    -0.406 C  
HETATM   12  C   UNL     1     -12.636  14.287  73.282  1.00  0.00    -0.202 C  
HETATM   13  C   UNL     1     -12.107  16.450  72.253  1.00  0.00    -0.462 C  
HETATM   14  C   UNL     1     -14.265  15.323  71.675  1.00  0.00    -0.654 C  
ENDBRANCH   4  11
BRANCH   6  15
HETATM   15  C   UNL     1     -10.158  12.695  67.163  1.00  0.00    -0.224 C  
BRANCH  15  16
HETATM   16  C   UNL     1     -10.852  12.628  65.818  1.00  0.00    -0.274 A  
HETATM   17  N   UNL     1     -10.148  12.410  64.735  1.00  0.00    -0.399 NA 
HETATM   18  C   UNL     1     -11.136  12.384  63.626  1.00  0.00    -0.473 A  
HETATM   19  H   UNL     1      -9.138  12.285  64.668  1.00  0.00     0.000 HD 
HETATM   20  C   UNL     1     -12.527  12.506  64.258  1.00  0.00    -0.432 A  
HETATM   21  N   UNL     1     -12.209  12.682  65.655  1.00  0.00    -0.590 NA 
ENDBRANCH  15  16
ENDBRANCH   6  15
TORSDOF 3
ENDMDL
MODEL        4
REMARK 921   NORMALIZED FREE ENERGY PREDICTED BY IDOCK:   -5.93 KCAL/MOL
REMARK 922        TOTAL FREE ENERGY PREDICTED BY IDOCK:   -7.29 KCAL/MOL
REMARK 923 INTER-LIGAND FREE ENERGY PREDICTED BY IDOCK:   -7.08 KCAL/MOL
REMARK 924 INTRA-LIGAND FREE ENERGY PREDICTED BY IDOCK:   -0.21 KCAL/MOL
REMARK 927      BINDING AFFINITY PREDICTED BY RF-SCORE:    0.00 PKD
ROOT
HETATM    1  C   UNL     1     -11.358  15.712  70.470  1.00  0.00    -0.386 C  
HETATM    2  C   UNL     1     -11.078  15.868  68.998  1.00  0.00    -0.294 A  
HETATM    3  C   UNL     1     -10.525  17.092  68.572  1.00  0.00    -0.373 A  
HETATM    4  C   UNL     1     -10.298  17.419  67.220  1.00  0.00    -0.336 A  
HETATM    5  C   UNL     1     -10.589  16.397  66.300  1.00  0.00    -0.242 A  
HETATM    6  C   UNL     1     -11.411  14.882  68.050  1.00  0.00    -0.337 A  
HETATM    7  C   UNL     1     -11.436  14.097  65.631  1.00  0.00    -0.325 C  
HETATM    8  H   UNL     1     -10.545  15.868  64.340  1.00  0.00     0.000 HD 
HETATM    9  C   UNL     1     -11.133  15.142  66.683  1.00  0.00    -0.308 A  
HETATM   10  O   UNL     1     -10.349  16.559  64.962  1.00  0.00    -0.622 OA 
ENDROOT
BRANCH   4  11
HETATM   11  C   UNL     1      -9.724  18.822  66.887  1.00  0.00    -0.344 C  
HETATM   12  C   UNL     1     -10.519  19.629  65.833  1.00  0.00    -0.591 C  
HETATM   13  C   UNL     1      -9.670  19.755  68.132  1.00  0.00    -0.506 C  
HETATM   14  C   UNL     1      -8.281  18.628  66.382  1.00  0.00    -0.295 C  
ENDBRANCH   4  11
BRANCH   6  15
HETATM   15  C   UNL     1     -12.126  13.610  68.482  1.00  0.00    -0.321 C  
BRANCH  15  16
HETATM   16  C   UNL     1     -11.353  12.308  68.427  1.00  0.00    -0.292 A  
HETATM   17  N   UNL     1     -10.238  12.187  69.103  1.00  0.00    -0.420 NA 
HETATM   18  C   UNL     1      -9.772  10.800  68.842  1.00  0.00    -0.198 A  
HETATM   19  H   UNL     1      -9.786  12.893  69.684  1.00  0.00     0.000 HD 
HETATM   20  C   UNL     1     -10.855  10.111  68.005  1.00  0.00    -0.270 A  
HETATM   21  N   UNL     1     -11.795  11.185  67.785  1.00  0.00    -0.622 NA 
ENDBRANCH  15  16
ENDBRANCH   6  15
TORSDOF 3
ENDMDL
MODEL        5
REMARK 921   NORMALIZED FREE ENERGY PREDICTED BY IDOCK:   -5.88 KCAL/MOL
REMARK 922        TOTAL FREE ENERGY PREDICTED BY IDOCK:   -7.23 KCAL/MOL
REMARK 923 INTER-LIGAND FREE ENERGY PREDICTED BY IDOCK:   -6.87 KCAL/MOL
REMARK 924 INTRA-LIGAND FREE ENERGY PREDICTED BY IDOCK:   -0.36 KCAL/MOL
REMARK 927      BINDING AFFINITY PREDICTED BY RF-SCORE:    0.00 PKD
ROOT
HETATM    1  C   UNL     1     -12.225  12.828  70.520  1.00  0.00    -0.389 C  
HETATM    2  C   UNL     1     -11.686  12.095  69.319  1.00  0.00    -0.386 A  
HETATM    3  C   UNL     1     -11.809  12.728  68.067  1.00  0.00    -0.386 A  
HETATM    4  C   UNL     1     -11.440  12.126  66.847  1.00  0.00    -0.414 A  
HETATM    5  C   UNL     1     -10.851  10.855  66.961  1.00  0.00    -0.266 A  
HETATM    6  C   UNL     1     -11.141  10.799  69.399  1.00  0.00    -0.324 A  
HETATM    7  C   UNL     1     -10.061   8.809  68.242  1.00  0.00    -0.220 C  
HETATM    8  H   UNL     1      -9.984   9.332  65.935  1.00  0.00     0.000 HD 
HETATM    9  C   UNL     1     -10.689  10.185  68.202  1.00  0.00    -0.285 A  
HETATM   10  O   UNL     1     -10.382  10.191  65.859  1.00  0.00    -0.229 OA 
ENDROOT
BRANCH   4  11
HETATM   11  C   UNL     1     -11.673  12.920  65.534  1.00  0.00    -0.423 C  
HETATM   12  C   UNL     1     -10.389  13.374  64.799  1.00  0.00    -0.397 C  
HETATM   13  C   UNL     1     -12.459  12.098  64.471  1.00  0.00    -0.374 C  
HETATM   14  C   UNL     1     -12.513  14.164  65.883  1.00  0.00    -0.479 C  
ENDBRANCH   4  11
BRANCH   6  15
HETATM   15  C   UNL     1     -11.120  10.055  70.725  1.00  0.00    -0.407 C  
BRANCH  15  16
HETATM   16  C   UNL     1     -12.323   9.206  71.082  1.00  0.00    -0.267 A  
HETATM   17  N   UNL     1     -12.353   7.944  70.734  1.00  0.00    -0.509 NA 
HETATM   18  C   UNL     1     -13.642   7.425  71.257  1.00  0.00    -0.253 A  
HETATM   19  H   UNL     1     -11.642   7.428  70.215  1.00  0.00     0.000 HD 
HETATM   20  C   UNL     1     -14.293   8.558  72.058  1.00  0.00    -0.447 A  
HETATM   21  N   UNL     1     -13.367   9.646  71.847  1.00  0.00    -0.419 NA 
ENDBRANCH  15  16
ENDBRANCH   6  15
TORSDOF 3
ENDMDL
MODEL        6
REMARK 921   NORMALIZED FREE ENERGY PREDICTED BY IDOCK:   -5.88 KCAL/MOL
REMARK 922        TOTAL FREE ENERGY PREDICTED BY IDOCK:   -7.23 KCAL/MOL
REMARK 923 INTER-LIGAND FREE ENERGY PREDICTED BY IDOCK:   -6.98 KCAL/MOL
REMARK 924 INTRA-LIGAND FREE ENERGY PREDICTED BY IDOCK:   -0.25 KCAL/MOL
REMARK 927      BINDING AFFINITY PREDICTED BY RF-SCORE:    0.00 PKD
ROOT
HETATM    1  C   UNL     1      -9.432  10.105  67.746  1.00  0.00    -0.160 C  
HETATM    2  C   UNL     1     -10.375  10.316  68.902  1.00  0.00    -0.221 A  
HETATM    3  C   UNL     1     -10.768   9.177  69.632  1.00  0.00    -0.236 A  
HETATM    4  C   UNL     1     -11.715   9.205  70.675  1.00  0.00    -0.256 A  
HETATM    5  C   UNL     1     -12.200  10.481  71.009  1.00  0.00    -0.400 A  
HETATM    6  C   UNL     1     -10.917  11.575  69.223  1.00  0.00    -0.261 A  
HETATM    7  C   UNL     1     -12.401  12.996  70.721  1.00  0.00    -0.394 C  
HETATM    8  H   UNL     1     -13.400  11.519  72.275  1.00  0.00     0.000 HD 
HETATM    9  C   UNL     1     -11.821  11.660  70.313  1.00  0.00    -0.414 A  
HETATM   10  O   UNL     1     -13.072  10.657  72.049  1.00  0.00    -0.481 OA 
ENDROOT
BRANCH   4  11
HETATM   11  C   UNL     1     -12.090   7.866  71.365  1.00  0.00    -0.333 C  
HETATM   12  C   UNL     1     -13.599   7.664  71.641  1.00  0.00    -0.431 C  
HETATM   13  C   UNL     1     -11.678   6.624  70.523  1.00  0.00    -0.453 C  
HETATM   14  C   UNL     1     -11.327   7.802  72.703  1.00  0.00    -0.449 C  
ENDBRANCH   4  11
BRANCH   6  15
HETATM   15  C   UNL     1     -10.601  12.790  68.363  1.00  0.00    -0.262 C  
BRANCH  15  16
HETATM   16  C   UNL     1     -11.485  13.059  67.163  1.00  0.00    -0.331 A  
HETATM   17  N   UNL     1     -11.880  14.282  66.910  1.00  0.00    -0.418 NA 
HETATM   18  C   UNL     1     -12.694  14.182  65.672  1.00  0.00    -0.441 A  
HETATM   19  H   UNL     1     -11.673  15.124  67.449  1.00  0.00     0.000 HD 
HETATM   20  C   UNL     1     -12.608  12.728  65.192  1.00  0.00    -0.444 A  
HETATM   21  N   UNL     1     -11.832  12.111  66.242  1.00  0.00    -0.594 NA 
ENDBRANCH  15  16
ENDBRANCH   6  15
TORSDOF 3
ENDMDL
MODEL        7
REMARK 921   NORMALIZED FREE ENERGY PREDICTED BY IDOCK:   -5.83 KCAL/MOL
REMARK 922        TOTAL FREE ENERGY PREDICTED BY IDOCK:   -7.18 KCAL/MOL
REMARK 923 INTER-LIGAND FREE ENERGY PREDICTED BY IDOCK:   -6.85 KCAL/MOL
REMARK 924 INTRA-LIGAND FREE ENERGY PREDICTED BY IDOCK:   -0.34 KCAL/MOL
REMARK 927      BINDING AFFINITY PREDICTED BY RF-SCORE:    0.00 PKD
ROOT
HETATM    1  C   UNL     1     -12.276  12.942  70.484  1.00  0.00    -0.395 C  
HETATM    2  C   UNL     1     -11.728  12.190  69.300  1.00  0.00    -0.386 A  
HETATM    3  C   UNL     1     -11.861  12.793  68.034  1.00  0.00    -0.386 A  
HETATM    4  C   UNL     1     -11.484  12.169  66.827  1.00  0.00    -0.418 A  
HETATM    5  C   UNL     1     -10.876  10.910  66.969  1.00  0.00    -0.266 A  
HETATM    6  C   UNL     1     -11.164  10.904  69.408  1.00  0.00    -0.335 A  
HETATM    7  C   UNL     1     -10.057   8.904  68.295  1.00  0.00    -0.219 C  
HETATM    8  H   UNL     1      -9.989   9.376  65.977  1.00  0.00     0.000 HD 
HETATM    9  C   UNL     1     -10.705  10.270  68.225  1.00  0.00    -0.276 A  
HETATM   10  O   UNL     1     -10.400  10.228  65.882  1.00  0.00    -0.237 OA 
ENDROOT
BRANCH   4  11
HETATM   11  C   UNL     1     -11.729  12.930  65.497  1.00  0.00    -0.423 C  
HETATM   12  C   UNL     1     -12.388  12.098  64.371  1.00  0.00    -0.422 C  
HETATM   13  C   UNL     1     -12.670  14.156  65.675  1.00  0.00    -0.469 C  
HETATM   14  C   UNL     1     -10.367  13.451  64.999  1.00  0.00    -0.361 C  
ENDBRANCH   4  11
BRANCH   6  15
HETATM   15  C   UNL     1     -11.131  10.190  70.751  1.00  0.00    -0.372 C  
BRANCH  15  16
HETATM   16  C   UNL     1     -12.278   9.260  71.089  1.00  0.00    -0.301 A  
HETATM   17  N   UNL     1     -12.095   7.964  71.050  1.00  0.00    -0.428 NA 
HETATM   18  C   UNL     1     -13.397   7.373  71.453  1.00  0.00    -0.334 A  
HETATM   19  H   UNL     1     -11.240   7.467  70.797  1.00  0.00     0.000 HD 
HETATM   20  C   UNL     1     -14.319   8.535  71.840  1.00  0.00    -0.448 A  
HETATM   21  N   UNL     1     -13.498   9.684  71.538  1.00  0.00    -0.371 NA 
ENDBRANCH  15  16
ENDBRANCH   6  15
TORSDOF 3
ENDMDL
MODEL        8
REMARK 921   NORMALIZED FREE ENERGY PREDICTED BY IDOCK:   -5.73 KCAL/MOL
REMARK 922        TOTAL FREE ENERGY PREDICTED BY IDOCK:   -7.06 KCAL/MOL
REMARK 923 INTER-LIGAND FREE ENERGY PREDICTED BY IDOCK:   -6.74 KCAL/MOL
REMARK 924 INTRA-LIGAND FREE ENERGY PREDICTED BY IDOCK:   -0.31 KCAL/MOL
REMARK 927      BINDING AFFINITY PREDICTED BY RF-SCORE:    0.00 PKD
ROOT
HETATM    1  C   UNL     1     -12.403  13.248  70.521  1.00  0.00    -0.389 C  
HETATM    2  C   UNL     1     -11.840  11.900  70.153  1.00  0.00    -0.390 A  
HETATM    3  C   UNL     1     -12.177  10.811  70.981  1.00  0.00    -0.485 A  
HETATM    4  C   UNL     1     -11.652   9.514  70.819  1.00  0.00    -0.378 A  
HETATM    5  C   UNL     1     -10.810   9.343  69.706  1.00  0.00    -0.232 A  
HETATM    6  C   UNL     1     -10.952  11.713  69.076  1.00  0.00    -0.283 A  
HETATM    7  C   UNL     1      -9.529  10.148  67.666  1.00  0.00    -0.166 C  
HETATM    8  H   UNL     1      -9.721   8.001  68.642  1.00  0.00     0.000 HD 
HETATM    9  C   UNL     1     -10.455  10.406  68.834  1.00  0.00    -0.232 A  
HETATM   10  O   UNL     1     -10.289   8.116  69.394  1.00  0.00    -0.211 OA 
ENDROOT
BRANCH   4  11
HETATM   11  C   UNL     1     -12.073   8.416  71.832  1.00  0.00    -0.398 C  
HETATM   12  C   UNL     1     -12.489   7.063  71.207  1.00  0.00    -0.430 C  
HETATM   13  C   UNL     1     -10.933   8.051  72.826  1.00  0.00    -0.449 C  
HETATM   14  C   UNL     1     -13.254   8.969  72.654  1.00  0.00    -0.375 C  
ENDBRANCH   4  11
BRANCH   6  15
HETATM   15  C   UNL     1     -10.480  12.903  68.254  1.00  0.00    -0.250 C  
BRANCH  15  16
HETATM   16  C   UNL     1     -11.249  13.244  66.994  1.00  0.00    -0.292 A  
HETATM   17  N   UNL     1     -10.985  14.357  66.355  1.00  0.00    -0.314 NA 
HETATM   18  C   UNL     1     -11.891  14.356  65.178  1.00  0.00    -0.386 A  
HETATM   19  H   UNL     1     -10.301  15.070  66.610  1.00  0.00     0.000 HD 
HETATM   20  C   UNL     1     -12.635  13.015  65.182  1.00  0.00    -0.469 A  
HETATM   21  N   UNL     1     -12.157  12.410  66.404  1.00  0.00    -0.614 NA 
ENDBRANCH  15  16
ENDBRANCH   6  15
TORSDOF 3
ENDMDL
MODEL        9
REMARK 921   NORMALIZED FREE ENERGY PREDICTED BY IDOCK:   -5.69 KCAL/MOL
REMARK 922        TOTAL FREE ENERGY PREDICTED BY IDOCK:   -7.02 KCAL/MOL
REMARK 923 INTER-LIGAND FREE ENERGY PREDICTED BY IDOCK:   -6.79 KCAL/MOL
REMARK 924 INTRA-LIGAND FREE ENERGY PREDICTED BY IDOCK:   -0.23 KCAL/MOL
REMARK 927      BINDING AFFINITY PREDICTED BY RF-SCORE:    0.00 PKD
ROOT
HETATM    1  C   UNL     1      -9.244  10.308  67.801  1.00  0.00    -0.149 C  
HETATM    2  C   UNL     1     -10.235  10.488  68.921  1.00  0.00    -0.223 A  
HETATM    3  C   UNL     1     -10.575   9.347  69.673  1.00  0.00    -0.239 A  
HETATM    4  C   UNL     1     -11.555   9.341  70.685  1.00  0.00    -0.305 A  
HETATM    5  C   UNL     1     -12.135  10.590  70.965  1.00  0.00    -0.387 A  
HETATM    6  C   UNL     1     -10.871  11.717  69.186  1.00  0.00    -0.231 A  
HETATM    7  C   UNL     1     -12.493  13.077  70.594  1.00  0.00    -0.347 C  
HETATM    8  H   UNL     1     -13.441  11.581  72.163  1.00  0.00     0.000 HD 
HETATM    9  C   UNL     1     -11.812  11.772  70.246  1.00  0.00    -0.382 A  
HETATM   10  O   UNL     1     -13.049  10.737  71.973  1.00  0.00    -0.483 OA 
ENDROOT
BRANCH   4  11
HETATM   11  C   UNL     1     -11.862   8.001  71.405  1.00  0.00    -0.326 C  
HETATM   12  C   UNL     1     -11.267   7.861  72.827  1.00  0.00    -0.466 C  
HETATM   13  C   UNL     1     -13.388   7.763  71.598  1.00  0.00    -0.386 C  
HETATM   14  C   UNL     1     -11.316   6.861  70.523  1.00  0.00    -0.374 C  
ENDBRANCH   4  11
BRANCH   6  15
HETATM   15  C   UNL     1     -10.608  12.925  68.299  1.00  0.00    -0.259 C  
BRANCH  15  16
HETATM   16  C   UNL     1     -11.461  13.093  67.059  1.00  0.00    -0.336 A  
HETATM   17  N   UNL     1     -12.064  14.235  66.837  1.00  0.00    -0.496 NA 
HETATM   18  C   UNL     1     -12.778  14.056  65.547  1.00  0.00    -0.486 A  
HETATM   19  H   UNL     1     -12.046  15.069  67.424  1.00  0.00     0.000 HD 
HETATM   20  C   UNL     1     -12.396  12.672  65.009  1.00  0.00    -0.497 A  
HETATM   21  N   UNL     1     -11.576  12.150  66.076  1.00  0.00    -0.420 NA 
ENDBRANCH  15  16
ENDBRANCH   6  15
TORSDOF 3
ENDMDL
MODEL       10
REMARK 921   NORMALIZED FREE ENERGY PREDICTED BY IDOCK:   -5.66 KCAL/MOL
REMARK 922        TOTAL FREE ENERGY PREDICTED BY IDOCK:   -6.98 KCAL/MOL
REMARK 923 INTER-LIGAND FREE ENERGY PREDICTED BY IDOCK:   -6.63 KCAL/MOL
REMARK 924 INTRA-LIGAND FREE ENERGY PREDICTED BY IDOCK:   -0.34 KCAL/MOL
REMARK 927      BINDING AFFINITY PREDICTED BY RF-SCORE:    0.00 PKD
ROOT
HETATM    1  C   UNL     1     -10.396  13.187  68.134  1.00  0.00    -0.247 C  
HETATM    2  C   UNL     1     -11.285  12.892  69.314  1.00  0.00    -0.251 A  
HETATM    3  C   UNL     1     -11.678  13.981  70.116  1.00  0.00    -0.331 A  
HETATM    4  C   UNL     1     -12.426  13.849  71.303  1.00  0.00    -0.440 A  
HETATM    5  C   UNL     1     -12.839  12.540  71.607  1.00  0.00    -0.263 A  
HETATM    6  C   UNL     1     -11.668  11.584  69.672  1.00  0.00    -0.419 A  
HETATM    7  C   UNL     1     -12.951  10.032  71.223  1.00  0.00    -0.495 C  
HETATM    8  H   UNL     1     -13.910  11.398  72.900  1.00  0.00     0.000 HD 
HETATM    9  C   UNL     1     -12.483  11.413  70.820  1.00  0.00    -0.460 A  
HETATM   10  O   UNL     1     -13.631  12.282  72.694  1.00  0.00    -0.236 OA 
ENDROOT
BRANCH   4  11
HETATM   11  C   UNL     1     -12.752  15.130  72.116  1.00  0.00    -0.420 C  
HETATM   12  C   UNL     1     -14.236  15.568  72.095  1.00  0.00    -0.617 C  
HETATM   13  C   UNL     1     -12.411  14.981  73.627  1.00  0.00    -0.660 C  
HETATM   14  C   UNL     1     -11.888  16.274  71.549  1.00  0.00    -0.441 C  
ENDBRANCH   4  11
BRANCH   6  15
HETATM   15  C   UNL     1     -11.145  10.390  68.888  1.00  0.00    -0.296 C  
BRANCH  15  16
HETATM   16  C   UNL     1      -9.985   9.610  69.473  1.00  0.00    -0.209 A  
HETATM   17  N   UNL     1      -8.909  10.246  69.866  1.00  0.00    -0.379 NA 
HETATM   18  C   UNL     1      -8.005   9.193  70.397  1.00  0.00    -0.145 A  
HETATM   19  H   UNL     1      -8.731  11.249  69.818  1.00  0.00     0.000 HD 
HETATM   20  C   UNL     1      -8.779   7.870  70.352  1.00  0.00    -0.137 A  
HETATM   21  N   UNL     1     -10.015   8.266  69.718  1.00  0.00    -0.188 NA 
ENDBRANCH  15  16
ENDBRANCH   6  15
TORSDOF 3
ENDMDL
MODEL       11
REMARK 921   NORMALIZED FREE ENERGY PREDICTED BY IDOCK:   -5.57 KCAL/MOL
REMARK 922        TOTAL FREE ENERGY PREDICTED BY IDOCK:   -6.87 KCAL/MOL
REMARK 923 INTER-LIGAND FREE ENERGY PREDICTED BY IDOCK:   -6.50 KCAL/MOL
REMARK 924 INTRA-LIGAND FREE ENERGY PREDICTED BY IDOCK:   -0.37 KCAL/MOL
REMARK 927      BINDING AFFINITY PREDICTED BY RF-SCORE:    0.00 PKD
ROOT
HETATM    1  C   UNL     1     -11.059  14.851  64.724  1.00  0.00    -0.395 C  
HETATM    2  C   UNL     1     -11.034  15.316  66.156  1.00  0.00    -0.307 A  
HETATM    3  C   UNL     1     -10.364  16.524  66.432  1.00  0.00    -0.316 A  
HETATM    4  C   UNL     1     -10.175  17.035  67.732  1.00  0.00    -0.312 A  
HETATM    5  C   UNL     1     -10.779  16.291  68.761  1.00  0.00    -0.309 A  
HETATM    6  C   UNL     1     -11.583  14.563  67.212  1.00  0.00    -0.405 A  
HETATM    7  C   UNL     1     -12.087  14.324  69.693  1.00  0.00    -0.396 C  
HETATM    8  H   UNL     1     -11.140  16.212  70.757  1.00  0.00     0.000 HD 
HETATM    9  C   UNL     1     -11.479  15.077  68.530  1.00  0.00    -0.335 A  
HETATM   10  O   UNL     1     -10.732  16.715  70.062  1.00  0.00    -0.292 OA 
ENDROOT
BRANCH   4  11
HETATM   11  C   UNL     1      -9.378  18.356  67.896  1.00  0.00    -0.291 C  
HETATM   12  C   UNL     1     -10.092  19.465  68.705  1.00  0.00    -0.515 C  
HETATM   13  C   UNL     1      -8.023  18.148  68.635  1.00  0.00    -0.301 C  
HETATM   14  C   UNL     1      -9.066  18.892  66.485  1.00  0.00    -0.333 C  
ENDBRANCH   4  11
BRANCH   6  15
HETATM   15  C   UNL     1     -12.196  13.197  66.943  1.00  0.00    -0.284 C  
BRANCH  15  16
HETATM   16  C   UNL     1     -11.342  11.973  67.203  1.00  0.00    -0.333 A  
HETATM   17  N   UNL     1     -11.855  10.947  67.836  1.00  0.00    -0.735 NA 
HETATM   18  C   UNL     1     -10.765   9.938  67.892  1.00  0.00    -0.265 A  
HETATM   19  H   UNL     1     -12.800  10.860  68.210  1.00  0.00     0.000 HD 
HETATM   20  C   UNL     1      -9.586  10.503  67.091  1.00  0.00    -0.168 A  
HETATM   21  N   UNL     1     -10.070  11.815  66.728  1.00  0.00    -0.207 NA 
ENDBRANCH  15  16
ENDBRANCH   6  15
TORSDOF 3
ENDMDL
MODEL       12
REMARK 921   NORMALIZED FREE ENERGY PREDICTED BY IDOCK:   -5.54 KCAL/MOL
REMARK 922        TOTAL FREE ENERGY PREDICTED BY IDOCK:   -6.84 KCAL/MOL
REMARK 923 INTER-LIGAND FREE ENERGY PREDICTED BY IDOCK:   -6.80 KCAL/MOL
REMARK 924 INTRA-LIGAND FREE ENERGY PREDICTED BY IDOCK:   -0.04 KCAL/MOL
REMARK 927      BINDING AFFINITY PREDICTED BY RF-SCORE:    0.00 PKD
ROOT
HETATM    1  C   UNL     1     -10.303  11.235  68.657  1.00  0.00    -0.217 C  
HETATM    2  C   UNL     1     -11.325  11.543  69.719  1.00  0.00    -0.303 A  
HETATM    3  C   UNL     1     -11.678  12.894  69.905  1.00  0.00    -0.324 A  
HETATM    4  C   UNL     1     -12.545  13.344  70.920  1.00  0.00    -0.406 A  
HETATM    5  C   UNL     1     -13.117  12.332  71.711  1.00  0.00    -0.344 A  
HETATM    6  C   UNL     1     -11.872  10.555  70.561  1.00  0.00    -0.442 A  
HETATM    7  C   UNL     1     -13.448   9.926  72.454  1.00  0.00    -0.301 C  
HETATM    8  H   UNL     1     -14.416  11.943  73.222  1.00  0.00     0.000 HD 
HETATM    9  C   UNL     1     -12.804  10.955  71.552  1.00  0.00    -0.560 A  
HETATM   10  O   UNL     1     -14.030  12.627  72.687  1.00  0.00    -0.398 OA 
ENDROOT
BRANCH   4  11
HETATM   11  C   UNL     1     -12.813  14.868  71.039  1.00  0.00    -0.425 C  
HETATM   12  C   UNL     1     -14.277  15.260  71.352  1.00  0.00    -0.589 C  
HETATM   13  C   UNL     1     -11.982  15.533  72.175  1.00  0.00    -0.534 C  
HETATM   14  C   UNL     1     -12.396  15.521  69.707  1.00  0.00    -0.261 C  
ENDBRANCH   4  11
BRANCH   6  15
HETATM   15  C   UNL     1     -11.402   9.111  70.456  1.00  0.00    -0.300 C  
BRANCH  15  16
HETATM   16  C   UNL     1     -10.521   8.569  71.562  1.00  0.00    -0.248 A  
HETATM   17  N   UNL     1      -9.292   9.008  71.686  1.00  0.00    -0.319 NA 
HETATM   18  C   UNL     1      -8.740   8.293  72.866  1.00  0.00    -0.221 A  
HETATM   19  H   UNL     1      -8.818   9.694  71.099  1.00  0.00     0.000 HD 
HETATM   20  C   UNL     1      -9.881   7.463  73.465  1.00  0.00    -0.312 A  
HETATM   21  N   UNL     1     -10.953   7.704  72.528  1.00  0.00    -0.294 NA 
ENDBRANCH  15  16
ENDBRANCH   6  15
TORSDOF 3
ENDMDL
MODEL       13
REMARK 921   NORMALIZED FREE ENERGY PREDICTED BY IDOCK:   -5.54 KCAL/MOL
REMARK 922        TOTAL FREE ENERGY PREDICTED BY IDOCK:   -6.83 KCAL/MOL
REMARK 923 INTER-LIGAND FREE ENERGY PREDICTED BY IDOCK:   -6.47 KCAL/MOL
REMARK 924 INTRA-LIGAND FREE ENERGY PREDICTED BY IDOCK:   -0.37 KCAL/MOL
REMARK 927      BINDING AFFINITY PREDICTED BY RF-SCORE:    0.00 PKD
ROOT
HETATM    1  C   UNL     1     -13.679   9.025  72.476  1.00  0.00    -0.499 C  
HETATM    2  C   UNL     1     -12.236   8.936  72.053  1.00  0.00    -0.447 A  
HETATM    3  C   UNL     1     -11.413   8.031  72.750  1.00  0.00    -0.420 A  
HETATM    4  C   UNL     1     -10.026   7.907  72.532  1.00  0.00    -0.312 A  
HETATM    5  C   UNL     1      -9.509   8.704  71.495  1.00  0.00    -0.250 A  
HETATM    6  C   UNL     1     -11.682   9.762  71.055  1.00  0.00    -0.453 A  
HETATM    7  C   UNL     1      -9.670  10.456  69.664  1.00  0.00    -0.158 C  
HETATM    8  H   UNL     1      -7.842   9.167  70.433  1.00  0.00     0.000 HD 
HETATM    9  C   UNL     1     -10.303   9.619  70.754  1.00  0.00    -0.356 A  
HETATM   10  O   UNL     1      -8.192   8.628  71.133  1.00  0.00    -0.124 OA 
ENDROOT
BRANCH   4  11
HETATM   11  C   UNL     1      -9.230   6.900  73.403  1.00  0.00    -0.170 C  
HETATM   12  C   UNL     1      -8.492   5.786  72.621  1.00  0.00    -0.120 C  
HETATM   13  C   UNL     1      -8.115   7.588  74.244  1.00  0.00    -0.223 C  
HETATM   14  C   UNL     1     -10.222   6.245  74.384  1.00  0.00    -0.339 C  
ENDBRANCH   4  11
BRANCH   6  15
HETATM   15  C   UNL     1     -12.530  10.832  70.385  1.00  0.00    -0.430 C  
BRANCH  15  16
HETATM   16  C   UNL     1     -12.630  12.185  71.061  1.00  0.00    -0.263 A  
HETATM   17  N   UNL     1     -11.934  13.193  70.598  1.00  0.00    -0.533 NA 
HETATM   18  C   UNL     1     -12.287  14.344  71.469  1.00  0.00    -0.353 A  
HETATM   19  H   UNL     1     -11.288  13.189  69.808  1.00  0.00     0.000 HD 
HETATM   20  C   UNL     1     -13.380  13.863  72.430  1.00  0.00    -0.529 A  
HETATM   21  N   UNL     1     -13.489  12.465  72.087  1.00  0.00    -0.492 NA 
ENDBRANCH  15  16
ENDBRANCH   6  15
TORSDOF 3
ENDMDL
MODEL       14
REMARK 921   NORMALIZED FREE ENERGY PREDICTED BY IDOCK:   -5.51 KCAL/MOL
REMARK 922        TOTAL FREE ENERGY PREDICTED BY IDOCK:   -6.80 KCAL/MOL
REMARK 923 INTER-LIGAND FREE ENERGY PREDICTED BY IDOCK:   -6.54 KCAL/MOL
REMARK 924 INTRA-LIGAND FREE ENERGY PREDICTED BY IDOCK:   -0.25 KCAL/MOL
REMARK 927      BINDING AFFINITY PREDICTED BY RF-SCORE:    0.00 PKD
ROOT
HETATM    1  C   UNL     1     -12.506  13.282  70.213  1.00  0.00    -0.255 C  
HETATM    2  C   UNL     1     -11.963  11.900  69.958  1.00  0.00    -0.409 A  
HETATM    3  C   UNL     1     -12.397  10.868  70.812  1.00  0.00    -0.487 A  
HETATM    4  C   UNL     1     -11.905   9.548  70.757  1.00  0.00    -0.350 A  
HETATM    5  C   UNL     1     -10.990   9.294  69.721  1.00  0.00    -0.196 A  
HETATM    6  C   UNL     1     -11.005  11.630  68.962  1.00  0.00    -0.283 A  
HETATM    7  C   UNL     1      -9.535   9.950  67.745  1.00  0.00    -0.158 C  
HETATM    8  H   UNL     1      -9.870   7.865  68.811  1.00  0.00     0.000 HD 
HETATM    9  C   UNL     1     -10.535  10.298  68.825  1.00  0.00    -0.222 A  
HETATM   10  O   UNL     1     -10.489   8.037  69.511  1.00  0.00    -0.222 OA 
ENDROOT
BRANCH   4  11
HETATM   11  C   UNL     1     -12.437   8.519  71.789  1.00  0.00    -0.388 C  
HETATM   12  C   UNL     1     -13.581   9.026  72.700  1.00  0.00    -0.411 C  
HETATM   13  C   UNL     1     -13.016   7.242  71.114  1.00  0.00    -0.313 C  
HETATM   14  C   UNL     1     -11.251   8.088  72.673  1.00  0.00    -0.462 C  
ENDBRANCH   4  11
BRANCH   6  15
HETATM   15  C   UNL     1     -10.433  12.760  68.119  1.00  0.00    -0.244 C  
BRANCH  15  16
HETATM   16  C   UNL     1     -11.172  13.144  66.853  1.00  0.00    -0.296 A  
HETATM   17  N   UNL     1     -11.933  12.262  66.253  1.00  0.00    -0.626 NA 
HETATM   18  C   UNL     1     -12.509  12.974  65.084  1.00  0.00    -0.496 A  
HETATM   19  H   UNL     1     -12.095  11.294  66.531  1.00  0.00     0.000 HD 
HETATM   20  C   UNL     1     -12.049  14.434  65.174  1.00  0.00    -0.395 A  
HETATM   21  N   UNL     1     -11.182  14.406  66.328  1.00  0.00    -0.332 NA 
ENDBRANCH  15  16
ENDBRANCH   6  15
TORSDOF 3
ENDMDL
MODEL       15
REMARK 921   NORMALIZED FREE ENERGY PREDICTED BY IDOCK:   -5.49 KCAL/MOL
REMARK 922        TOTAL FREE ENERGY PREDICTED BY IDOCK:   -6.78 KCAL/MOL
REMARK 923 INTER-LIGAND FREE ENERGY PREDICTED BY IDOCK:   -6.47 KCAL/MOL
REMARK 924 INTRA-LIGAND FREE ENERGY PREDICTED BY IDOCK:   -0.31 KCAL/MOL
REMARK 927      BINDING AFFINITY PREDICTED BY RF-SCORE:    0.00 PKD
ROOT
HETATM    1  C   UNL     1     -13.089  11.774  71.941  1.00  0.00    -0.482 C  
HETATM    2  C   UNL     1     -12.269  11.627  70.686  1.00  0.00    -0.461 A  
HETATM    3  C   UNL     1     -12.039  12.789  69.924  1.00  0.00    -0.329 A  
HETATM    4  C   UNL     1     -11.374  12.790  68.681  1.00  0.00    -0.333 A  
HETATM    5  C   UNL     1     -10.868  11.544  68.272  1.00  0.00    -0.216 A  
HETATM    6  C   UNL     1     -11.797  10.382  70.226  1.00  0.00    -0.399 A  
HETATM    7  C   UNL     1     -10.499   9.042  68.499  1.00  0.00    -0.232 C  
HETATM    8  H   UNL     1      -9.798  10.578  66.842  1.00  0.00     0.000 HD 
HETATM    9  C   UNL     1     -11.059  10.349  69.014  1.00  0.00    -0.297 A  
HETATM   10  O   UNL     1     -10.141  11.420  67.119  1.00  0.00    -0.193 OA 
ENDROOT
BRANCH   4  11
HETATM   11  C   UNL     1     -11.230  14.137  67.924  1.00  0.00    -0.299 C  
HETATM   12  C   UNL     1      -9.801  14.470  67.433  1.00  0.00    -0.227 C  
HETATM   13  C   UNL     1     -12.107  14.197  66.640  1.00  0.00    -0.480 C  
HETATM   14  C   UNL     1     -11.705  15.258  68.870  1.00  0.00    -0.362 C  
ENDBRANCH   4  11
BRANCH   6  15
HETATM   15  C   UNL     1     -12.147   9.104  70.973  1.00  0.00    -0.324 C  
BRANCH  15  16
HETATM   16  C   UNL     1     -11.160   8.589  72.000  1.00  0.00    -0.342 A  
HETATM   17  N   UNL     1     -11.541   7.686  72.869  1.00  0.00    -0.601 NA 
HETATM   18  C   UNL     1     -10.336   7.401  73.690  1.00  0.00    -0.316 A  
HETATM   19  H   UNL     1     -12.467   7.267  72.962  1.00  0.00     0.000 HD 
HETATM   20  C   UNL     1      -9.177   8.197  73.080  1.00  0.00    -0.266 A  
HETATM   21  N   UNL     1      -9.838   8.933  72.028  1.00  0.00    -0.313 NA 
ENDBRANCH  15  16
ENDBRANCH   6  15
TORSDOF 3
ENDMDL
MODEL       16
REMARK 921   NORMALIZED FREE ENERGY PREDICTED BY IDOCK:   -5.47 KCAL/MOL
REMARK 922        TOTAL FREE ENERGY PREDICTED BY IDOCK:   -6.76 KCAL/MOL
REMARK 923 INTER-LIGAND FREE ENERGY PREDICTED BY IDOCK:   -6.82 KCAL/MOL
REMARK 924 INTRA-LIGAND FREE ENERGY PREDICTED BY IDOCK:    0.06 KCAL/MOL
REMARK 927      BINDING AFFINITY PREDICTED BY RF-SCORE:    0.00 PKD
ROOT
HETATM    1  C   UNL     1     -10.138  16.998  68.376  1.00  0.00    -0.302 C  
HETATM    2  C   UNL     1     -10.606  15.589  68.125  1.00  0.00    -0.266 A  
HETATM    3  C   UNL     1     -10.866  15.222  66.790  1.00  0.00    -0.312 A  
HETATM    4  C   UNL     1     -11.398  13.974  66.411  1.00  0.00    -0.338 A  
HETATM    5  C   UNL     1     -11.586  13.059  67.462  1.00  0.00    -0.356 A  
HETATM    6  C   UNL     1     -10.854  14.671  69.164  1.00  0.00    -0.269 A  
HETATM    7  C   UNL     1     -11.567  12.344  69.899  1.00  0.00    -0.260 C  
HETATM    8  H   UNL     1     -12.157  11.168  67.932  1.00  0.00     0.000 HD 
HETATM    9  C   UNL     1     -11.322  13.377  68.821  1.00  0.00    -0.332 A  
HETATM   10  O   UNL     1     -12.030  11.787  67.222  1.00  0.00    -0.618 OA 
ENDROOT
BRANCH   4  11
HETATM   11  C   UNL     1     -11.678  13.718  64.906  1.00  0.00    -0.378 C  
HETATM   12  C   UNL     1     -12.893  12.808  64.604  1.00  0.00    -0.355 C  
HETATM   13  C   UNL     1     -11.971  15.031  64.122  1.00  0.00    -0.221 C  
HETATM   14  C   UNL     1     -10.414  13.079  64.298  1.00  0.00    -0.424 C  
ENDBRANCH   4  11
BRANCH   6  15
HETATM   15  C   UNL     1     -10.700  15.096  70.617  1.00  0.00    -0.160 C  
BRANCH  15  16
HETATM   16  C   UNL     1     -11.955  15.227  71.455  1.00  0.00    -0.368 A  
HETATM   17  N   UNL     1     -13.118  15.359  70.865  1.00  0.00    -0.558 NA 
HETATM   18  C   UNL     1     -14.109  15.434  71.969  1.00  0.00    -0.549 A  
HETATM   19  H   UNL     1     -13.302  15.400  69.862  1.00  0.00     0.000 HD 
HETATM   20  C   UNL     1     -13.344  15.209  73.278  1.00  0.00    -0.363 A  
HETATM   21  N   UNL     1     -11.979  15.117  72.817  1.00  0.00    -0.388 NA 
ENDBRANCH  15  16
ENDBRANCH   6  15
TORSDOF 3
ENDMDL
MODEL       17
REMARK 921   NORMALIZED FREE ENERGY PREDICTED BY IDOCK:   -5.38 KCAL/MOL
REMARK 922        TOTAL FREE ENERGY PREDICTED BY IDOCK:   -6.65 KCAL/MOL
REMARK 923 INTER-LIGAND FREE ENERGY PREDICTED BY IDOCK:   -6.40 KCAL/MOL
REMARK 924 INTRA-LIGAND FREE ENERGY PREDICTED BY IDOCK:   -0.25 KCAL/MOL
REMARK 927      BINDING AFFINITY PREDICTED BY RF-SCORE:    0.00 PKD
ROOT
HETATM    1  C   UNL     1      -9.311  13.162  67.982  1.00  0.00    -0.219 C  
HETATM    2  C   UNL     1      -9.814  14.262  67.084  1.00  0.00    -0.252 A  
HETATM    3  C   UNL     1      -9.409  15.577  67.385  1.00  0.00    -0.211 A  
HETATM    4  C   UNL     1      -9.874  16.715  66.696  1.00  0.00    -0.285 A  
HETATM    5  C   UNL     1     -10.725  16.450  65.609  1.00  0.00    -0.270 A  
HETATM    6  C   UNL     1     -10.710  14.030  66.023  1.00  0.00    -0.294 A  
HETATM    7  C   UNL     1     -12.079  14.937  64.083  1.00  0.00    -0.289 C  
HETATM    8  H   UNL     1     -11.766  17.283  64.077  1.00  0.00     0.000 HD 
HETATM    9  C   UNL     1     -11.147  15.140  65.256  1.00  0.00    -0.389 A  
HETATM   10  O   UNL     1     -11.191  17.461  64.812  1.00  0.00    -0.895 OA 
ENDROOT
BRANCH   4  11
HETATM   11  C   UNL     1      -9.381  18.111  67.162  1.00  0.00    -0.263 C  
HETATM   12  C   UNL     1      -8.360  18.799  66.225  1.00  0.00    -0.262 C  
HETATM   13  C   UNL     1     -10.542  19.140  67.294  1.00  0.00    -0.573 C  
HETATM   14  C   UNL     1      -8.743  17.940  68.554  1.00  0.00    -0.297 C  
ENDBRANCH   4  11
BRANCH   6  15
HETATM   15  C   UNL     1     -11.253  12.632  65.769  1.00  0.00    -0.347 C  
BRANCH  15  16
HETATM   16  C   UNL     1     -10.523  11.757  64.770  1.00  0.00    -0.293 A  
HETATM   17  N   UNL     1      -9.992  10.627  65.164  1.00  0.00    -0.281 NA 
HETATM   18  C   UNL     1      -9.391  10.031  63.943  1.00  0.00    -0.263 A  
HETATM   19  H   UNL     1      -9.992  10.238  66.107  1.00  0.00     0.000 HD 
HETATM   20  C   UNL     1      -9.761  10.942  62.767  1.00  0.00    -0.271 A  
HETATM   21  N   UNL     1     -10.458  12.019  63.429  1.00  0.00    -0.449 NA 
ENDBRANCH  15  16
ENDBRANCH   6  15
TORSDOF 3
ENDMDL
MODEL       18
REMARK 921   NORMALIZED FREE ENERGY PREDICTED BY IDOCK:   -5.29 KCAL/MOL
REMARK 922        TOTAL FREE ENERGY PREDICTED BY IDOCK:   -6.54 KCAL/MOL
REMARK 923 INTER-LIGAND FREE ENERGY PREDICTED BY IDOCK:   -6.17 KCAL/MOL
REMARK 924 INTRA-LIGAND FREE ENERGY PREDICTED BY IDOCK:   -0.38 KCAL/MOL
REMARK 927      BINDING AFFINITY PREDICTED BY RF-SCORE:    0.00 PKD
ROOT
HETATM    1  C   UNL     1      -8.872   8.498  67.489  1.00  0.00    -0.139 C  
HETATM    2  C   UNL     1      -9.838   9.653  67.432  1.00  0.00    -0.218 A  
HETATM    3  C   UNL     1     -10.093  10.220  66.169  1.00  0.00    -0.307 A  
HETATM    4  C   UNL     1     -10.896  11.362  65.972  1.00  0.00    -0.306 A  
HETATM    5  C   UNL     1     -11.509  11.869  67.130  1.00  0.00    -0.319 A  
HETATM    6  C   UNL     1     -10.423  10.214  68.584  1.00  0.00    -0.225 A  
HETATM    7  C   UNL     1     -11.978  11.935  69.626  1.00  0.00    -0.365 C  
HETATM    8  H   UNL     1     -12.785  13.275  67.851  1.00  0.00     0.000 HD 
HETATM    9  C   UNL     1     -11.296  11.321  68.423  1.00  0.00    -0.348 A  
HETATM   10  O   UNL     1     -12.370  12.932  67.068  1.00  0.00    -0.360 OA 
ENDROOT
BRANCH   4  11
HETATM   11  C   UNL     1     -11.057  11.909  64.529  1.00  0.00    -0.381 C  
HETATM   12  C   UNL     1     -12.514  12.015  64.020  1.00  0.00    -0.492 C  
HETATM   13  C   UNL     1     -10.484  13.348  64.369  1.00  0.00    -0.403 C  
HETATM   14  C   UNL     1     -10.267  10.981  63.586  1.00  0.00    -0.431 C  
ENDBRANCH   4  11
BRANCH   6  15
HETATM   15  C   UNL     1     -10.055   9.692  69.964  1.00  0.00    -0.293 C  
BRANCH  15  16
HETATM   16  C   UNL     1     -10.803   8.484  70.489  1.00  0.00    -0.228 A  
HETATM   17  N   UNL     1     -12.105   8.537  70.626  1.00  0.00    -0.488 NA 
HETATM   18  C   UNL     1     -12.499   7.196  71.130  1.00  0.00    -0.359 A  
HETATM   19  H   UNL     1     -12.717   9.329  70.428  1.00  0.00     0.000 HD 
HETATM   20  C   UNL     1     -11.233   6.332  71.150  1.00  0.00    -0.305 A  
HETATM   21  N   UNL     1     -10.218   7.276  70.746  1.00  0.00    -0.197 NA 
ENDBRANCH  15  16
ENDBRANCH   6  15
TORSDOF 3
ENDMDL
MODEL       19
REMARK 921   NORMALIZED FREE ENERGY PREDICTED BY IDOCK:   -5.26 KCAL/MOL
REMARK 922        TOTAL FREE ENERGY PREDICTED BY IDOCK:   -6.51 KCAL/MOL
REMARK 923 INTER-LIGAND FREE ENERGY PREDICTED BY IDOCK:   -6.29 KCAL/MOL
REMARK 924 INTRA-LIGAND FREE ENERGY PREDICTED BY IDOCK:   -0.22 KCAL/MOL
REMARK 927      BINDING AFFINITY PREDICTED BY RF-SCORE:    0.00 PKD
ROOT
HETATM    1  C   UNL     1     -13.166  11.082  71.920  1.00  0.00    -0.503 C  
HETATM    2  C   UNL     1     -12.266  10.861  70.733  1.00  0.00    -0.483 A  
HETATM    3  C   UNL     1     -12.033  11.962  69.884  1.00  0.00    -0.398 A  
HETATM    4  C   UNL     1     -11.294  11.884  68.687  1.00  0.00    -0.331 A  
HETATM    5  C   UNL     1     -10.719  10.629  68.419  1.00  0.00    -0.222 A  
HETATM    6  C   UNL     1     -11.721   9.603  70.412  1.00  0.00    -0.266 A  
HETATM    7  C   UNL     1     -10.272   8.173  68.889  1.00  0.00    -0.221 C  
HETATM    8  H   UNL     1      -9.529   9.589  67.144  1.00  0.00     0.000 HD 
HETATM    9  C   UNL     1     -10.911   9.495  69.253  1.00  0.00    -0.211 A  
HETATM   10  O   UNL     1      -9.918  10.437  67.326  1.00  0.00    -0.175 OA 
ENDROOT
BRANCH   4  11
HETATM   11  C   UNL     1     -11.154  13.165  67.823  1.00  0.00    -0.287 C  
HETATM   12  C   UNL     1     -11.755  14.450  68.441  1.00  0.00    -0.367 C  
HETATM   13  C   UNL     1      -9.669  13.530  67.534  1.00  0.00    -0.228 C  
HETATM   14  C   UNL     1     -11.842  12.894  66.471  1.00  0.00    -0.473 C  
ENDBRANCH   4  11
BRANCH   6  15
HETATM   15  C   UNL     1     -12.069   8.380  71.248  1.00  0.00    -0.315 C  
BRANCH  15  16
HETATM   16  C   UNL     1     -11.099   7.964  72.335  1.00  0.00    -0.333 A  
HETATM   17  N   UNL     1     -11.416   6.986  73.147  1.00  0.00    -0.533 NA 
HETATM   18  C   UNL     1     -10.247   6.835  74.051  1.00  0.00    -0.369 A  
HETATM   19  H   UNL     1     -12.280   6.444  73.156  1.00  0.00     0.000 HD 
HETATM   20  C   UNL     1      -9.166   7.803  73.556  1.00  0.00    -0.290 A  
HETATM   21  N   UNL     1      -9.842   8.482  72.476  1.00  0.00    -0.284 NA 
ENDBRANCH  15  16
ENDBRANCH   6  15
TORSDOF 3
ENDMDL
MODEL       20
REMARK 921   NORMALIZED FREE ENERGY PREDICTED BY IDOCK:   -5.24 KCAL/MOL
REMARK 922        TOTAL FREE ENERGY PREDICTED BY IDOCK:   -6.48 KCAL/MOL
REMARK 923 INTER-LIGAND FREE ENERGY PREDICTED BY IDOCK:   -6.18 KCAL/MOL
REMARK 924 INTRA-LIGAND FREE ENERGY PREDICTED BY IDOCK:   -0.31 KCAL/MOL
REMARK 927      BINDING AFFINITY PREDICTED BY RF-SCORE:    0.00 PKD
ROOT
HETATM    1  C   UNL     1     -12.835  12.937  71.261  1.00  0.00    -0.361 C  
HETATM    2  C   UNL     1     -12.235  11.854  70.403  1.00  0.00    -0.399 A  
HETATM    3  C   UNL     1     -11.971  10.614  71.018  1.00  0.00    -0.442 A  
HETATM    4  C   UNL     1     -11.326   9.542  70.371  1.00  0.00    -0.318 A  
HETATM    5  C   UNL     1     -11.022   9.756  69.016  1.00  0.00    -0.163 A  
HETATM    6  C   UNL     1     -11.871  12.060  69.058  1.00  0.00    -0.372 A  
HETATM    7  C   UNL     1     -10.911  11.143  66.890  1.00  0.00    -0.333 C  
HETATM    8  H   UNL     1     -10.252   8.914  67.336  1.00  0.00     0.000 HD 
HETATM    9  C   UNL     1     -11.283  10.982  68.348  1.00  0.00    -0.337 A  
HETATM   10  O   UNL     1     -10.458   8.770  68.252  1.00  0.00    -0.215 OA 
ENDROOT
BRANCH   4  11
HETATM   11  C   UNL     1     -11.057   8.246  71.182  1.00  0.00    -0.289 C  
HETATM   12  C   UNL     1     -11.506   6.932  70.498  1.00  0.00    -0.390 C  
HETATM   13  C   UNL     1      -9.545   8.032  71.482  1.00  0.00    -0.209 C  
HETATM   14  C   UNL     1     -11.790   8.380  72.532  1.00  0.00    -0.427 C  
ENDBRANCH   4  11
BRANCH   6  15
HETATM   15  C   UNL     1     -12.032  13.432  68.421  1.00  0.00    -0.359 C  
BRANCH  15  16
HETATM   16  C   UNL     1     -11.024  14.504  68.781  1.00  0.00    -0.250 A  
HETATM   17  N   UNL     1      -9.787  14.168  69.047  1.00  0.00    -0.413 NA 
HETATM   18  C   UNL     1      -9.086  15.448  69.329  1.00  0.00    -0.260 A  
HETATM   19  H   UNL     1      -9.389  13.229  69.057  1.00  0.00     0.000 HD 
HETATM   20  C   UNL     1     -10.090  16.577  69.071  1.00  0.00    -0.279 A  
HETATM   21  N   UNL     1     -11.293  15.845  68.755  1.00  0.00    -0.357 NA 
ENDBRANCH  15  16
ENDBRANCH   6  15
TORSDOF 3
ENDMDL
MODEL       21
REMARK 921   NORMALIZED FREE ENERGY PREDICTED BY IDOCK:   -5.23 KCAL/MOL
REMARK 922        TOTAL FREE ENERGY PREDICTED BY IDOCK:   -6.47 KCAL/MOL
REMARK 923 INTER-LIGAND FREE ENERGY PREDICTED BY IDOCK:   -6.17 KCAL/MOL
REMARK 924 INTRA-LIGAND FREE ENERGY PREDICTED BY IDOCK:   -0.30 KCAL/MOL
REMARK 927      BINDING AFFINITY PREDICTED BY RF-SCORE:    0.00 PKD
ROOT
HETATM    1  C   UNL     1     -11.283  14.246  68.546  1.00  0.00    -0.289 C  
HETATM    2  C   UNL     1     -11.374  12.912  69.239  1.00  0.00    -0.303 A  
HETATM    3  C   UNL     1     -10.566  11.870  68.744  1.00  0.00    -0.234 A  
HETATM    4  C   UNL     1     -10.613  10.547  69.227  1.00  0.00    -0.265 A  
HETATM    5  C   UNL     1     -11.479  10.337  70.315  1.00  0.00    -0.317 A  
HETATM    6  C   UNL     1     -12.272  12.662  70.295  1.00  0.00    -0.347 A  
HETATM    7  C   UNL     1     -13.220  11.053  72.020  1.00  0.00    -0.447 C  
HETATM    8  H   UNL     1     -12.152   8.973  71.659  1.00  0.00     0.000 HD 
HETATM    9  C   UNL     1     -12.301  11.360  70.859  1.00  0.00    -0.483 A  
HETATM   10  O   UNL     1     -11.567   9.115  70.924  1.00  0.00    -0.273 OA 
ENDROOT
BRANCH   4  11
HETATM   11  C   UNL     1      -9.699   9.486  68.559  1.00  0.00    -0.162 C  
HETATM   12  C   UNL     1     -10.361   8.111  68.299  1.00  0.00    -0.241 C  
HETATM   13  C   UNL     1      -9.180   9.938  67.164  1.00  0.00    -0.158 C  
HETATM   14  C   UNL     1      -8.475   9.283  69.473  1.00  0.00    -0.144 C  
ENDBRANCH   4  11
BRANCH   6  15
HETATM   15  C   UNL     1     -13.240  13.742  70.753  1.00  0.00    -0.077 C  
BRANCH  15  16
HETATM   16  C   UNL     1     -12.806  14.650  71.885  1.00  0.00    -0.328 A  
HETATM   17  N   UNL     1     -12.238  15.799  71.613  1.00  0.00    -0.418 NA 
HETATM   18  C   UNL     1     -11.972  16.425  72.934  1.00  0.00    -0.474 A  
HETATM   19  H   UNL     1     -12.024  16.182  70.692  1.00  0.00     0.000 HD 
HETATM   20  C   UNL     1     -12.580  15.506  73.999  1.00  0.00    -0.625 A  
HETATM   21  N   UNL     1     -13.057  14.398  73.205  1.00  0.00    -0.585 NA 
ENDBRANCH  15  16
ENDBRANCH   6  15
TORSDOF 3
ENDMDL
MODEL       22
REMARK 921   NORMALIZED FREE ENERGY PREDICTED BY IDOCK:   -5.21 KCAL/MOL
REMARK 922        TOTAL FREE ENERGY PREDICTED BY IDOCK:   -6.45 KCAL/MOL
REMARK 923 INTER-LIGAND FREE ENERGY PREDICTED BY IDOCK:   -6.11 KCAL/MOL
REMARK 924 INTRA-LIGAND FREE ENERGY PREDICTED BY IDOCK:   -0.34 KCAL/MOL
REMARK 927      BINDING AFFINITY PREDICTED BY RF-SCORE:    0.00 PKD
ROOT
HETATM    1  C   UNL     1     -10.468  11.004  67.315  1.00  0.00    -0.270 C  
HETATM    2  C   UNL     1     -11.080  10.924  68.690  1.00  0.00    -0.305 A  
HETATM    3  C   UNL     1     -11.029   9.679  69.348  1.00  0.00    -0.215 A  
HETATM    4  C   UNL     1     -11.640   9.427  70.592  1.00  0.00    -0.330 A  
HETATM    5  C   UNL     1     -12.254  10.539  71.194  1.00  0.00    -0.391 A  
HETATM    6  C   UNL     1     -11.748  12.008  69.292  1.00  0.00    -0.389 A  
HETATM    7  C   UNL     1     -13.010  12.962  71.281  1.00  0.00    -0.317 C  
HETATM    8  H   UNL     1     -13.238  11.199  72.843  1.00  0.00     0.000 HD 
HETATM    9  C   UNL     1     -12.316  11.817  70.577  1.00  0.00    -0.387 A  
HETATM   10  O   UNL     1     -12.823  10.448  72.436  1.00  0.00    -0.223 OA 
ENDROOT
BRANCH   4  11
HETATM   11  C   UNL     1     -11.544   7.995  71.184  1.00  0.00    -0.307 C  
HETATM   12  C   UNL     1     -10.748   7.877  72.505  1.00  0.00    -0.391 C  
HETATM   13  C   UNL     1     -12.940   7.392  71.516  1.00  0.00    -0.421 C  
HETATM   14  C   UNL     1     -10.883   7.095  70.122  1.00  0.00    -0.279 C  
ENDBRANCH   4  11
BRANCH   6  15
HETATM   15  C   UNL     1     -11.921  13.317  68.537  1.00  0.00    -0.340 C  
BRANCH  15  16
HETATM   16  C   UNL     1     -11.013  14.473  68.904  1.00  0.00    -0.256 A  
HETATM   17  N   UNL     1      -9.715  14.296  68.928  1.00  0.00    -0.372 NA 
HETATM   18  C   UNL     1      -9.147  15.618  69.296  1.00  0.00    -0.270 A  
HETATM   19  H   UNL     1      -9.204  13.434  68.734  1.00  0.00     0.000 HD 
HETATM   20  C   UNL     1     -10.316  16.607  69.367  1.00  0.00    -0.294 A  
HETATM   21  N   UNL     1     -11.452  15.749  69.124  1.00  0.00    -0.355 NA 
ENDBRANCH  15  16
ENDBRANCH   6  15
TORSDOF 3
ENDMDL
MODEL       23
REMARK 921   NORMALIZED FREE ENERGY PREDICTED BY IDOCK:   -5.19 KCAL/MOL
REMARK 922        TOTAL FREE ENERGY PREDICTED BY IDOCK:   -6.43 KCAL/MOL
REMARK 923 INTER-LIGAND FREE ENERGY PREDICTED BY IDOCK:   -6.18 KCAL/MOL
REMARK 924 INTRA-LIGAND FREE ENERGY PREDICTED BY IDOCK:   -0.25 KCAL/MOL
REMARK 927      BINDING AFFINITY PREDICTED BY RF-SCORE:    0.00 PKD
ROOT
HETATM    1  C   UNL     1     -10.391   8.952  68.549  1.00  0.00    -0.229 C  
HETATM    2  C   UNL     1     -11.018  10.211  69.089  1.00  0.00    -0.270 A  
HETATM    3  C   UNL     1     -10.700  11.421  68.441  1.00  0.00    -0.237 A  
HETATM    4  C   UNL     1     -11.133  12.685  68.889  1.00  0.00    -0.307 A  
HETATM    5  C   UNL     1     -11.989  12.664  70.004  1.00  0.00    -0.306 A  
HETATM    6  C   UNL     1     -11.835  10.224  70.236  1.00  0.00    -0.372 A  
HETATM    7  C   UNL     1     -13.264  11.529  71.885  1.00  0.00    -0.479 C  
HETATM    8  H   UNL     1     -13.116  13.804  71.251  1.00  0.00     0.000 HD 
HETATM    9  C   UNL     1     -12.351  11.469  70.680  1.00  0.00    -0.457 A  
HETATM   10  O   UNL     1     -12.537  13.818  70.497  1.00  0.00    -0.327 OA 
ENDROOT
BRANCH   4  11
HETATM   11  C   UNL     1     -10.670  13.942  68.106  1.00  0.00    -0.260 C  
HETATM   12  C   UNL     1     -10.015  15.052  68.962  1.00  0.00    -0.246 C  
HETATM   13  C   UNL     1      -9.607  13.611  67.019  1.00  0.00    -0.251 C  
HETATM   14  C   UNL     1     -11.905  14.528  67.393  1.00  0.00    -0.416 C  
ENDBRANCH   4  11
BRANCH   6  15
HETATM   15  C   UNL     1     -12.081   8.943  71.018  1.00  0.00    -0.278 C  
BRANCH  15  16
HETATM   16  C   UNL     1     -11.040   8.521  72.035  1.00  0.00    -0.342 A  
HETATM   17  N   UNL     1     -11.352   7.644  72.957  1.00  0.00    -0.581 NA 
HETATM   18  C   UNL     1     -10.110   7.453  73.750  1.00  0.00    -0.278 A  
HETATM   19  H   UNL     1     -12.254   7.190  73.099  1.00  0.00     0.000 HD 
HETATM   20  C   UNL     1      -9.008   8.271  73.067  1.00  0.00    -0.241 A  
HETATM   21  N   UNL     1      -9.734   8.926  72.005  1.00  0.00    -0.299 NA 
ENDBRANCH  15  16
ENDBRANCH   6  15
TORSDOF 3
ENDMDL
MODEL       24
REMARK 921   NORMALIZED FREE ENERGY PREDICTED BY IDOCK:   -5.18 KCAL/MOL
REMARK 922        TOTAL FREE ENERGY PREDICTED BY IDOCK:   -6.41 KCAL/MOL
REMARK 923 INTER-LIGAND FREE ENERGY PREDICTED BY IDOCK:   -6.05 KCAL/MOL
REMARK 924 INTRA-LIGAND FREE ENERGY PREDICTED BY IDOCK:   -0.37 KCAL/MOL
REMARK 927      BINDING AFFINITY PREDICTED BY RF-SCORE:    0.00 PKD
ROOT
HETATM    1  C   UNL     1     -11.061  11.729  66.555  1.00  0.00    -0.364 C  
HETATM    2  C   UNL     1     -11.163  12.835  67.572  1.00  0.00    -0.332 A  
HETATM    3  C   UNL     1     -10.541  14.060  67.259  1.00  0.00    -0.273 A  
HETATM    4  C   UNL     1     -10.470  15.151  68.149  1.00  0.00    -0.245 A  
HETATM    5  C   UNL     1     -11.141  14.971  69.371  1.00  0.00    -0.278 A  
HETATM    6  C   UNL     1     -11.782  12.664  68.825  1.00  0.00    -0.364 A  
HETATM    7  C   UNL     1     -12.482  13.638  71.067  1.00  0.00    -0.456 C  
HETATM    8  H   UNL     1     -11.663  15.857  71.122  1.00  0.00     0.000 HD 
HETATM    9  C   UNL     1     -11.796  13.761  69.724  1.00  0.00    -0.394 A  
HETATM   10  O   UNL     1     -11.209  15.978  70.295  1.00  0.00    -0.339 OA 
ENDROOT
BRANCH   4  11
HETATM   11  C   UNL     1      -9.715  16.427  67.691  1.00  0.00    -0.238 C  
HETATM   12  C   UNL     1     -10.552  17.728  67.693  1.00  0.00    -0.385 C  
HETATM   13  C   UNL     1      -8.490  16.752  68.595  1.00  0.00    -0.259 C  
HETATM   14  C   UNL     1      -9.191  16.173  66.264  1.00  0.00    -0.366 C  
ENDBRANCH   4  11
BRANCH   6  15
HETATM   15  C   UNL     1     -12.343  11.308  69.226  1.00  0.00    -0.172 C  
BRANCH  15  16
HETATM   16  C   UNL     1     -11.440  10.365  69.994  1.00  0.00    -0.308 A  
HETATM   17  N   UNL     1     -10.141  10.448  69.847  1.00  0.00    -0.421 NA 
HETATM   18  C   UNL     1      -9.579   9.410  70.750  1.00  0.00    -0.255 A  
HETATM   19  H   UNL     1      -9.626  11.088  69.243  1.00  0.00     0.000 HD 
HETATM   20  C   UNL     1     -10.755   8.799  71.521  1.00  0.00    -0.301 A  
HETATM   21  N   UNL     1     -11.886   9.473  70.929  1.00  0.00    -0.296 NA 
ENDBRANCH  15  16
ENDBRANCH   6  15
TORSDOF 3
ENDMDL
MODEL       25
REMARK 921   NORMALIZED FREE ENERGY PREDICTED BY IDOCK:   -5.15 KCAL/MOL
REMARK 922        TOTAL FREE ENERGY PREDICTED BY IDOCK:   -6.38 KCAL/MOL
REMARK 923 INTER-LIGAND FREE ENERGY PREDICTED BY IDOCK:   -6.08 KCAL/MOL
REMARK 924 INTRA-LIGAND FREE ENERGY PREDICTED BY IDOCK:   -0.30 KCAL/MOL
REMARK 927      BINDING AFFINITY PREDICTED BY RF-SCORE:    0.00 PKD
ROOT
HETATM    1  C   UNL     1      -7.669  14.926  68.069  1.00  0.00    -0.128 C  
HETATM    2  C   UNL     1      -8.925  14.278  67.549  1.00  0.00    -0.197 A  
HETATM    3  C   UNL     1      -9.263  13.013  68.070  1.00  0.00    -0.212 A  
HETATM    4  C   UNL     1     -10.352  12.245  67.612  1.00  0.00    -0.214 A  
HETATM    5  C   UNL     1     -11.152  12.862  66.635  1.00  0.00    -0.284 A  
HETATM    6  C   UNL     1      -9.713  14.850  66.532  1.00  0.00    -0.294 A  
HETATM    7  C   UNL     1     -11.761  14.733  65.029  1.00  0.00    -0.364 C  
HETATM    8  H   UNL     1     -12.822  12.671  65.496  1.00  0.00     0.000 HD 
HETATM    9  C   UNL     1     -10.861  14.142  66.092  1.00  0.00    -0.296 A  
HETATM   10  O   UNL     1     -12.281  12.254  66.156  1.00  0.00    -0.647 OA 
ENDROOT
BRANCH   4  11
HETATM   11  C   UNL     1     -10.584  10.846  68.244  1.00  0.00    -0.223 C  
HETATM   12  C   UNL     1     -10.768   9.687  67.235  1.00  0.00    -0.284 C  
HETATM   13  C   UNL     1      -9.398  10.394  69.144  1.00  0.00    -0.211 C  
HETATM   14  C   UNL     1     -11.840  10.937  69.132  1.00  0.00    -0.389 C  
ENDBRANCH   4  11
BRANCH   6  15
HETATM   15  C   UNL     1      -9.288  16.153  65.872  1.00  0.00    -0.316 C  
BRANCH  15  16
HETATM   16  C   UNL     1      -9.781  17.450  66.480  1.00  0.00    -0.293 A  
HETATM   17  N   UNL     1     -10.316  18.365  65.710  1.00  0.00    -0.608 NA 
HETATM   18  C   UNL     1     -10.700  19.470  66.626  1.00  0.00    -0.445 A  
HETATM   19  H   UNL     1     -10.441  18.327  64.699  1.00  0.00     0.000 HD 
HETATM   20  C   UNL     1     -10.406  18.996  68.054  1.00  0.00    -0.394 A  
HETATM   21  N   UNL     1      -9.799  17.706  67.823  1.00  0.00    -0.282 NA 
ENDBRANCH  15  16
ENDBRANCH   6  15
TORSDOF 3
ENDMDL
MODEL       26
REMARK 921   NORMALIZED FREE ENERGY PREDICTED BY IDOCK:   -5.15 KCAL/MOL
REMARK 922        TOTAL FREE ENERGY PREDICTED BY IDOCK:   -6.38 KCAL/MOL
REMARK 923 INTER-LIGAND FREE ENERGY PREDICTED BY IDOCK:   -6.15 KCAL/MOL
REMARK 924 INTRA-LIGAND FREE ENERGY PREDICTED BY IDOCK:   -0.23 KCAL/MOL
REMARK 927      BINDING AFFINITY PREDICTED BY RF-SCORE:    0.00 PKD
ROOT
HETATM    1  C   UNL     1      -8.980  10.471  66.876  1.00  0.00    -0.151 C  
HETATM    2  C   UNL     1      -9.909  10.852  67.999  1.00  0.00    -0.185 A  
HETATM    3  C   UNL     1     -10.212   9.860  68.952  1.00  0.00    -0.209 A  
HETATM    4  C   UNL     1     -11.137  10.039  70.000  1.00  0.00    -0.350 A  
HETATM    5  C   UNL     1     -11.697  11.325  70.091  1.00  0.00    -0.343 A  
HETATM    6  C   UNL     1     -10.527  12.115  68.081  1.00  0.00    -0.225 A  
HETATM    7  C   UNL     1     -12.069  13.716  69.316  1.00  0.00    -0.360 C  
HETATM    8  H   UNL     1     -12.936  12.522  71.166  1.00  0.00     0.000 HD 
HETATM    9  C   UNL     1     -11.411  12.362  69.163  1.00  0.00    -0.358 A  
HETATM   10  O   UNL     1     -12.557  11.653  71.105  1.00  0.00    -0.385 OA 
ENDROOT
BRANCH   4  11
HETATM   11  C   UNL     1     -11.409   8.846  70.955  1.00  0.00    -0.336 C  
HETATM   12  C   UNL     1     -10.669   8.903  72.313  1.00  0.00    -0.219 C  
HETATM   13  C   UNL     1     -12.912   8.718  71.337  1.00  0.00    -0.306 C  
HETATM   14  C   UNL     1     -10.999   7.556  70.218  1.00  0.00    -0.264 C  
ENDBRANCH   4  11
BRANCH   6  15
HETATM   15  C   UNL     1     -10.309  13.150  66.988  1.00  0.00    -0.249 C  
BRANCH  15  16
HETATM   16  C   UNL     1     -11.022  12.947  65.666  1.00  0.00    -0.271 A  
HETATM   17  N   UNL     1     -10.359  13.085  64.545  1.00  0.00    -0.478 NA 
HETATM   18  C   UNL     1     -11.345  12.796  63.471  1.00  0.00    -0.420 A  
HETATM   19  H   UNL     1      -9.377  13.336  64.432  1.00  0.00     0.000 HD 
HETATM   20  C   UNL     1     -12.644  12.359  64.158  1.00  0.00    -0.403 A  
HETATM   21  N   UNL     1     -12.317  12.524  65.555  1.00  0.00    -0.642 NA 
ENDBRANCH  15  16
ENDBRANCH   6  15
TORSDOF 3
ENDMDL
MODEL       27
REMARK 921   NORMALIZED FREE ENERGY PREDICTED BY IDOCK:   -5.09 KCAL/MOL
REMARK 922        TOTAL FREE ENERGY PREDICTED BY IDOCK:   -6.30 KCAL/MOL
REMARK 923 INTER-LIGAND FREE ENERGY PREDICTED BY IDOCK:   -5.92 KCAL/MOL
REMARK 924 INTRA-LIGAND FREE ENERGY PREDICTED BY IDOCK:   -0.38 KCAL/MOL
REMARK 927      BINDING AFFINITY PREDICTED BY RF-SCORE:    0.00 PKD
ROOT
HETATM    1  C   UNL     1      -8.919  10.774  68.673  1.00  0.00    -0.162 C  
HETATM    2  C   UNL     1      -9.700  10.150  69.800  1.00  0.00    -0.232 A  
HETATM    3  C   UNL     1      -9.015   9.252  70.642  1.00  0.00    -0.296 A  
HETATM    4  C   UNL     1      -9.634   8.521  71.675  1.00  0.00    -0.319 A  
HETATM    5  C   UNL     1     -10.996   8.804  71.876  1.00  0.00    -0.365 A  
HETATM    6  C   UNL     1     -11.077  10.375  69.990  1.00  0.00    -0.379 A  
HETATM    7  C   UNL     1     -13.195   9.952  71.331  1.00  0.00    -0.487 C  
HETATM    8  H   UNL     1     -12.620   8.406  73.027  1.00  0.00     0.000 HD 
HETATM    9  C   UNL     1     -11.726   9.713  71.064  1.00  0.00    -0.433 A  
HETATM   10  O   UNL     1     -11.699   8.215  72.891  1.00  0.00    -0.373 OA 
ENDROOT
BRANCH   4  11
HETATM   11  C   UNL     1      -8.768   7.530  72.498  1.00  0.00    -0.163 C  
HETATM   12  C   UNL     1      -8.771   7.762  74.028  1.00  0.00    -0.316 C  
HETATM   13  C   UNL     1      -9.226   6.053  72.327  1.00  0.00    -0.146 C  
HETATM   14  C   UNL     1      -7.319   7.636  71.982  1.00  0.00    -0.072 C  
ENDBRANCH   4  11
BRANCH   6  15
HETATM   15  C   UNL     1     -11.856  11.241  69.011  1.00  0.00    -0.421 C  
BRANCH  15  16
HETATM   16  C   UNL     1     -11.841  12.741  69.223  1.00  0.00    -0.303 A  
HETATM   17  N   UNL     1     -11.939  13.225  70.437  1.00  0.00    -0.501 NA 
HETATM   18  C   UNL     1     -11.868  14.700  70.276  1.00  0.00    -0.303 A  
HETATM   19  H   UNL     1     -12.042  12.700  71.306  1.00  0.00     0.000 HD 
HETATM   20  C   UNL     1     -11.599  14.979  68.793  1.00  0.00    -0.335 A  
HETATM   21  N   UNL     1     -11.631  13.652  68.226  1.00  0.00    -0.316 NA 
ENDBRANCH  15  16
ENDBRANCH   6  15
TORSDOF 3
ENDMDL
MODEL       28
REMARK 921   NORMALIZED FREE ENERGY PREDICTED BY IDOCK:   -5.05 KCAL/MOL
REMARK 922        TOTAL FREE ENERGY PREDICTED BY IDOCK:   -6.27 KCAL/MOL
REMARK 923 INTER-LIGAND FREE ENERGY PREDICTED BY IDOCK:   -6.09 KCAL/MOL
REMARK 924 INTRA-LIGAND FREE ENERGY PREDICTED BY IDOCK:   -0.17 KCAL/MOL
REMARK 927      BINDING AFFINITY PREDICTED BY RF-SCORE:    0.00 PKD
ROOT
HETATM    1  C   UNL     1     -10.564  11.702  63.551  1.00  0.00    -0.496 C  
HETATM    2  C   UNL     1     -10.591  11.216  64.977  1.00  0.00    -0.340 A  
HETATM    3  C   UNL     1      -9.994   9.969  65.246  1.00  0.00    -0.368 A  
HETATM    4  C   UNL     1     -10.026   9.343  66.508  1.00  0.00    -0.339 A  
HETATM    5  C   UNL     1     -10.635  10.089  67.531  1.00  0.00    -0.280 A  
HETATM    6  C   UNL     1     -11.242  11.918  66.009  1.00  0.00    -0.377 A  
HETATM    7  C   UNL     1     -11.888  12.092  68.462  1.00  0.00    -0.365 C  
HETATM    8  H   UNL     1     -11.082  10.131  69.512  1.00  0.00     0.000 HD 
HETATM    9  C   UNL     1     -11.236  11.357  67.312  1.00  0.00    -0.370 A  
HETATM   10  O   UNL     1     -10.670   9.627  68.819  1.00  0.00    -0.221 OA 
ENDROOT
BRANCH   4  11
HETATM   11  C   UNL     1      -9.365   7.946  66.654  1.00  0.00    -0.244 C  
HETATM   12  C   UNL     1      -8.467   7.511  65.472  1.00  0.00    -0.129 C  
HETATM   13  C   UNL     1      -8.439   7.851  67.902  1.00  0.00    -0.126 C  
HETATM   14  C   UNL     1     -10.495   6.911  66.828  1.00  0.00    -0.300 C  
ENDBRANCH   4  11
BRANCH   6  15
HETATM   15  C   UNL     1     -12.001  13.201  65.705  1.00  0.00    -0.473 C  
BRANCH  15  16
HETATM   16  C   UNL     1     -11.255  14.514  65.833  1.00  0.00    -0.331 A  
HETATM   17  N   UNL     1     -11.185  15.323  64.806  1.00  0.00    -0.547 NA 
HETATM   18  C   UNL     1     -10.416  16.500  65.286  1.00  0.00    -0.213 A  
HETATM   19  H   UNL     1     -11.576  15.176  63.875  1.00  0.00     0.000 HD 
HETATM   20  C   UNL     1     -10.156  16.288  66.782  1.00  0.00    -0.278 A  
HETATM   21  N   UNL     1     -10.716  14.975  67.002  1.00  0.00    -0.298 NA 
ENDBRANCH  15  16
ENDBRANCH   6  15
TORSDOF 3
ENDMDL
MODEL       29
REMARK 921   NORMALIZED FREE ENERGY PREDICTED BY IDOCK:   -5.02 KCAL/MOL
REMARK 922        TOTAL FREE ENERGY PREDICTED BY IDOCK:   -6.22 KCAL/MOL
REMARK 923 INTER-LIGAND FREE ENERGY PREDICTED BY IDOCK:   -5.88 KCAL/MOL
REMARK 924 INTRA-LIGAND FREE ENERGY PREDICTED BY IDOCK:   -0.34 KCAL/MOL
REMARK 927      BINDING AFFINITY PREDICTED BY RF-SCORE:    0.00 PKD
ROOT
HETATM    1  C   UNL     1     -12.295  13.609  69.896  1.00  0.00    -0.310 C  
HETATM    2  C   UNL     1     -11.784  12.529  68.980  1.00  0.00    -0.368 A  
HETATM    3  C   UNL     1     -11.293  11.352  69.579  1.00  0.00    -0.357 A  
HETATM    4  C   UNL     1     -10.697  10.298  68.858  1.00  0.00    -0.256 A  
HETATM    5  C   UNL     1     -10.691  10.456  67.461  1.00  0.00    -0.287 A  
HETATM    6  C   UNL     1     -11.717  12.684  67.582  1.00  0.00    -0.420 A  
HETATM    7  C   UNL     1     -11.133  11.720  65.303  1.00  0.00    -0.333 C  
HETATM    8  H   UNL     1     -10.202   9.580  65.696  1.00  0.00     0.000 HD 
HETATM    9  C   UNL     1     -11.190  11.616  66.811  1.00  0.00    -0.371 A  
HETATM   10  O   UNL     1     -10.206   9.474  66.640  1.00  0.00    -0.242 OA 
ENDROOT
BRANCH   4  11
HETATM   11  C   UNL     1     -10.156   9.077  69.649  1.00  0.00    -0.202 C  
HETATM   12  C   UNL     1     -10.615   7.694  69.128  1.00  0.00    -0.195 C  
HETATM   13  C   UNL     1      -8.602   9.000  69.640  1.00  0.00    -0.137 C  
HETATM   14  C   UNL     1     -10.610   9.232  71.114  1.00  0.00    -0.402 C  
ENDBRANCH   4  11
BRANCH   6  15
HETATM   15  C   UNL     1     -12.125  13.999  66.934  1.00  0.00    -0.465 C  
BRANCH  15  16
HETATM   16  C   UNL     1     -11.080  15.090  66.825  1.00  0.00    -0.326 A  
HETATM   17  N   UNL     1     -10.352  15.185  65.740  1.00  0.00    -0.314 NA 
HETATM   18  C   UNL     1      -9.467  16.357  65.965  1.00  0.00    -0.310 A  
HETATM   19  H   UNL     1     -10.386  14.582  64.918  1.00  0.00     0.000 HD 
HETATM   20  C   UNL     1      -9.883  16.986  67.299  1.00  0.00    -0.260 A  
HETATM   21  N   UNL     1     -10.900  16.071  67.760  1.00  0.00    -0.326 NA 
ENDBRANCH  15  16
ENDBRANCH   6  15
TORSDOF 3
ENDMDL
MODEL       30
REMARK 921   NORMALIZED FREE ENERGY PREDICTED BY IDOCK:   -5.01 KCAL/MOL
REMARK 922        TOTAL FREE ENERGY PREDICTED BY IDOCK:   -6.22 KCAL/MOL
REMARK 923 INTER-LIGAND FREE ENERGY PREDICTED BY IDOCK:   -5.93 KCAL/MOL
REMARK 924 INTRA-LIGAND FREE ENERGY PREDICTED BY IDOCK:   -0.29 KCAL/MOL
REMARK 927      BINDING AFFINITY PREDICTED BY RF-SCORE:    0.00 PKD
ROOT
HETATM    1  C   UNL     1      -9.445  15.856  69.674  1.00  0.00    -0.148 C  
HETATM    2  C   UNL     1      -9.994  16.126  68.297  1.00  0.00    -0.226 A  
HETATM    3  C   UNL     1     -10.492  15.025  67.573  1.00  0.00    -0.256 A  
HETATM    4  C   UNL     1     -10.947  15.106  66.242  1.00  0.00    -0.335 A  
HETATM    5  C   UNL     1     -10.951  16.398  65.688  1.00  0.00    -0.077 A  
HETATM    6  C   UNL     1      -9.960  17.400  67.699  1.00  0.00    -0.300 A  
HETATM    7  C   UNL     1     -10.495  18.897  65.715  1.00  0.00    -0.347 C  
HETATM    8  H   UNL     1     -11.438  17.500  64.054  1.00  0.00     0.000 HD 
HETATM    9  C   UNL     1     -10.475  17.541  66.385  1.00  0.00    -0.277 A  
HETATM   10  O   UNL     1     -11.435  16.627  64.428  1.00  0.00    -0.959 OA 
ENDROOT
BRANCH   4  11
HETATM   11  C   UNL     1     -11.428  13.804  65.547  1.00  0.00    -0.319 C  
HETATM   12  C   UNL     1     -10.633  13.396  64.283  1.00  0.00    -0.358 C  
HETATM   13  C   UNL     1     -11.339  12.562  66.480  1.00  0.00    -0.387 C  
HETATM   14  C   UNL     1     -12.908  14.000  65.163  1.00  0.00    -0.368 C  
ENDBRANCH   4  11
BRANCH   6  15
HETATM   15  C   UNL     1      -9.308  18.570  68.421  1.00  0.00    -0.359 C  
BRANCH  15  16
HETATM   16  C   UNL     1      -7.809  18.742  68.285  1.00  0.00    -0.305 A  
HETATM   17  N   UNL     1      -7.176  18.157  67.298  1.00  0.00    -0.197 NA 
HETATM   18  C   UNL     1      -5.753  18.553  67.457  1.00  0.00    -0.149 A  
HETATM   19  H   UNL     1      -7.575  17.559  66.575  1.00  0.00     0.000 HD 
HETATM   20  C   UNL     1      -5.690  19.548  68.622  1.00  0.00    -0.207 A  
HETATM   21  N   UNL     1      -7.059  19.562  69.081  1.00  0.00    -0.356 NA 
ENDBRANCH  15  16
ENDBRANCH   6  15
TORSDOF 3
ENDMDL
MODEL       31
REMARK 921   NORMALIZED FREE ENERGY PREDICTED BY IDOCK:   -5.01 KCAL/MOL
REMARK 922        TOTAL FREE ENERGY PREDICTED BY IDOCK:   -6.22 KCAL/MOL
REMARK 923 INTER-LIGAND FREE ENERGY PREDICTED BY IDOCK:   -5.90 KCAL/MOL
REMARK 924 INTRA-LIGAND FREE ENERGY PREDICTED BY IDOCK:   -0.32 KCAL/MOL
REMARK 927      BINDING AFFINITY PREDICTED BY RF-SCORE:    0.00 PKD
ROOT
HETATM    1  C   UNL     1     -10.596  18.567  65.864  1.00  0.00    -0.336 C  
HETATM    2  C   UNL     1      -9.953  17.232  66.140  1.00  0.00    -0.288 A  
HETATM    3  C   UNL     1     -10.717  16.080  65.872  1.00  0.00    -0.287 A  
HETATM    4  C   UNL     1     -10.288  14.771  66.168  1.00  0.00    -0.314 A  
HETATM    5  C   UNL     1      -8.985  14.671  66.686  1.00  0.00    -0.238 A  
HETATM    6  C   UNL     1      -8.671  17.107  66.709  1.00  0.00    -0.270 A  
HETATM    7  C   UNL     1      -6.784  15.615  67.532  1.00  0.00    -0.221 C  
HETATM    8  H   UNL     1      -7.539  13.385  67.301  1.00  0.00     0.000 HD 
HETATM    9  C   UNL     1      -8.170  15.803  66.957  1.00  0.00    -0.262 A  
HETATM   10  O   UNL     1      -8.419  13.453  66.950  1.00  0.00    -0.160 OA 
ENDROOT
BRANCH   4  11
HETATM   11  C   UNL     1     -11.250  13.592  65.862  1.00  0.00    -0.311 C  
HETATM   12  C   UNL     1     -11.419  12.562  67.004  1.00  0.00    -0.419 C  
HETATM   13  C   UNL     1     -12.699  14.070  65.552  1.00  0.00    -0.517 C  
HETATM   14  C   UNL     1     -10.717  12.866  64.612  1.00  0.00    -0.373 C  
ENDBRANCH   4  11
BRANCH   6  15
HETATM   15  C   UNL     1      -7.889  18.345  67.121  1.00  0.00    -0.237 C  
BRANCH  15  16
HETATM   16  C   UNL     1      -7.137  19.100  66.044  1.00  0.00    -0.266 A  
HETATM   17  N   UNL     1      -7.076  20.408  66.091  1.00  0.00    -0.384 NA 
HETATM   18  C   UNL     1      -6.257  20.803  64.917  1.00  0.00    -0.274 A  
HETATM   19  H   UNL     1      -7.501  21.022  66.786  1.00  0.00     0.000 HD 
HETATM   20  C   UNL     1      -5.764  19.511  64.255  1.00  0.00    -0.276 A  
HETATM   21  N   UNL     1      -6.415  18.498  65.051  1.00  0.00    -0.463 NA 
ENDBRANCH  15  16
ENDBRANCH   6  15
TORSDOF 3
ENDMDL
MODEL       32
REMARK 921   NORMALIZED FREE ENERGY PREDICTED BY IDOCK:   -5.01 KCAL/MOL
REMARK 922        TOTAL FREE ENERGY PREDICTED BY IDOCK:   -6.21 KCAL/MOL
REMARK 923 INTER-LIGAND FREE ENERGY PREDICTED BY IDOCK:   -5.86 KCAL/MOL
REMARK 924 INTRA-LIGAND FREE ENERGY PREDICTED BY IDOCK:   -0.35 KCAL/MOL
REMARK 927      BINDING AFFINITY PREDICTED BY RF-SCORE:    0.00 PKD
ROOT
HETATM    1  C   UNL     1     -11.437  15.193  64.775  1.00  0.00    -0.383 C  
HETATM    2  C   UNL     1     -10.545  15.737  65.859  1.00  0.00    -0.350 A  
HETATM    3  C   UNL     1     -10.517  17.134  66.034  1.00  0.00    -0.271 A  
HETATM    4  C   UNL     1      -9.662  17.793  66.940  1.00  0.00    -0.300 A  
HETATM    5  C   UNL     1      -8.873  16.948  67.740  1.00  0.00    -0.217 A  
HETATM    6  C   UNL     1      -9.704  14.917  66.637  1.00  0.00    -0.276 A  
HETATM    7  C   UNL     1      -7.987  14.692  68.499  1.00  0.00    -0.136 C  
HETATM    8  H   UNL     1      -7.517  16.886  69.250  1.00  0.00     0.000 HD 
HETATM    9  C   UNL     1      -8.879  15.533  67.613  1.00  0.00    -0.185 A  
HETATM   10  O   UNL     1      -8.051  17.456  68.709  1.00  0.00    -0.269 OA 
ENDROOT
BRANCH   4  11
HETATM   11  C   UNL     1      -9.703  19.343  66.998  1.00  0.00    -0.425 C  
HETATM   12  C   UNL     1     -10.216  19.943  68.328  1.00  0.00    -0.562 C  
HETATM   13  C   UNL     1      -8.299  19.985  66.799  1.00  0.00    -0.372 C  
HETATM   14  C   UNL     1     -10.609  19.830  65.850  1.00  0.00    -0.557 C  
ENDBRANCH   4  11
BRANCH   6  15
HETATM   15  C   UNL     1      -9.630  13.421  66.371  1.00  0.00    -0.265 C  
BRANCH  15  16
HETATM   16  C   UNL     1     -10.447  12.502  67.256  1.00  0.00    -0.220 A  
HETATM   17  N   UNL     1     -10.308  11.204  67.146  1.00  0.00    -0.204 NA 
HETATM   18  C   UNL     1     -11.225  10.625  68.161  1.00  0.00    -0.302 A  
HETATM   19  H   UNL     1      -9.701  10.699  66.501  1.00  0.00     0.000 HD 
HETATM   20  C   UNL     1     -11.824  11.797  68.947  1.00  0.00    -0.320 A  
HETATM   21  N   UNL     1     -11.271  12.938  68.256  1.00  0.00    -0.251 NA 
ENDBRANCH  15  16
ENDBRANCH   6  15
TORSDOF 3
ENDMDL
MODEL       33
REMARK 921   NORMALIZED FREE ENERGY PREDICTED BY IDOCK:   -4.98 KCAL/MOL
REMARK 922        TOTAL FREE ENERGY PREDICTED BY IDOCK:   -6.18 KCAL/MOL
REMARK 923 INTER-LIGAND FREE ENERGY PREDICTED BY IDOCK:   -5.80 KCAL/MOL
REMARK 924 INTRA-LIGAND FREE ENERGY PREDICTED BY IDOCK:   -0.38 KCAL/MOL
REMARK 927      BINDING AFFINITY PREDICTED BY RF-SCORE:    0.00 PKD
ROOT
HETATM    1  C   UNL     1     -11.890  11.825  68.485  1.00  0.00    -0.365 C  
HETATM    2  C   UNL     1     -11.250  11.236  67.256  1.00  0.00    -0.364 A  
HETATM    3  C   UNL     1     -10.419  10.112  67.435  1.00  0.00    -0.310 A  
HETATM    4  C   UNL     1      -9.679   9.514  66.396  1.00  0.00    -0.295 A  
HETATM    5  C   UNL     1      -9.883  10.066  65.120  1.00  0.00    -0.318 A  
HETATM    6  C   UNL     1     -11.395  11.802  65.974  1.00  0.00    -0.335 A  
HETATM    7  C   UNL     1     -10.880  11.736  63.486  1.00  0.00    -0.496 C  
HETATM    8  H   UNL     1      -9.418   9.906  63.150  1.00  0.00     0.000 HD 
HETATM    9  C   UNL     1     -10.724  11.187  64.887  1.00  0.00    -0.318 A  
HETATM   10  O   UNL     1      -9.280   9.533  64.013  1.00  0.00    -0.219 OA 
ENDROOT
BRANCH   4  11
HETATM   11  C   UNL     1      -8.766   8.307  66.742  1.00  0.00    -0.143 C  
HETATM   12  C   UNL     1      -9.177   6.960  66.100  1.00  0.00    -0.118 C  
HETATM   13  C   UNL     1      -7.294   8.522  66.286  1.00  0.00    -0.079 C  
HETATM   14  C   UNL     1      -8.764   8.148  68.275  1.00  0.00    -0.133 C  
ENDBRANCH   4  11
BRANCH   6  15
HETATM   15  C   UNL     1     -12.185  13.089  65.789  1.00  0.00    -0.511 C  
BRANCH  15  16
HETATM   16  C   UNL     1     -11.433  14.402  65.872  1.00  0.00    -0.341 A  
HETATM   17  N   UNL     1     -11.127  15.044  64.772  1.00  0.00    -0.538 NA 
HETATM   18  C   UNL     1     -10.429  16.276  65.220  1.00  0.00    -0.300 A  
HETATM   19  H   UNL     1     -11.326  14.758  63.812  1.00  0.00     0.000 HD 
HETATM   20  C   UNL     1     -10.486  16.294  66.752  1.00  0.00    -0.287 A  
HETATM   21  N   UNL     1     -11.126  15.033  67.044  1.00  0.00    -0.330 NA 
ENDBRANCH  15  16
ENDBRANCH   6  15
TORSDOF 3
ENDMDL
MODEL       34
REMARK 921   NORMALIZED FREE ENERGY PREDICTED BY IDOCK:   -4.97 KCAL/MOL
REMARK 922        TOTAL FREE ENERGY PREDICTED BY IDOCK:   -6.16 KCAL/MOL
REMARK 923 INTER-LIGAND FREE ENERGY PREDICTED BY IDOCK:   -5.78 KCAL/MOL
REMARK 924 INTRA-LIGAND FREE ENERGY PREDICTED BY IDOCK:   -0.38 KCAL/MOL
REMARK 927      BINDING AFFINITY PREDICTED BY RF-SCORE:    0.00 PKD
ROOT
HETATM    1  C   UNL     1     -13.030  11.380  71.420  1.00  0.00    -0.468 C  
HETATM    2  C   UNL     1     -11.891  10.642  70.767  1.00  0.00    -0.459 A  
HETATM    3  C   UNL     1     -11.300   9.590  71.494  1.00  0.00    -0.456 A  
HETATM    4  C   UNL     1     -10.168   8.874  71.055  1.00  0.00    -0.322 A  
HETATM    5  C   UNL     1      -9.697   9.225  69.778  1.00  0.00    -0.189 A  
HETATM    6  C   UNL     1     -11.365  11.008  69.512  1.00  0.00    -0.356 A  
HETATM    7  C   UNL     1      -9.695  10.596  67.640  1.00  0.00    -0.186 C  
HETATM    8  H   UNL     1      -8.329   8.795  68.340  1.00  0.00     0.000 HD 
HETATM    9  C   UNL     1     -10.270  10.266  69.000  1.00  0.00    -0.225 A  
HETATM   10  O   UNL     1      -8.648   8.559  69.203  1.00  0.00    -0.130 OA 
ENDROOT
BRANCH   4  11
HETATM   11  C   UNL     1      -9.592   7.768  71.978  1.00  0.00    -0.217 C  
HETATM   12  C   UNL     1      -9.455   6.370  71.330  1.00  0.00    -0.164 C  
HETATM   13  C   UNL     1      -8.160   8.103  72.488  1.00  0.00    -0.204 C  
HETATM   14  C   UNL     1     -10.515   7.659  73.208  1.00  0.00    -0.414 C  
ENDBRANCH   4  11
BRANCH   6  15
HETATM   15  C   UNL     1     -11.911  12.222  68.776  1.00  0.00    -0.356 C  
BRANCH  15  16
HETATM   16  C   UNL     1     -11.428  13.591  69.209  1.00  0.00    -0.291 A  
HETATM   17  N   UNL     1     -10.179  13.931  69.009  1.00  0.00    -0.422 NA 
HETATM   18  C   UNL     1     -10.066  15.320  69.524  1.00  0.00    -0.256 A  
HETATM   19  H   UNL     1      -9.442  13.364  68.590  1.00  0.00     0.000 HD 
HETATM   20  C   UNL     1     -11.473  15.762  69.944  1.00  0.00    -0.346 A  
HETATM   21  N   UNL     1     -12.244  14.562  69.718  1.00  0.00    -0.322 NA 
ENDBRANCH  15  16
ENDBRANCH   6  15
TORSDOF 3
ENDMDL
MODEL       35
REMARK 921   NORMALIZED FREE ENERGY PREDICTED BY IDOCK:   -4.94 KCAL/MOL
REMARK 922        TOTAL FREE ENERGY PREDICTED BY IDOCK:   -6.14 KCAL/MOL
REMARK 923 INTER-LIGAND FREE ENERGY PREDICTED BY IDOCK:   -6.57 KCAL/MOL
REMARK 924 INTRA-LIGAND FREE ENERGY PREDICTED BY IDOCK:    0.44 KCAL/MOL
REMARK 927      BINDING AFFINITY PREDICTED BY RF-SCORE:    0.00 PKD
ROOT
HETATM    1  C   UNL     1     -11.032  17.375  68.046  1.00  0.00    -0.164 C  
HETATM    2  C   UNL     1     -11.335  15.957  68.454  1.00  0.00    -0.361 A  
HETATM    3  C   UNL     1     -12.009  15.766  69.676  1.00  0.00    -0.332 A  
HETATM    4  C   UNL     1     -12.274  14.499  70.233  1.00  0.00    -0.391 A  
HETATM    5  C   UNL     1     -11.888  13.404  69.441  1.00  0.00    -0.335 A  
HETATM    6  C   UNL     1     -10.911  14.841  67.706  1.00  0.00    -0.294 A  
HETATM    7  C   UNL     1     -10.821  12.318  67.408  1.00  0.00    -0.277 C  
HETATM    8  H   UNL     1     -11.891  11.378  69.298  1.00  0.00     0.000 HD 
HETATM    9  C   UNL     1     -11.221  13.546  68.195  1.00  0.00    -0.302 A  
HETATM   10  O   UNL     1     -12.152  12.119  69.833  1.00  0.00    -0.298 OA 
ENDROOT
BRANCH   4  11
HETATM   11  C   UNL     1     -12.986  14.434  71.611  1.00  0.00    -0.412 C  
HETATM   12  C   UNL     1     -13.335  13.011  72.109  1.00  0.00    -0.622 C  
HETATM   13  C   UNL     1     -12.129  15.048  72.756  1.00  0.00    -0.430 C  
HETATM   14  C   UNL     1     -14.285  15.256  71.504  1.00  0.00    -0.629 C  
ENDBRANCH   4  11
BRANCH   6  15
HETATM   15  C   UNL     1     -10.071  15.032  66.452  1.00  0.00    -0.289 C  
BRANCH  15  16
HETATM   16  C   UNL     1      -8.736  15.734  66.592  1.00  0.00    -0.288 A  
HETATM   17  N   UNL     1      -7.779  15.173  67.288  1.00  0.00    -0.201 NA 
HETATM   18  C   UNL     1      -6.628  16.108  67.195  1.00  0.00    -0.173 A  
HETATM   19  H   UNL     1      -7.815  14.284  67.787  1.00  0.00     0.000 HD 
HETATM   20  C   UNL     1      -7.040  17.235  66.241  1.00  0.00    -0.276 A  
HETATM   21  N   UNL     1      -8.413  16.896  65.949  1.00  0.00    -0.499 NA 
ENDBRANCH  15  16
ENDBRANCH   6  15
TORSDOF 3
ENDMDL
MODEL       36
REMARK 921   NORMALIZED FREE ENERGY PREDICTED BY IDOCK:   -4.94 KCAL/MOL
REMARK 922        TOTAL FREE ENERGY PREDICTED BY IDOCK:   -6.14 KCAL/MOL
REMARK 923 INTER-LIGAND FREE ENERGY PREDICTED BY IDOCK:   -5.87 KCAL/MOL
REMARK 924 INTRA-LIGAND FREE ENERGY PREDICTED BY IDOCK:   -0.26 KCAL/MOL
REMARK 927      BINDING AFFINITY PREDICTED BY RF-SCORE:    0.00 PKD
ROOT
HETATM    1  C   UNL     1     -10.433   7.586  69.089  1.00  0.00    -0.220 C  
HETATM    2  C   UNL     1     -10.980   8.963  69.362  1.00  0.00    -0.064 A  
HETATM    3  C   UNL     1     -10.635   9.986  68.458  1.00  0.00    -0.245 A  
HETATM    4  C   UNL     1     -10.990  11.338  68.635  1.00  0.00    -0.266 A  
HETATM    5  C   UNL     1     -11.800  11.604  69.753  1.00  0.00    -0.357 A  
HETATM    6  C   UNL     1     -11.747   9.266  70.504  1.00  0.00    -0.225 A  
HETATM    7  C   UNL     1     -13.046  10.969  71.873  1.00  0.00    -0.525 C  
HETATM    8  H   UNL     1     -12.821  13.043  70.757  1.00  0.00     0.000 HD 
HETATM    9  C   UNL     1     -12.188  10.602  70.683  1.00  0.00    -0.459 A  
HETATM   10  O   UNL     1     -12.274  12.863  70.001  1.00  0.00    -0.291 OA 
ENDROOT
BRANCH   4  11
HETATM   11  C   UNL     1     -10.505  12.371  67.583  1.00  0.00    -0.229 C  
HETATM   12  C   UNL     1      -9.812  13.628  68.161  1.00  0.00    -0.236 C  
HETATM   13  C   UNL     1      -9.462  11.773  66.595  1.00  0.00    -0.215 C  
HETATM   14  C   UNL     1     -11.731  12.813  66.761  1.00  0.00    -0.459 C  
ENDBRANCH   4  11
BRANCH   6  15
HETATM   15  C   UNL     1     -12.018   8.198  71.552  1.00  0.00    -0.334 C  
BRANCH  15  16
HETATM   16  C   UNL     1     -10.915   7.876  72.540  1.00  0.00    -0.350 A  
HETATM   17  N   UNL     1     -11.085   6.913  73.411  1.00  0.00    -0.532 NA 
HETATM   18  C   UNL     1      -9.820   6.861  74.188  1.00  0.00    -0.311 A  
HETATM   19  H   UNL     1     -11.910   6.325  73.531  1.00  0.00     0.000 HD 
HETATM   20  C   UNL     1      -8.857   7.868  73.548  1.00  0.00    -0.272 A  
HETATM   21  N   UNL     1      -9.683   8.468  72.527  1.00  0.00    -0.284 NA 
ENDBRANCH  15  16
ENDBRANCH   6  15
TORSDOF 3
ENDMDL
MODEL       37
REMARK 921   NORMALIZED FREE ENERGY PREDICTED BY IDOCK:   -4.94 KCAL/MOL
REMARK 922        TOTAL FREE ENERGY PREDICTED BY IDOCK:   -6.13 KCAL/MOL
REMARK 923 INTER-LIGAND FREE ENERGY PREDICTED BY IDOCK:   -5.87 KCAL/MOL
REMARK 924 INTRA-LIGAND FREE ENERGY PREDICTED BY IDOCK:   -0.27 KCAL/MOL
REMARK 927      BINDING AFFINITY PREDICTED BY RF-SCORE:    0.00 PKD
ROOT
HETATM    1  C   UNL     1      -8.520  14.191  68.438  1.00  0.00    -0.170 C  
HETATM    2  C   UNL     1      -9.390  13.572  67.376  1.00  0.00    -0.228 A  
HETATM    3  C   UNL     1      -8.912  12.406  66.747  1.00  0.00    -0.205 A  
HETATM    4  C   UNL     1      -9.567  11.771  65.674  1.00  0.00    -0.240 A  
HETATM    5  C   UNL     1     -10.801  12.336  65.307  1.00  0.00    -0.293 A  
HETATM    6  C   UNL     1     -10.603  14.149  66.952  1.00  0.00    -0.280 A  
HETATM    7  C   UNL     1     -12.659  14.062  65.459  1.00  0.00    -0.543 C  
HETATM    8  H   UNL     1     -12.407  12.157  64.077  1.00  0.00     0.000 HD 
HETATM    9  C   UNL     1     -11.332  13.502  65.922  1.00  0.00    -0.321 A  
HETATM   10  O   UNL     1     -11.573  11.775  64.326  1.00  0.00    -0.333 OA 
ENDROOT
BRANCH   4  11
HETATM   11  C   UNL     1      -8.905  10.516  65.044  1.00  0.00    -0.207 C  
HETATM   12  C   UNL     1      -8.964  10.442  63.499  1.00  0.00    -0.247 C  
HETATM   13  C   UNL     1      -7.390  10.408  65.381  1.00  0.00    -0.124 C  
HETATM   14  C   UNL     1      -9.607   9.275  65.629  1.00  0.00    -0.324 C  
ENDBRANCH   4  11
BRANCH   6  15
HETATM   15  C   UNL     1     -11.066  15.476  67.533  1.00  0.00    -0.305 C  
BRANCH  15  16
HETATM   16  C   UNL     1     -11.659  15.473  68.927  1.00  0.00    -0.373 A  
HETATM   17  N   UNL     1     -12.645  14.659  69.210  1.00  0.00    -0.556 NA 
HETATM   18  C   UNL     1     -12.954  14.902  70.643  1.00  0.00    -0.338 A  
HETATM   19  H   UNL     1     -13.103  13.998  68.581  1.00  0.00     0.000 HD 
HETATM   20  C   UNL     1     -11.914  15.901  71.164  1.00  0.00    -0.427 A  
HETATM   21  N   UNL     1     -11.164  16.207  69.969  1.00  0.00    -0.354 NA 
ENDBRANCH  15  16
ENDBRANCH   6  15
TORSDOF 3
ENDMDL
MODEL       38
REMARK 921   NORMALIZED FREE ENERGY PREDICTED BY IDOCK:   -4.93 KCAL/MOL
REMARK 922        TOTAL FREE ENERGY PREDICTED BY IDOCK:   -6.12 KCAL/MOL
REMARK 923 INTER-LIGAND FREE ENERGY PREDICTED BY IDOCK:   -6.39 KCAL/MOL
REMARK 924 INTRA-LIGAND FREE ENERGY PREDICTED BY IDOCK:    0.27 KCAL/MOL
REMARK 927      BINDING AFFINITY PREDICTED BY RF-SCORE:    0.00 PKD
ROOT
HETATM    1  C   UNL     1     -10.240  11.880  67.922  1.00  0.00    -0.203 C  
HETATM    2  C   UNL     1     -10.826  11.172  69.115  1.00  0.00    -0.284 A  
HETATM    3  C   UNL     1     -10.395   9.853  69.360  1.00  0.00    -0.238 A  
HETATM    4  C   UNL     1     -10.923   9.034  70.378  1.00  0.00    -0.283 A  
HETATM    5  C   UNL     1     -11.874   9.650  71.209  1.00  0.00    -0.381 A  
HETATM    6  C   UNL     1     -11.820  11.747  69.931  1.00  0.00    -0.423 A  
HETATM    7  C   UNL     1     -13.369  11.570  71.939  1.00  0.00    -0.408 C  
HETATM    8  H   UNL     1     -13.057   9.405  72.841  1.00  0.00     0.000 HD 
HETATM    9  C   UNL     1     -12.328  10.982  71.012  1.00  0.00    -0.490 A  
HETATM   10  O   UNL     1     -12.414   8.989  72.279  1.00  0.00    -0.375 OA 
ENDROOT
BRANCH   4  11
HETATM   11  C   UNL     1     -10.388   7.583  70.508  1.00  0.00    -0.217 C  
HETATM   12  C   UNL     1     -11.461   6.472  70.422  1.00  0.00    -0.465 C  
HETATM   13  C   UNL     1      -9.364   7.222  69.393  1.00  0.00    -0.151 C  
HETATM   14  C   UNL     1      -9.665   7.472  71.865  1.00  0.00    -0.191 C  
ENDBRANCH   4  11
BRANCH   6  15
HETATM   15  C   UNL     1     -12.386  13.119  69.600  1.00  0.00    -0.129 C  
BRANCH  15  16
HETATM   16  C   UNL     1     -12.446  14.149  70.710  1.00  0.00    -0.366 A  
HETATM   17  N   UNL     1     -11.339  14.554  71.279  1.00  0.00    -0.482 NA 
HETATM   18  C   UNL     1     -11.763  15.560  72.287  1.00  0.00    -0.482 A  
HETATM   19  H   UNL     1     -10.388  14.246  71.074  1.00  0.00     0.000 HD 
HETATM   20  C   UNL     1     -13.276  15.750  72.125  1.00  0.00    -0.428 A  
HETATM   21  N   UNL     1     -13.594  14.775  71.108  1.00  0.00    -0.391 NA 
ENDBRANCH  15  16
ENDBRANCH   6  15
TORSDOF 3
ENDMDL
MODEL       39
REMARK 921   NORMALIZED FREE ENERGY PREDICTED BY IDOCK:   -4.93 KCAL/MOL
REMARK 922        TOTAL FREE ENERGY PREDICTED BY IDOCK:   -6.12 KCAL/MOL
REMARK 923 INTER-LIGAND FREE ENERGY PREDICTED BY IDOCK:   -5.79 KCAL/MOL
REMARK 924 INTRA-LIGAND FREE ENERGY PREDICTED BY IDOCK:   -0.32 KCAL/MOL
REMARK 927      BINDING AFFINITY PREDICTED BY RF-SCORE:    0.00 PKD
ROOT
HETATM    1  C   UNL     1     -11.950  11.044  69.535  1.00  0.00    -0.413 C  
HETATM    2  C   UNL     1     -11.342  10.906  68.164  1.00  0.00    -0.383 A  
HETATM    3  C   UNL     1     -11.642  11.908  67.220  1.00  0.00    -0.364 A  
HETATM    4  C   UNL     1     -11.226  11.864  65.875  1.00  0.00    -0.373 A  
HETATM    5  C   UNL     1     -10.403  10.775  65.538  1.00  0.00    -0.241 A  
HETATM    6  C   UNL     1     -10.560   9.798  67.785  1.00  0.00    -0.320 A  
HETATM    7  C   UNL     1      -9.183   8.599  66.015  1.00  0.00    -0.276 C  
HETATM    8  H   UNL     1      -9.317   9.915  64.054  1.00  0.00     0.000 HD 
HETATM    9  C   UNL     1     -10.059   9.750  66.459  1.00  0.00    -0.307 A  
HETATM   10  O   UNL     1      -9.872  10.651  64.282  1.00  0.00    -0.278 OA 
ENDROOT
BRANCH   4  11
HETATM   11  C   UNL     1     -11.666  13.013  64.930  1.00  0.00    -0.381 C  
HETATM   12  C   UNL     1     -12.308  12.564  63.595  1.00  0.00    -0.618 C  
HETATM   13  C   UNL     1     -12.731  13.945  65.578  1.00  0.00    -0.536 C  
HETATM   14  C   UNL     1     -10.421  13.867  64.621  1.00  0.00    -0.419 C  
ENDBRANCH   4  11
BRANCH   6  15
HETATM   15  C   UNL     1     -10.335   8.648  68.756  1.00  0.00    -0.228 C  
BRANCH  15  16
HETATM   16  C   UNL     1      -9.031   8.614  69.525  1.00  0.00    -0.145 A  
HETATM   17  N   UNL     1      -8.741   9.585  70.355  1.00  0.00    -0.230 NA 
HETATM   18  C   UNL     1      -7.426   9.220  70.941  1.00  0.00    -0.102 A  
HETATM   19  H   UNL     1      -9.300  10.415  70.557  1.00  0.00     0.000 HD 
HETATM   20  C   UNL     1      -7.063   7.831  70.402  1.00  0.00    -0.050 A  
HETATM   21  N   UNL     1      -8.151   7.568  69.491  1.00  0.00    -0.126 NA 
ENDBRANCH  15  16
ENDBRANCH   6  15
TORSDOF 3
ENDMDL
MODEL       40
REMARK 921   NORMALIZED FREE ENERGY PREDICTED BY IDOCK:   -4.93 KCAL/MOL
REMARK 922        TOTAL FREE ENERGY PREDICTED BY IDOCK:   -6.12 KCAL/MOL
REMARK 923 INTER-LIGAND FREE ENERGY PREDICTED BY IDOCK:   -6.02 KCAL/MOL
REMARK 924 INTRA-LIGAND FREE ENERGY PREDICTED BY IDOCK:   -0.10 KCAL/MOL
REMARK 927      BINDING AFFINITY PREDICTED BY RF-SCORE:    0.00 PKD
ROOT
HETATM    1  C   UNL     1      -7.860  14.028  68.049  1.00  0.00    -0.152 C  
HETATM    2  C   UNL     1      -8.661  15.027  67.255  1.00  0.00    -0.226 A  
HETATM    3  C   UNL     1      -8.457  16.391  67.539  1.00  0.00    -0.182 A  
HETATM    4  C   UNL     1      -9.201  17.432  66.948  1.00  0.00    -0.266 A  
HETATM    5  C   UNL     1     -10.128  17.027  65.972  1.00  0.00    -0.302 A  
HETATM    6  C   UNL     1      -9.635  14.645  66.312  1.00  0.00    -0.333 A  
HETATM    7  C   UNL     1     -11.386  15.305  64.591  1.00  0.00    -0.364 C  
HETATM    8  H   UNL     1     -11.492  17.669  64.612  1.00  0.00     0.000 HD 
HETATM    9  C   UNL     1     -10.357  15.664  65.640  1.00  0.00    -0.408 A  
HETATM   10  O   UNL     1     -10.865  17.943  65.271  1.00  0.00    -0.614 OA 
ENDROOT
BRANCH   4  11
HETATM   11  C   UNL     1      -8.903  18.891  67.385  1.00  0.00    -0.293 C  
HETATM   12  C   UNL     1      -7.836  19.044  68.495  1.00  0.00    -0.375 C  
HETATM   13  C   UNL     1      -8.375  19.770  66.214  1.00  0.00    -0.383 C  
HETATM   14  C   UNL     1     -10.226  19.510  67.878  1.00  0.00    -0.550 C  
ENDBRANCH   4  11
BRANCH   6  15
HETATM   15  C   UNL     1      -9.954  13.174  66.091  1.00  0.00    -0.291 C  
BRANCH  15  16
HETATM   16  C   UNL     1     -10.643  12.421  67.210  1.00  0.00    -0.223 A  
HETATM   17  N   UNL     1     -11.450  13.059  68.020  1.00  0.00    -0.288 NA 
HETATM   18  C   UNL     1     -11.956  12.027  68.961  1.00  0.00    -0.264 A  
HETATM   19  H   UNL     1     -11.682  14.053  68.008  1.00  0.00     0.000 HD 
HETATM   20  C   UNL     1     -11.401  10.677  68.491  1.00  0.00    -0.284 A  
HETATM   21  N   UNL     1     -10.559  11.067  67.385  1.00  0.00    -0.222 NA 
ENDBRANCH  15  16
ENDBRANCH   6  15
TORSDOF 3
ENDMDL
MODEL       41
REMARK 921   NORMALIZED FREE ENERGY PREDICTED BY IDOCK:   -4.91 KCAL/MOL
REMARK 922        TOTAL FREE ENERGY PREDICTED BY IDOCK:   -6.10 KCAL/MOL
REMARK 923 INTER-LIGAND FREE ENERGY PREDICTED BY IDOCK:   -5.86 KCAL/MOL
REMARK 924 INTRA-LIGAND FREE ENERGY PREDICTED BY IDOCK:   -0.23 KCAL/MOL
REMARK 927      BINDING AFFINITY PREDICTED BY RF-SCORE:    0.00 PKD
ROOT
HETATM    1  C   UNL     1     -10.304   9.975  66.497  1.00  0.00    -0.268 C  
HETATM    2  C   UNL     1     -10.846  10.447  67.821  1.00  0.00    -0.351 A  
HETATM    3  C   UNL     1     -10.897   9.508  68.870  1.00  0.00    -0.177 A  
HETATM    4  C   UNL     1     -11.465   9.775  70.132  1.00  0.00    -0.272 A  
HETATM    5  C   UNL     1     -11.918  11.093  70.318  1.00  0.00    -0.373 A  
HETATM    6  C   UNL     1     -11.356  11.745  68.018  1.00  0.00    -0.355 A  
HETATM    7  C   UNL     1     -12.395  13.472  69.567  1.00  0.00    -0.198 C  
HETATM    8  H   UNL     1     -12.732  12.394  71.647  1.00  0.00     0.000 HD 
HETATM    9  C   UNL     1     -11.872  12.079  69.296  1.00  0.00    -0.377 A  
HETATM   10  O   UNL     1     -12.426  11.504  71.521  1.00  0.00    -0.270 OA 
ENDROOT
BRANCH   4  11
HETATM   11  C   UNL     1     -11.496   8.633  71.183  1.00  0.00    -0.332 C  
HETATM   12  C   UNL     1     -12.732   8.623  72.113  1.00  0.00    -0.447 C  
HETATM   13  C   UNL     1     -11.489   7.221  70.530  1.00  0.00    -0.310 C  
HETATM   14  C   UNL     1     -10.225   8.759  72.046  1.00  0.00    -0.401 C  
ENDBRANCH   4  11
BRANCH   6  15
HETATM   15  C   UNL     1     -11.424  12.727  66.858  1.00  0.00    -0.396 C  
BRANCH  15  16
HETATM   16  C   UNL     1     -10.313  13.748  66.726  1.00  0.00    -0.272 A  
HETATM   17  N   UNL     1     -10.503  14.823  66.003  1.00  0.00    -0.290 NA 
HETATM   18  C   UNL     1      -9.239  15.597  66.114  1.00  0.00    -0.343 A  
HETATM   19  H   UNL     1     -11.339  15.075  65.476  1.00  0.00     0.000 HD 
HETATM   20  C   UNL     1      -8.340  14.852  67.107  1.00  0.00    -0.221 A  
HETATM   21  N   UNL     1      -9.127  13.678  67.403  1.00  0.00    -0.211 NA 
ENDBRANCH  15  16
ENDBRANCH   6  15
TORSDOF 3
ENDMDL
MODEL       42
REMARK 921   NORMALIZED FREE ENERGY PREDICTED BY IDOCK:   -4.90 KCAL/MOL
REMARK 922        TOTAL FREE ENERGY PREDICTED BY IDOCK:   -6.09 KCAL/MOL
REMARK 923 INTER-LIGAND FREE ENERGY PREDICTED BY IDOCK:   -5.71 KCAL/MOL
REMARK 924 INTRA-LIGAND FREE ENERGY PREDICTED BY IDOCK:   -0.37 KCAL/MOL
REMARK 927      BINDING AFFINITY PREDICTED BY RF-SCORE:    0.00 PKD
ROOT
HETATM    1  C   UNL     1      -7.114  15.233  67.991  1.00  0.00    -0.139 C  
HETATM    2  C   UNL     1      -8.362  14.702  67.335  1.00  0.00    -0.223 A  
HETATM    3  C   UNL     1      -8.741  13.381  67.641  1.00  0.00    -0.198 A  
HETATM    4  C   UNL     1      -9.826  12.718  67.034  1.00  0.00    -0.231 A  
HETATM    5  C   UNL     1     -10.579  13.498  66.139  1.00  0.00    -0.290 A  
HETATM    6  C   UNL     1      -9.102  15.444  66.394  1.00  0.00    -0.350 A  
HETATM    7  C   UNL     1     -11.095  15.609  64.824  1.00  0.00    -0.426 C  
HETATM    8  H   UNL     1     -12.209  13.524  64.929  1.00  0.00     0.000 HD 
HETATM    9  C   UNL     1     -10.246  14.839  65.811  1.00  0.00    -0.359 A  
HETATM   10  O   UNL     1     -11.700  12.997  65.534  1.00  0.00    -0.333 OA 
ENDROOT
BRANCH   4  11
HETATM   11  C   UNL     1     -10.106  11.244  67.432  1.00  0.00    -0.214 C  
HETATM   12  C   UNL     1     -11.477  10.988  68.102  1.00  0.00    -0.374 C  
HETATM   13  C   UNL     1     -10.085  10.282  66.209  1.00  0.00    -0.300 C  
HETATM   14  C   UNL     1      -8.989  10.802  68.398  1.00  0.00    -0.153 C  
ENDBRANCH   4  11
BRANCH   6  15
HETATM   15  C   UNL     1      -8.630  16.823  65.960  1.00  0.00    -0.213 C  
BRANCH  15  16
HETATM   16  C   UNL     1      -9.243  18.030  66.640  1.00  0.00    -0.284 A  
HETATM   17  N   UNL     1      -8.916  18.313  67.876  1.00  0.00    -0.271 NA 
HETATM   18  C   UNL     1      -9.672  19.549  68.207  1.00  0.00    -0.404 A  
HETATM   19  H   UNL     1      -8.279  17.796  68.482  1.00  0.00     0.000 HD 
HETATM   20  C   UNL     1     -10.393  19.992  66.929  1.00  0.00    -0.436 A  
HETATM   21  N   UNL     1     -10.061  18.927  66.012  1.00  0.00    -0.517 NA 
ENDBRANCH  15  16
ENDBRANCH   6  15
TORSDOF 3
ENDMDL
MODEL       43
REMARK 921   NORMALIZED FREE ENERGY PREDICTED BY IDOCK:   -4.90 KCAL/MOL
REMARK 922        TOTAL FREE ENERGY PREDICTED BY IDOCK:   -6.09 KCAL/MOL
REMARK 923 INTER-LIGAND FREE ENERGY PREDICTED BY IDOCK:   -5.86 KCAL/MOL
REMARK 924 INTRA-LIGAND FREE ENERGY PREDICTED BY IDOCK:   -0.23 KCAL/MOL
REMARK 927      BINDING AFFINITY PREDICTED BY RF-SCORE:    0.00 PKD
ROOT
HETATM    1  C   UNL     1     -10.548  10.647  67.356  1.00  0.00    -0.304 C  
HETATM    2  C   UNL     1     -11.125  10.603  68.747  1.00  0.00    -0.316 A  
HETATM    3  C   UNL     1     -11.156   9.353  69.395  1.00  0.00    -0.098 A  
HETATM    4  C   UNL     1     -11.750   9.139  70.654  1.00  0.00    -0.256 A  
HETATM    5  C   UNL     1     -12.256  10.292  71.281  1.00  0.00    -0.395 A  
HETATM    6  C   UNL     1     -11.687  11.732  69.374  1.00  0.00    -0.405 A  
HETATM    7  C   UNL     1     -12.813  12.767  71.406  1.00  0.00    -0.371 C  
HETATM    8  H   UNL     1     -13.138  11.014  72.961  1.00  0.00     0.000 HD 
HETATM    9  C   UNL     1     -12.233  11.576  70.675  1.00  0.00    -0.473 A  
HETATM   10  O   UNL     1     -12.796  10.235  72.537  1.00  0.00    -0.112 OA 
ENDROOT
BRANCH   4  11
HETATM   11  C   UNL     1     -11.753   7.700  71.233  1.00  0.00    -0.308 C  
HETATM   12  C   UNL     1     -11.096   6.624  70.336  1.00  0.00    -0.374 C  
HETATM   13  C   UNL     1     -10.987   7.598  72.585  1.00  0.00    -0.405 C  
HETATM   14  C   UNL     1     -13.219   7.303  71.493  1.00  0.00    -0.434 C  
ENDBRANCH   4  11
BRANCH   6  15
HETATM   15  C   UNL     1     -11.776  13.058  68.634  1.00  0.00    -0.359 C  
BRANCH  15  16
HETATM   16  C   UNL     1     -10.635  14.040  68.798  1.00  0.00    -0.251 A  
HETATM   17  N   UNL     1     -10.700  14.961  69.728  1.00  0.00    -0.374 NA 
HETATM   18  C   UNL     1      -9.426  15.716  69.620  1.00  0.00    -0.243 A  
HETATM   19  H   UNL     1     -11.463  15.123  70.386  1.00  0.00     0.000 HD 
HETATM   20  C   UNL     1      -8.573  15.012  68.559  1.00  0.00    -0.166 A  
HETATM   21  N   UNL     1      -9.466  13.977  68.093  1.00  0.00    -0.209 NA 
ENDBRANCH  15  16
ENDBRANCH   6  15
TORSDOF 3
ENDMDL
MODEL       44
REMARK 921   NORMALIZED FREE ENERGY PREDICTED BY IDOCK:   -4.89 KCAL/MOL
REMARK 922        TOTAL FREE ENERGY PREDICTED BY IDOCK:   -6.07 KCAL/MOL
REMARK 923 INTER-LIGAND FREE ENERGY PREDICTED BY IDOCK:   -5.92 KCAL/MOL
REMARK 924 INTRA-LIGAND FREE ENERGY PREDICTED BY IDOCK:   -0.15 KCAL/MOL
REMARK 927      BINDING AFFINITY PREDICTED BY RF-SCORE:    0.00 PKD
ROOT
HETATM    1  C   UNL     1     -10.600   8.735  67.457  1.00  0.00    -0.298 C  
HETATM    2  C   UNL     1     -11.060  10.145  67.724  1.00  0.00    -0.293 A  
HETATM    3  C   UNL     1     -11.153  11.014  66.619  1.00  0.00    -0.201 A  
HETATM    4  C   UNL     1     -11.475  12.382  66.726  1.00  0.00    -0.423 A  
HETATM    5  C   UNL     1     -11.784  12.825  68.023  1.00  0.00    -0.356 A  
HETATM    6  C   UNL     1     -11.323  10.628  69.020  1.00  0.00    -0.340 A  
HETATM    7  C   UNL     1     -12.052  12.537  70.533  1.00  0.00    -0.361 C  
HETATM    8  H   UNL     1     -12.391  14.414  69.132  1.00  0.00     0.000 HD 
HETATM    9  C   UNL     1     -11.721  11.982  69.165  1.00  0.00    -0.389 A  
HETATM   10  O   UNL     1     -12.182  14.114  68.255  1.00  0.00    -0.317 OA 
ENDROOT
BRANCH   4  11
HETATM   11  C   UNL     1     -11.498  13.236  65.430  1.00  0.00    -0.328 C  
HETATM   12  C   UNL     1     -12.786  14.065  65.207  1.00  0.00    -0.468 C  
HETATM   13  C   UNL     1     -10.348  14.284  65.386  1.00  0.00    -0.391 C  
HETATM   14  C   UNL     1     -11.309  12.280  64.237  1.00  0.00    -0.415 C  
ENDBRANCH   4  11
BRANCH   6  15
HETATM   15  C   UNL     1     -11.102   9.736  70.232  1.00  0.00    -0.349 C  
BRANCH  15  16
HETATM   16  C   UNL     1      -9.676   9.389  70.608  1.00  0.00    -0.273 A  
HETATM   17  N   UNL     1      -8.691  10.129  70.163  1.00  0.00    -0.345 NA 
HETATM   18  C   UNL     1      -7.460   9.526  70.736  1.00  0.00    -0.076 A  
HETATM   19  H   UNL     1      -8.755  10.945  69.555  1.00  0.00     0.000 HD 
HETATM   20  C   UNL     1      -7.905   8.394  71.670  1.00  0.00    -0.120 A  
HETATM   21  N   UNL     1      -9.337   8.392  71.479  1.00  0.00    -0.179 NA 
ENDBRANCH  15  16
ENDBRANCH   6  15
TORSDOF 3
ENDMDL
MODEL       45
REMARK 921   NORMALIZED FREE ENERGY PREDICTED BY IDOCK:   -4.88 KCAL/MOL
REMARK 922        TOTAL FREE ENERGY PREDICTED BY IDOCK:   -6.06 KCAL/MOL
REMARK 923 INTER-LIGAND FREE ENERGY PREDICTED BY IDOCK:   -5.78 KCAL/MOL
REMARK 924 INTRA-LIGAND FREE ENERGY PREDICTED BY IDOCK:   -0.28 KCAL/MOL
REMARK 927      BINDING AFFINITY PREDICTED BY RF-SCORE:    0.00 PKD
ROOT
HETATM    1  C   UNL     1      -7.526  14.911  67.276  1.00  0.00    -0.193 C  
HETATM    2  C   UNL     1      -8.782  14.080  67.291  1.00  0.00    -0.227 A  
HETATM    3  C   UNL     1      -8.733  12.846  67.968  1.00  0.00    -0.191 A  
HETATM    4  C   UNL     1      -9.796  11.921  67.985  1.00  0.00    -0.190 A  
HETATM    5  C   UNL     1     -10.969  12.345  67.338  1.00  0.00    -0.254 A  
HETATM    6  C   UNL     1      -9.953  14.457  66.604  1.00  0.00    -0.278 A  
HETATM    7  C   UNL     1     -12.364  13.965  65.967  1.00  0.00    -0.511 C  
HETATM    8  H   UNL     1     -12.892  11.858  66.903  1.00  0.00     0.000 HD 
HETATM    9  C   UNL     1     -11.072  13.587  66.656  1.00  0.00    -0.309 A  
HETATM   10  O   UNL     1     -12.099  11.572  67.341  1.00  0.00    -0.593 OA 
ENDROOT
BRANCH   4  11
HETATM   11  C   UNL     1      -9.591  10.577  68.734  1.00  0.00    -0.181 C  
HETATM   12  C   UNL     1     -10.538  10.337  69.934  1.00  0.00    -0.324 C  
HETATM   13  C   UNL     1      -9.809   9.342  67.813  1.00  0.00    -0.210 C  
HETATM   14  C   UNL     1      -8.134  10.539  69.234  1.00  0.00    -0.152 C  
ENDBRANCH   4  11
BRANCH   6  15
HETATM   15  C   UNL     1      -9.976  15.725  65.764  1.00  0.00    -0.389 C  
BRANCH  15  16
HETATM   16  C   UNL     1      -9.945  17.056  66.486  1.00  0.00    -0.310 A  
HETATM   17  N   UNL     1     -10.727  17.252  67.518  1.00  0.00    -0.321 NA 
HETATM   18  C   UNL     1     -10.422  18.629  67.984  1.00  0.00    -0.349 A  
HETATM   19  H   UNL     1     -11.402  16.598  67.917  1.00  0.00     0.000 HD 
HETATM   20  C   UNL     1      -9.261  19.148  67.128  1.00  0.00    -0.297 A  
HETATM   21  N   UNL     1      -9.068  18.063  66.194  1.00  0.00    -0.504 NA 
ENDBRANCH  15  16
ENDBRANCH   6  15
TORSDOF 3
ENDMDL
MODEL       46
REMARK 921   NORMALIZED FREE ENERGY PREDICTED BY IDOCK:   -4.87 KCAL/MOL
REMARK 922        TOTAL FREE ENERGY PREDICTED BY IDOCK:   -6.05 KCAL/MOL
REMARK 923 INTER-LIGAND FREE ENERGY PREDICTED BY IDOCK:   -5.75 KCAL/MOL
REMARK 924 INTRA-LIGAND FREE ENERGY PREDICTED BY IDOCK:   -0.31 KCAL/MOL
REMARK 927      BINDING AFFINITY PREDICTED BY RF-SCORE:    0.00 PKD
ROOT
HETATM    1  C   UNL     1     -12.618  13.850  65.244  1.00  0.00    -0.508 C  
HETATM    2  C   UNL     1     -11.298  14.120  65.917  1.00  0.00    -0.323 A  
HETATM    3  C   UNL     1     -10.961  15.465  66.165  1.00  0.00    -0.279 A  
HETATM    4  C   UNL     1      -9.724  15.876  66.698  1.00  0.00    -0.270 A  
HETATM    5  C   UNL     1      -8.849  14.835  67.053  1.00  0.00    -0.237 A  
HETATM    6  C   UNL     1     -10.381  13.099  66.233  1.00  0.00    -0.291 A  
HETATM    7  C   UNL     1      -8.149  12.399  67.230  1.00  0.00    -0.182 C  
HETATM    8  H   UNL     1      -7.051  14.390  67.886  1.00  0.00     0.000 HD 
HETATM    9  C   UNL     1      -9.150  13.463  66.838  1.00  0.00    -0.237 A  
HETATM   10  O   UNL     1      -7.643  15.094  67.646  1.00  0.00    -0.140 OA 
ENDROOT
BRANCH   4  11
HETATM   11  C   UNL     1      -9.467  17.396  66.878  1.00  0.00    -0.275 C  
HETATM   12  C   UNL     1      -8.109  17.906  66.340  1.00  0.00    -0.296 C  
HETATM   13  C   UNL     1     -10.527  18.271  66.148  1.00  0.00    -0.403 C  
HETATM   14  C   UNL     1      -9.555  17.709  68.384  1.00  0.00    -0.310 C  
ENDBRANCH   4  11
BRANCH   6  15
HETATM   15  C   UNL     1     -10.677  11.656  65.853  1.00  0.00    -0.328 C  
BRANCH  15  16
HETATM   16  C   UNL     1      -9.973  11.082  64.641  1.00  0.00    -0.301 A  
HETATM   17  N   UNL     1      -9.749  11.845  63.600  1.00  0.00    -0.545 NA 
HETATM   18  C   UNL     1      -9.034  10.978  62.627  1.00  0.00    -0.323 A  
HETATM   19  H   UNL     1     -10.010  12.824  63.482  1.00  0.00     0.000 HD 
HETATM   20  C   UNL     1      -8.783   9.634  63.321  1.00  0.00    -0.230 A  
HETATM   21  N   UNL     1      -9.453   9.819  64.587  1.00  0.00    -0.273 NA 
ENDBRANCH  15  16
ENDBRANCH   6  15
TORSDOF 3
ENDMDL
MODEL       47
REMARK 921   NORMALIZED FREE ENERGY PREDICTED BY IDOCK:   -4.85 KCAL/MOL
REMARK 922        TOTAL FREE ENERGY PREDICTED BY IDOCK:   -6.03 KCAL/MOL
REMARK 923 INTER-LIGAND FREE ENERGY PREDICTED BY IDOCK:   -5.71 KCAL/MOL
REMARK 924 INTRA-LIGAND FREE ENERGY PREDICTED BY IDOCK:   -0.31 KCAL/MOL
REMARK 927      BINDING AFFINITY PREDICTED BY RF-SCORE:    0.00 PKD
ROOT
HETATM    1  C   UNL     1     -12.262  11.525  69.849  1.00  0.00    -0.328 C  
HETATM    2  C   UNL     1     -11.275  11.376  68.721  1.00  0.00    -0.308 A  
HETATM    3  C   UNL     1     -11.536  12.090  67.535  1.00  0.00    -0.403 A  
HETATM    4  C   UNL     1     -10.757  11.976  66.367  1.00  0.00    -0.294 A  
HETATM    5  C   UNL     1      -9.627  11.148  66.479  1.00  0.00    -0.197 A  
HETATM    6  C   UNL     1     -10.165  10.512  68.789  1.00  0.00    -0.205 A  
HETATM    7  C   UNL     1      -8.087   9.536  67.696  1.00  0.00    -0.110 C  
HETATM    8  H   UNL     1      -7.983  10.446  65.515  1.00  0.00     0.000 HD 
HETATM    9  C   UNL     1      -9.313  10.421  67.658  1.00  0.00    -0.161 A  
HETATM   10  O   UNL     1      -8.747  11.006  65.439  1.00  0.00    -0.184 OA 
ENDROOT
BRANCH   4  11
HETATM   11  C   UNL     1     -11.184  12.787  65.114  1.00  0.00    -0.327 C  
HETATM   12  C   UNL     1     -10.321  14.033  64.806  1.00  0.00    -0.407 C  
HETATM   13  C   UNL     1     -11.128  11.942  63.808  1.00  0.00    -0.510 C  
HETATM   14  C   UNL     1     -12.645  13.233  65.323  1.00  0.00    -0.528 C  
ENDBRANCH   4  11
BRANCH   6  15
HETATM   15  C   UNL     1      -9.945   9.639  70.016  1.00  0.00    -0.288 C  
BRANCH  15  16
HETATM   16  C   UNL     1     -10.615   8.281  70.051  1.00  0.00    -0.235 A  
HETATM   17  N   UNL     1     -11.593   8.063  70.894  1.00  0.00    -0.289 NA 
HETATM   18  C   UNL     1     -12.021   6.663  70.641  1.00  0.00    -0.343 A  
HETATM   19  H   UNL     1     -11.979   8.715  71.578  1.00  0.00     0.000 HD 
HETATM   20  C   UNL     1     -11.212   6.153  69.444  1.00  0.00    -0.396 A  
HETATM   21  N   UNL     1     -10.334   7.268  69.177  1.00  0.00    -0.201 NA 
ENDBRANCH  15  16
ENDBRANCH   6  15
TORSDOF 3
ENDMDL
MODEL       48
REMARK 921   NORMALIZED FREE ENERGY PREDICTED BY IDOCK:   -4.80 KCAL/MOL
REMARK 922        TOTAL FREE ENERGY PREDICTED BY IDOCK:   -5.97 KCAL/MOL
REMARK 923 INTER-LIGAND FREE ENERGY PREDICTED BY IDOCK:   -5.96 KCAL/MOL
REMARK 924 INTRA-LIGAND FREE ENERGY PREDICTED BY IDOCK:   -0.01 KCAL/MOL
REMARK 927      BINDING AFFINITY PREDICTED BY RF-SCORE:    0.00 PKD
ROOT
HETATM    1  C   UNL     1      -7.855  16.251  66.380  1.00  0.00    -0.249 C  
HETATM    2  C   UNL     1      -9.086  15.485  66.789  1.00  0.00    -0.282 A  
HETATM    3  C   UNL     1      -9.441  14.368  66.007  1.00  0.00    -0.239 A  
HETATM    4  C   UNL     1     -10.614  13.614  66.209  1.00  0.00    -0.289 A  
HETATM    5  C   UNL     1     -11.392  14.000  67.315  1.00  0.00    -0.330 A  
HETATM    6  C   UNL     1      -9.911  15.883  67.858  1.00  0.00    -0.221 A  
HETATM    7  C   UNL     1     -11.962  15.473  69.304  1.00  0.00    -0.338 C  
HETATM    8  H   UNL     1     -13.045  13.568  68.412  1.00  0.00     0.000 HD 
HETATM    9  C   UNL     1     -11.065  15.108  68.142  1.00  0.00    -0.306 A  
HETATM   10  O   UNL     1     -12.519  13.307  67.664  1.00  0.00    -0.078 OA 
ENDROOT
BRANCH   4  11
HETATM   11  C   UNL     1     -10.907  12.434  65.245  1.00  0.00    -0.324 C  
HETATM   12  C   UNL     1     -10.053  12.406  63.955  1.00  0.00    -0.349 C  
HETATM   13  C   UNL     1     -10.658  11.047  65.905  1.00  0.00    -0.270 C  
HETATM   14  C   UNL     1     -12.396  12.508  64.854  1.00  0.00    -0.539 C  
ENDBRANCH   4  11
BRANCH   6  15
HETATM   15  C   UNL     1      -9.609  17.159  68.628  1.00  0.00    -0.281 C  
BRANCH  15  16
HETATM   16  C   UNL     1      -9.852  18.483  67.932  1.00  0.00    -0.325 A  
HETATM   17  N   UNL     1      -9.291  19.572  68.396  1.00  0.00    -0.355 NA 
HETATM   18  C   UNL     1      -9.720  20.655  67.473  1.00  0.00    -0.369 A  
HETATM   19  H   UNL     1      -8.689  19.658  69.215  1.00  0.00     0.000 HD 
HETATM   20  C   UNL     1     -10.520  19.995  66.344  1.00  0.00    -0.417 A  
HETATM   21  N   UNL     1     -10.555  18.615  66.767  1.00  0.00    -0.397 NA 
ENDBRANCH  15  16
ENDBRANCH   6  15
TORSDOF 3
ENDMDL
MODEL       49
REMARK 921   NORMALIZED FREE ENERGY PREDICTED BY IDOCK:   -4.78 KCAL/MOL
REMARK 922        TOTAL FREE ENERGY PREDICTED BY IDOCK:   -5.95 KCAL/MOL
REMARK 923 INTER-LIGAND FREE ENERGY PREDICTED BY IDOCK:   -5.58 KCAL/MOL
REMARK 924 INTRA-LIGAND FREE ENERGY PREDICTED BY IDOCK:   -0.36 KCAL/MOL
REMARK 927      BINDING AFFINITY PREDICTED BY RF-SCORE:    0.00 PKD
ROOT
HETATM    1  C   UNL     1      -7.202  14.824  67.597  1.00  0.00    -0.208 C  
HETATM    2  C   UNL     1      -8.502  14.065  67.643  1.00  0.00    -0.193 A  
HETATM    3  C   UNL     1      -8.570  12.854  66.927  1.00  0.00    -0.132 A  
HETATM    4  C   UNL     1      -9.744  12.085  66.799  1.00  0.00    -0.218 A  
HETATM    5  C   UNL     1     -10.855  12.567  67.513  1.00  0.00    -0.232 A  
HETATM    6  C   UNL     1      -9.646  14.552  68.305  1.00  0.00    -0.212 A  
HETATM    7  C   UNL     1     -12.074  14.236  68.989  1.00  0.00    -0.320 C  
HETATM    8  H   UNL     1     -12.789  12.202  68.013  1.00  0.00     0.000 HD 
HETATM    9  C   UNL     1     -10.831  13.773  68.262  1.00  0.00    -0.266 A  
HETATM   10  O   UNL     1     -12.037  11.877  67.531  1.00  0.00    -0.573 OA 
ENDROOT
BRANCH   4  11
HETATM   11  C   UNL     1      -9.689  10.793  65.942  1.00  0.00    -0.272 C  
HETATM   12  C   UNL     1     -10.235   9.519  66.630  1.00  0.00    -0.310 C  
HETATM   13  C   UNL     1     -10.517  10.911  64.629  1.00  0.00    -0.384 C  
HETATM   14  C   UNL     1      -8.217  10.555  65.550  1.00  0.00    -0.162 C  
ENDBRANCH   4  11
BRANCH   6  15
HETATM   15  C   UNL     1      -9.623  15.919  68.973  1.00  0.00    -0.247 C  
BRANCH  15  16
HETATM   16  C   UNL     1     -10.012  17.123  68.140  1.00  0.00    -0.297 A  
HETATM   17  N   UNL     1     -10.192  18.283  68.721  1.00  0.00    -0.397 NA 
HETATM   18  C   UNL     1     -10.534  19.222  67.622  1.00  0.00    -0.453 A  
HETATM   19  H   UNL     1     -10.114  18.496  69.716  1.00  0.00     0.000 HD 
HETATM   20  C   UNL     1     -10.409  18.442  66.308  1.00  0.00    -0.415 A  
HETATM   21  N   UNL     1     -10.098  17.112  66.775  1.00  0.00    -0.293 NA 
ENDBRANCH  15  16
ENDBRANCH   6  15
TORSDOF 3
ENDMDL
MODEL       50
REMARK 921   NORMALIZED FREE ENERGY PREDICTED BY IDOCK:   -4.75 KCAL/MOL
REMARK 922        TOTAL FREE ENERGY PREDICTED BY IDOCK:   -5.91 KCAL/MOL
REMARK 923 INTER-LIGAND FREE ENERGY PREDICTED BY IDOCK:   -5.61 KCAL/MOL
REMARK 924 INTRA-LIGAND FREE ENERGY PREDICTED BY IDOCK:   -0.30 KCAL/MOL
REMARK 927      BINDING AFFINITY PREDICTED BY RF-SCORE:    0.00 PKD
ROOT
HETATM    1  C   UNL     1     -11.053  10.396  67.883  1.00  0.00    -0.363 C  
HETATM    2  C   UNL     1     -10.770  10.672  66.429  1.00  0.00    -0.198 A  
HETATM    3  C   UNL     1      -9.826   9.848  65.786  1.00  0.00    -0.356 A  
HETATM    4  C   UNL     1      -9.389  10.045  64.461  1.00  0.00    -0.345 A  
HETATM    5  C   UNL     1     -10.026  11.091  63.771  1.00  0.00    -0.350 A  
HETATM    6  C   UNL     1     -11.353  11.747  65.730  1.00  0.00    -0.309 A  
HETATM    7  C   UNL     1     -11.624  13.055  63.567  1.00  0.00    -0.468 C  
HETATM    8  H   UNL     1     -10.176  12.052  61.988  1.00  0.00     0.000 HD 
HETATM    9  C   UNL     1     -10.995  11.938  64.371  1.00  0.00    -0.392 A  
HETATM   10  O   UNL     1      -9.745  11.345  62.455  1.00  0.00    -0.197 OA 
ENDROOT
BRANCH   4  11
HETATM   11  C   UNL     1      -8.308   9.089  63.891  1.00  0.00    -0.178 C  
HETATM   12  C   UNL     1      -8.552   8.603  62.442  1.00  0.00    -0.162 C  
HETATM   13  C   UNL     1      -6.896   9.741  63.850  1.00  0.00    -0.120 C  
HETATM   14  C   UNL     1      -8.233   7.862  64.821  1.00  0.00    -0.112 C  
ENDBRANCH   4  11
BRANCH   6  15
HETATM   15  C   UNL     1     -12.276  12.720  66.449  1.00  0.00    -0.242 C  
BRANCH  15  16
HETATM   16  C   UNL     1     -11.649  13.917  67.134  1.00  0.00    -0.364 A  
HETATM   17  N   UNL     1     -12.361  14.632  67.970  1.00  0.00    -0.589 NA 
HETATM   18  C   UNL     1     -11.441  15.689  68.462  1.00  0.00    -0.375 A  
HETATM   19  H   UNL     1     -13.339  14.492  68.227  1.00  0.00     0.000 HD 
HETATM   20  C   UNL     1     -10.060  15.398  67.865  1.00  0.00    -0.226 A  
HETATM   21  N   UNL     1     -10.332  14.261  67.017  1.00  0.00    -0.265 NA 
ENDBRANCH  15  16
ENDBRANCH   6  15
TORSDOF 3
ENDMDL
MODEL       51
REMARK 921   NORMALIZED FREE ENERGY PREDICTED BY IDOCK:   -4.73 KCAL/MOL
REMARK 922        TOTAL FREE ENERGY PREDICTED BY IDOCK:   -5.89 KCAL/MOL
REMARK 923 INTER-LIGAND FREE ENERGY PREDICTED BY IDOCK:   -5.61 KCAL/MOL
REMARK 924 INTRA-LIGAND FREE ENERGY PREDICTED BY IDOCK:   -0.28 KCAL/MOL
REMARK 927      BINDING AFFINITY PREDICTED BY RF-SCORE:    0.00 PKD
ROOT
HETATM    1  C   UNL     1     -12.276  12.371  63.848  1.00  0.00    -0.603 C  
HETATM    2  C   UNL     1     -11.171  11.777  64.681  1.00  0.00    -0.349 A  
HETATM    3  C   UNL     1     -10.239  10.950  64.023  1.00  0.00    -0.422 A  
HETATM    4  C   UNL     1      -9.211  10.250  64.685  1.00  0.00    -0.290 A  
HETATM    5  C   UNL     1      -9.115  10.492  66.067  1.00  0.00    -0.168 A  
HETATM    6  C   UNL     1     -11.084  11.959  66.075  1.00  0.00    -0.369 A  
HETATM    7  C   UNL     1      -9.863  11.526  68.262  1.00  0.00    -0.203 C  
HETATM    8  H   UNL     1      -8.052  10.093  67.750  1.00  0.00     0.000 HD 
HETATM    9  C   UNL     1     -10.021  11.329  66.771  1.00  0.00    -0.238 A  
HETATM   10  O   UNL     1      -8.117   9.930  66.816  1.00  0.00    -0.115 OA 
ENDROOT
BRANCH   4  11
HETATM   11  C   UNL     1      -8.280   9.337  63.843  1.00  0.00    -0.165 C  
HETATM   12  C   UNL     1      -8.125   7.889  64.365  1.00  0.00    -0.103 C  
HETATM   13  C   UNL     1      -8.774   9.172  62.377  1.00  0.00    -0.226 C  
HETATM   14  C   UNL     1      -6.890  10.002  63.799  1.00  0.00    -0.126 C  
ENDBRANCH   4  11
BRANCH   6  15
HETATM   15  C   UNL     1     -12.158  12.743  66.814  1.00  0.00    -0.290 C  
BRANCH  15  16
HETATM   16  C   UNL     1     -11.812  14.137  67.298  1.00  0.00    -0.419 A  
HETATM   17  N   UNL     1     -12.182  14.518  68.496  1.00  0.00    -0.602 NA 
HETATM   18  C   UNL     1     -11.665  15.902  68.643  1.00  0.00    -0.322 A  
HETATM   19  H   UNL     1     -12.712  13.978  69.181  1.00  0.00     0.000 HD 
HETATM   20  C   UNL     1     -10.842  16.212  67.386  1.00  0.00    -0.265 A  
HETATM   21  N   UNL     1     -11.037  15.018  66.597  1.00  0.00    -0.330 NA 
ENDBRANCH  15  16
ENDBRANCH   6  15
TORSDOF 3
ENDMDL
MODEL       52
REMARK 921   NORMALIZED FREE ENERGY PREDICTED BY IDOCK:   -4.73 KCAL/MOL
REMARK 922        TOTAL FREE ENERGY PREDICTED BY IDOCK:   -5.88 KCAL/MOL
REMARK 923 INTER-LIGAND FREE ENERGY PREDICTED BY IDOCK:   -5.57 KCAL/MOL
REMARK 924 INTRA-LIGAND FREE ENERGY PREDICTED BY IDOCK:   -0.31 KCAL/MOL
REMARK 927      BINDING AFFINITY PREDICTED BY RF-SCORE:    0.00 PKD
ROOT
HETATM    1  C   UNL     1     -10.541  18.822  65.917  1.00  0.00    -0.405 C  
HETATM    2  C   UNL     1     -10.289  17.449  66.483  1.00  0.00    -0.312 A  
HETATM    3  C   UNL     1     -10.769  16.349  65.747  1.00  0.00    -0.245 A  
HETATM    4  C   UNL     1     -10.694  15.015  66.195  1.00  0.00    -0.328 A  
HETATM    5  C   UNL     1     -10.021  14.831  67.415  1.00  0.00    -0.223 A  
HETATM    6  C   UNL     1      -9.667  17.241  67.729  1.00  0.00    -0.270 A  
HETATM    7  C   UNL     1      -8.809  15.630  69.500  1.00  0.00    -0.213 C  
HETATM    8  H   UNL     1      -9.362  13.453  68.754  1.00  0.00     0.000 HD 
HETATM    9  C   UNL     1      -9.505  15.907  68.185  1.00  0.00    -0.203 A  
HETATM   10  O   UNL     1      -9.816  13.578  67.928  1.00  0.00    -0.221 OA 
ENDROOT
BRANCH   4  11
HETATM   11  C   UNL     1     -11.304  13.902  65.302  1.00  0.00    -0.316 C  
HETATM   12  C   UNL     1     -12.153  12.846  66.049  1.00  0.00    -0.484 C  
HETATM   13  C   UNL     1     -12.260  14.468  64.212  1.00  0.00    -0.441 C  
HETATM   14  C   UNL     1     -10.141  13.189  64.584  1.00  0.00    -0.248 C  
ENDBRANCH   4  11
BRANCH   6  15
HETATM   15  C   UNL     1      -9.260  18.425  68.592  1.00  0.00    -0.328 C  
BRANCH  15  16
HETATM   16  C   UNL     1      -7.883  19.020  68.377  1.00  0.00    -0.337 A  
HETATM   17  N   UNL     1      -7.747  20.083  67.622  1.00  0.00    -0.286 NA 
HETATM   18  C   UNL     1      -6.296  20.400  67.652  1.00  0.00    -0.246 A  
HETATM   19  H   UNL     1      -8.481  20.585  67.122  1.00  0.00     0.000 HD 
HETATM   20  C   UNL     1      -5.641  19.421  68.633  1.00  0.00    -0.199 A  
HETATM   21  N   UNL     1      -6.753  18.578  69.005  1.00  0.00    -0.267 NA 
ENDBRANCH  15  16
ENDBRANCH   6  15
TORSDOF 3
ENDMDL
MODEL       53
REMARK 921   NORMALIZED FREE ENERGY PREDICTED BY IDOCK:   -4.72 KCAL/MOL
REMARK 922        TOTAL FREE ENERGY PREDICTED BY IDOCK:   -5.87 KCAL/MOL
REMARK 923 INTER-LIGAND FREE ENERGY PREDICTED BY IDOCK:   -6.21 KCAL/MOL
REMARK 924 INTRA-LIGAND FREE ENERGY PREDICTED BY IDOCK:    0.34 KCAL/MOL
REMARK 927      BINDING AFFINITY PREDICTED BY RF-SCORE:    0.00 PKD
ROOT
HETATM    1  C   UNL     1      -9.962  18.629  68.699  1.00  0.00    -0.431 C  
HETATM    2  C   UNL     1     -10.587  17.264  68.573  1.00  0.00    -0.350 A  
HETATM    3  C   UNL     1     -11.169  16.711  69.730  1.00  0.00    -0.039 A  
HETATM    4  C   UNL     1     -11.704  15.409  69.790  1.00  0.00    -0.352 A  
HETATM    5  C   UNL     1     -11.697  14.702  68.575  1.00  0.00    -0.316 A  
HETATM    6  C   UNL     1     -10.544  16.513  67.382  1.00  0.00    -0.300 A  
HETATM    7  C   UNL     1     -11.149  14.394  66.114  1.00  0.00    -0.330 C  
HETATM    8  H   UNL     1     -12.245  12.975  67.658  1.00  0.00     0.000 HD 
HETATM    9  C   UNL     1     -11.136  15.224  67.379  1.00  0.00    -0.326 A  
HETATM   10  O   UNL     1     -12.250  13.453  68.479  1.00  0.00    -0.295 OA 
ENDROOT
BRANCH   4  11
HETATM   11  C   UNL     1     -12.275  14.908  71.143  1.00  0.00    -0.380 C  
HETATM   12  C   UNL     1     -11.555  15.443  72.404  1.00  0.00    -0.545 C  
HETATM   13  C   UNL     1     -13.765  15.308  71.348  1.00  0.00    -0.602 C  
HETATM   14  C   UNL     1     -12.198  13.368  71.142  1.00  0.00    -0.243 C  
ENDBRANCH   4  11
BRANCH   6  15
HETATM   15  C   UNL     1      -9.806  17.046  66.164  1.00  0.00    -0.297 C  
BRANCH  15  16
HETATM   16  C   UNL     1      -8.302  17.202  66.257  1.00  0.00    -0.263 A  
HETATM   17  N   UNL     1      -7.709  18.174  65.609  1.00  0.00    -0.514 NA 
HETATM   18  C   UNL     1      -6.267  18.041  65.940  1.00  0.00    -0.248 A  
HETATM   19  H   UNL     1      -8.145  18.872  65.007  1.00  0.00     0.000 HD 
HETATM   20  C   UNL     1      -6.142  16.912  66.970  1.00  0.00    -0.190 A  
HETATM   21  N   UNL     1      -7.504  16.442  67.066  1.00  0.00    -0.191 NA 
ENDBRANCH  15  16
ENDBRANCH   6  15
TORSDOF 3
ENDMDL
MODEL       54
REMARK 921   NORMALIZED FREE ENERGY PREDICTED BY IDOCK:   -4.71 KCAL/MOL
REMARK 922        TOTAL FREE ENERGY PREDICTED BY IDOCK:   -5.86 KCAL/MOL
REMARK 923 INTER-LIGAND FREE ENERGY PREDICTED BY IDOCK:   -5.78 KCAL/MOL
REMARK 924 INTRA-LIGAND FREE ENERGY PREDICTED BY IDOCK:   -0.07 KCAL/MOL
REMARK 927      BINDING AFFINITY PREDICTED BY RF-SCORE:    0.00 PKD
ROOT
HETATM    1  C   UNL     1     -10.510  12.423  65.304  1.00  0.00    -0.316 C  
HETATM    2  C   UNL     1     -10.670  11.579  66.541  1.00  0.00    -0.318 A  
HETATM    3  C   UNL     1     -10.226  10.244  66.475  1.00  0.00    -0.289 A  
HETATM    4  C   UNL     1     -10.396   9.310  67.516  1.00  0.00    -0.323 A  
HETATM    5  C   UNL     1     -10.979   9.821  68.689  1.00  0.00    -0.147 A  
HETATM    6  C   UNL     1     -11.300  12.050  67.710  1.00  0.00    -0.370 A  
HETATM    7  C   UNL     1     -12.061  11.635  70.100  1.00  0.00    -0.414 C  
HETATM    8  H   UNL     1     -11.530   9.383  70.593  1.00  0.00     0.000 HD 
HETATM    9  C   UNL     1     -11.427  11.163  68.810  1.00  0.00    -0.366 A  
HETATM   10  O   UNL     1     -11.136   9.038  69.800  1.00  0.00    -0.206 OA 
ENDROOT
BRANCH   4  11
HETATM   11  C   UNL     1      -9.898   7.857  67.292  1.00  0.00    -0.256 C  
HETATM   12  C   UNL     1     -11.010   6.802  67.081  1.00  0.00    -0.458 C  
HETATM   13  C   UNL     1      -8.992   7.724  66.034  1.00  0.00    -0.185 C  
HETATM   14  C   UNL     1      -9.059   7.457  68.521  1.00  0.00    -0.136 C  
ENDBRANCH   4  11
BRANCH   6  15
HETATM   15  C   UNL     1     -11.898  13.448  67.749  1.00  0.00    -0.395 C  
BRANCH  15  16
HETATM   16  C   UNL     1     -11.117  14.535  68.460  1.00  0.00    -0.256 A  
HETATM   17  N   UNL     1      -9.906  14.285  68.893  1.00  0.00    -0.364 NA 
HETATM   18  C   UNL     1      -9.441  15.557  69.505  1.00  0.00    -0.269 A  
HETATM   19  H   UNL     1      -9.393  13.406  68.824  1.00  0.00     0.000 HD 
HETATM   20  C   UNL     1     -10.531  16.604  69.252  1.00  0.00    -0.333 A  
HETATM   21  N   UNL     1     -11.556  15.822  68.602  1.00  0.00    -0.385 NA 
ENDBRANCH  15  16
ENDBRANCH   6  15
TORSDOF 3
ENDMDL
MODEL       55
REMARK 921   NORMALIZED FREE ENERGY PREDICTED BY IDOCK:   -4.70 KCAL/MOL
REMARK 922        TOTAL FREE ENERGY PREDICTED BY IDOCK:   -5.85 KCAL/MOL
REMARK 923 INTER-LIGAND FREE ENERGY PREDICTED BY IDOCK:   -5.49 KCAL/MOL
REMARK 924 INTRA-LIGAND FREE ENERGY PREDICTED BY IDOCK:   -0.36 KCAL/MOL
REMARK 927      BINDING AFFINITY PREDICTED BY RF-SCORE:    0.00 PKD
ROOT
HETATM    1  C   UNL     1     -11.363  15.991  64.669  1.00  0.00    -0.312 C  
HETATM    2  C   UNL     1     -10.670  15.108  65.674  1.00  0.00    -0.374 A  
HETATM    3  C   UNL     1     -10.487  13.755  65.327  1.00  0.00    -0.376 A  
HETATM    4  C   UNL     1      -9.943  12.791  66.199  1.00  0.00    -0.272 A  
HETATM    5  C   UNL     1      -9.506  13.285  67.441  1.00  0.00    -0.218 A  
HETATM    6  C   UNL     1     -10.272  15.566  66.945  1.00  0.00    -0.279 A  
HETATM    7  C   UNL     1      -9.175  15.097  69.190  1.00  0.00    -0.215 C  
HETATM    8  H   UNL     1      -8.600  12.802  69.192  1.00  0.00     0.000 HD 
HETATM    9  C   UNL     1      -9.654  14.644  67.829  1.00  0.00    -0.213 A  
HETATM   10  O   UNL     1      -8.895  12.468  68.353  1.00  0.00    -0.181 OA 
ENDROOT
BRANCH   4  11
HETATM   11  C   UNL     1      -9.839  11.324  65.704  1.00  0.00    -0.277 C  
HETATM   12  C   UNL     1      -8.400  10.781  65.538  1.00  0.00    -0.129 C  
HETATM   13  C   UNL     1     -10.525  10.317  66.673  1.00  0.00    -0.260 C  
HETATM   14  C   UNL     1     -10.564  11.237  64.346  1.00  0.00    -0.410 C  
ENDBRANCH   4  11
BRANCH   6  15
HETATM   15  C   UNL     1     -10.580  16.991  67.379  1.00  0.00    -0.289 C  
BRANCH  15  16
HETATM   16  C   UNL     1      -9.481  18.026  67.248  1.00  0.00    -0.260 A  
HETATM   17  N   UNL     1      -9.059  18.376  66.058  1.00  0.00    -0.498 NA 
HETATM   18  C   UNL     1      -8.017  19.406  66.301  1.00  0.00    -0.319 A  
HETATM   19  H   UNL     1      -9.379  18.018  65.157  1.00  0.00     0.000 HD 
HETATM   20  C   UNL     1      -7.990  19.673  67.810  1.00  0.00    -0.302 A  
HETATM   21  N   UNL     1      -8.948  18.712  68.303  1.00  0.00    -0.310 NA 
ENDBRANCH  15  16
ENDBRANCH   6  15
TORSDOF 3
ENDMDL
MODEL       56
REMARK 921   NORMALIZED FREE ENERGY PREDICTED BY IDOCK:   -4.69 KCAL/MOL
REMARK 922        TOTAL FREE ENERGY PREDICTED BY IDOCK:   -5.84 KCAL/MOL
REMARK 923 INTER-LIGAND FREE ENERGY PREDICTED BY IDOCK:   -5.62 KCAL/MOL
REMARK 924 INTRA-LIGAND FREE ENERGY PREDICTED BY IDOCK:   -0.21 KCAL/MOL
REMARK 927      BINDING AFFINITY PREDICTED BY RF-SCORE:    0.00 PKD
ROOT
HETATM    1  C   UNL     1      -9.706   8.544  66.425  1.00  0.00    -0.328 C  
HETATM    2  C   UNL     1     -10.395   9.785  66.930  1.00  0.00    -0.301 A  
HETATM    3  C   UNL     1     -10.565  10.845  66.018  1.00  0.00    -0.254 A  
HETATM    4  C   UNL     1     -11.103  12.099  66.370  1.00  0.00    -0.358 A  
HETATM    5  C   UNL     1     -11.547  12.209  67.699  1.00  0.00    -0.343 A  
HETATM    6  C   UNL     1     -10.800   9.940  68.270  1.00  0.00    -0.275 A  
HETATM    7  C   UNL     1     -11.899  11.363  70.068  1.00  0.00    -0.440 C  
HETATM    8  H   UNL     1     -12.455  13.424  69.049  1.00  0.00     0.000 HD 
HETATM    9  C   UNL     1     -11.413  11.162  68.649  1.00  0.00    -0.363 A  
HETATM   10  O   UNL     1     -12.155  13.350  68.150  1.00  0.00    -0.335 OA 
ENDROOT
BRANCH   4  11
HETATM   11  C   UNL     1     -11.193  13.196  65.275  1.00  0.00    -0.315 C  
HETATM   12  C   UNL     1     -10.933  12.710  63.829  1.00  0.00    -0.481 C  
HETATM   13  C   UNL     1     -12.596  13.866  65.214  1.00  0.00    -0.508 C  
HETATM   14  C   UNL     1     -10.164  14.289  65.625  1.00  0.00    -0.366 C  
ENDBRANCH   4  11
BRANCH   6  15
HETATM   15  C   UNL     1     -10.505   8.853  69.292  1.00  0.00    -0.234 C  
BRANCH  15  16
HETATM   16  C   UNL     1      -9.134   8.836  69.935  1.00  0.00    -0.157 A  
HETATM   17  N   UNL     1      -8.450   9.949  70.035  1.00  0.00    -0.279 NA 
HETATM   18  C   UNL     1      -7.189   9.572  70.724  1.00  0.00    -0.091 A  
HETATM   19  H   UNL     1      -8.726  10.876  69.710  1.00  0.00     0.000 HD 
HETATM   20  C   UNL     1      -7.308   8.092  71.104  1.00  0.00    -0.065 A  
HETATM   21  N   UNL     1      -8.579   7.733  70.522  1.00  0.00    -0.131 NA 
ENDBRANCH  15  16
ENDBRANCH   6  15
TORSDOF 3
ENDMDL
MODEL       57
REMARK 921   NORMALIZED FREE ENERGY PREDICTED BY IDOCK:   -4.66 KCAL/MOL
REMARK 922        TOTAL FREE ENERGY PREDICTED BY IDOCK:   -5.80 KCAL/MOL
REMARK 923 INTER-LIGAND FREE ENERGY PREDICTED BY IDOCK:   -5.41 KCAL/MOL
REMARK 924 INTRA-LIGAND FREE ENERGY PREDICTED BY IDOCK:   -0.39 KCAL/MOL
REMARK 927      BINDING AFFINITY PREDICTED BY RF-SCORE:    0.00 PKD
ROOT
HETATM    1  C   UNL     1     -10.685   5.970  69.414  1.00  0.00    -0.403 C  
HETATM    2  C   UNL     1     -10.992   7.433  69.598  1.00  0.00    -0.186 A  
HETATM    3  C   UNL     1     -10.395   8.337  68.697  1.00  0.00    -0.225 A  
HETATM    4  C   UNL     1     -10.512   9.737  68.803  1.00  0.00    -0.240 A  
HETATM    5  C   UNL     1     -11.346  10.193  69.838  1.00  0.00    -0.275 A  
HETATM    6  C   UNL     1     -11.780   7.919  70.659  1.00  0.00    -0.169 A  
HETATM    7  C   UNL     1     -12.853   9.887  71.860  1.00  0.00    -0.524 C  
HETATM    8  H   UNL     1     -12.166  11.835  70.707  1.00  0.00     0.000 HD 
HETATM    9  C   UNL     1     -11.983   9.319  70.760  1.00  0.00    -0.269 A  
HETATM   10  O   UNL     1     -11.602  11.527  70.007  1.00  0.00    -0.301 OA 
ENDROOT
BRANCH   4  11
HETATM   11  C   UNL     1      -9.764  10.619  67.768  1.00  0.00    -0.179 C  
HETATM   12  C   UNL     1     -10.645  11.634  67.002  1.00  0.00    -0.272 C  
HETATM   13  C   UNL     1      -8.648  11.487  68.419  1.00  0.00    -0.159 C  
HETATM   14  C   UNL     1      -9.092   9.676  66.750  1.00  0.00    -0.171 C  
ENDBRANCH   4  11
BRANCH   6  15
HETATM   15  C   UNL     1     -12.324   6.964  71.711  1.00  0.00    -0.401 C  
BRANCH  15  16
HETATM   16  C   UNL     1     -11.390   6.522  72.819  1.00  0.00    -0.185 A  
HETATM   17  N   UNL     1     -11.421   5.281  73.236  1.00  0.00    -0.508 NA 
HETATM   18  C   UNL     1     -10.378   5.197  74.290  1.00  0.00    -0.280 A  
HETATM   19  H   UNL     1     -12.031   4.532  72.907  1.00  0.00     0.000 HD 
HETATM   20  C   UNL     1      -9.667   6.554  74.330  1.00  0.00    -0.306 A  
HETATM   21  N   UNL     1     -10.423   7.318  73.366  1.00  0.00    -0.355 NA 
ENDBRANCH  15  16
ENDBRANCH   6  15
TORSDOF 3
ENDMDL
MODEL       58
REMARK 921   NORMALIZED FREE ENERGY PREDICTED BY IDOCK:   -4.65 KCAL/MOL
REMARK 922        TOTAL FREE ENERGY PREDICTED BY IDOCK:   -5.79 KCAL/MOL
REMARK 923 INTER-LIGAND FREE ENERGY PREDICTED BY IDOCK:   -5.49 KCAL/MOL
REMARK 924 INTRA-LIGAND FREE ENERGY PREDICTED BY IDOCK:   -0.30 KCAL/MOL
REMARK 927      BINDING AFFINITY PREDICTED BY RF-SCORE:    0.00 PKD
ROOT
HETATM    1  C   UNL     1      -9.833   9.988  65.264  1.00  0.00    -0.388 C  
HETATM    2  C   UNL     1     -10.235   9.929  66.714  1.00  0.00    -0.301 A  
HETATM    3  C   UNL     1      -9.867   8.780  67.441  1.00  0.00    -0.250 A  
HETATM    4  C   UNL     1     -10.253   8.541  68.775  1.00  0.00    -0.217 A  
HETATM    5  C   UNL     1     -10.980   9.579  69.383  1.00  0.00    -0.170 A  
HETATM    6  C   UNL     1     -11.010  10.930  67.332  1.00  0.00    -0.353 A  
HETATM    7  C   UNL     1     -12.159  11.828  69.414  1.00  0.00    -0.301 C  
HETATM    8  H   UNL     1     -11.848  10.206  71.108  1.00  0.00     0.000 HD 
HETATM    9  C   UNL     1     -11.360  10.763  68.696  1.00  0.00    -0.356 A  
HETATM   10  O   UNL     1     -11.356   9.504  70.697  1.00  0.00    -0.263 OA 
ENDROOT
BRANCH   4  11
HETATM   11  C   UNL     1      -9.815   7.210  69.442  1.00  0.00    -0.161 C  
HETATM   12  C   UNL     1     -10.969   6.313  69.950  1.00  0.00    -0.435 C  
HETATM   13  C   UNL     1      -9.009   6.294  68.474  1.00  0.00    -0.123 C  
HETATM   14  C   UNL     1      -8.898   7.562  70.629  1.00  0.00    -0.146 C  
ENDBRANCH   4  11
BRANCH   6  15
HETATM   15  C   UNL     1     -11.522  12.113  66.524  1.00  0.00    -0.430 C  
BRANCH  15  16
HETATM   16  C   UNL     1     -10.764  13.421  66.623  1.00  0.00    -0.282 A  
HETATM   17  N   UNL     1      -9.565  13.516  66.104  1.00  0.00    -0.429 NA 
HETATM   18  C   UNL     1      -9.139  14.916  66.359  1.00  0.00    -0.258 A  
HETATM   19  H   UNL     1      -9.037  12.785  65.626  1.00  0.00     0.000 HD 
HETATM   20  C   UNL     1     -10.327  15.639  67.003  1.00  0.00    -0.289 A  
HETATM   21  N   UNL     1     -11.289  14.571  67.142  1.00  0.00    -0.337 NA 
ENDBRANCH  15  16
ENDBRANCH   6  15
TORSDOF 3
ENDMDL
MODEL       59
REMARK 921   NORMALIZED FREE ENERGY PREDICTED BY IDOCK:   -4.62 KCAL/MOL
REMARK 922        TOTAL FREE ENERGY PREDICTED BY IDOCK:   -5.76 KCAL/MOL
REMARK 923 INTER-LIGAND FREE ENERGY PREDICTED BY IDOCK:   -5.44 KCAL/MOL
REMARK 924 INTRA-LIGAND FREE ENERGY PREDICTED BY IDOCK:   -0.32 KCAL/MOL
REMARK 927      BINDING AFFINITY PREDICTED BY RF-SCORE:    0.00 PKD
ROOT
HETATM    1  C   UNL     1     -11.829  13.901  70.509  1.00  0.00    -0.317 C  
HETATM    2  C   UNL     1     -11.342  14.011  69.088  1.00  0.00    -0.323 A  
HETATM    3  C   UNL     1     -10.807  15.249  68.682  1.00  0.00    -0.253 A  
HETATM    4  C   UNL     1     -10.401  15.531  67.362  1.00  0.00    -0.266 A  
HETATM    5  C   UNL     1     -10.488  14.452  66.466  1.00  0.00    -0.289 A  
HETATM    6  C   UNL     1     -11.468  12.963  68.155  1.00  0.00    -0.354 A  
HETATM    7  C   UNL     1     -11.083  12.073  65.805  1.00  0.00    -0.371 C  
HETATM    8  H   UNL     1     -10.118  13.842  64.565  1.00  0.00     0.000 HD 
HETATM    9  C   UNL     1     -11.005  13.181  66.832  1.00  0.00    -0.295 A  
HETATM   10  O   UNL     1     -10.060  14.571  65.171  1.00  0.00    -0.383 OA 
ENDROOT
BRANCH   4  11
HETATM   11  C   UNL     1      -9.871  16.954  67.042  1.00  0.00    -0.270 C  
HETATM   12  C   UNL     1     -10.394  17.575  65.725  1.00  0.00    -0.217 C  
HETATM   13  C   UNL     1     -10.249  17.993  68.138  1.00  0.00    -0.392 C  
HETATM   14  C   UNL     1      -8.333  16.876  66.980  1.00  0.00    -0.227 C  
ENDBRANCH   4  11
BRANCH   6  15
HETATM   15  C   UNL     1     -12.160  11.666  68.546  1.00  0.00    -0.148 C  
BRANCH  15  16
HETATM   16  C   UNL     1     -11.330  10.594  69.222  1.00  0.00    -0.282 A  
HETATM   17  N   UNL     1     -11.889   9.799  70.100  1.00  0.00    -0.446 NA 
HETATM   18  C   UNL     1     -10.809   8.874  70.533  1.00  0.00    -0.236 A  
HETATM   19  H   UNL     1     -12.858   9.812  70.419  1.00  0.00     0.000 HD 
HETATM   20  C   UNL     1      -9.576   9.192  69.680  1.00  0.00    -0.176 A  
HETATM   21  N   UNL     1     -10.029  10.323  68.904  1.00  0.00    -0.190 NA 
ENDBRANCH  15  16
ENDBRANCH   6  15
TORSDOF 3
ENDMDL
MODEL       60
REMARK 921   NORMALIZED FREE ENERGY PREDICTED BY IDOCK:   -4.60 KCAL/MOL
REMARK 922        TOTAL FREE ENERGY PREDICTED BY IDOCK:   -5.73 KCAL/MOL
REMARK 923 INTER-LIGAND FREE ENERGY PREDICTED BY IDOCK:   -5.39 KCAL/MOL
REMARK 924 INTRA-LIGAND FREE ENERGY PREDICTED BY IDOCK:   -0.34 KCAL/MOL
REMARK 927      BINDING AFFINITY PREDICTED BY RF-SCORE:    0.00 PKD
ROOT
HETATM    1  C   UNL     1      -9.766  15.625  69.680  1.00  0.00    -0.276 C  
HETATM    2  C   UNL     1     -10.044  15.020  68.329  1.00  0.00    -0.222 A  
HETATM    3  C   UNL     1      -9.839  13.633  68.187  1.00  0.00    -0.236 A  
HETATM    4  C   UNL     1      -9.966  12.946  66.963  1.00  0.00    -0.244 A  
HETATM    5  C   UNL     1     -10.398  13.728  65.879  1.00  0.00    -0.309 A  
HETATM    6  C   UNL     1     -10.425  15.790  67.213  1.00  0.00    -0.308 A  
HETATM    7  C   UNL     1     -11.081  15.904  64.759  1.00  0.00    -0.397 C  
HETATM    8  H   UNL     1     -10.921  13.698  63.917  1.00  0.00     0.000 HD 
HETATM    9  C   UNL     1     -10.634  15.126  65.977  1.00  0.00    -0.329 A  
HETATM   10  O   UNL     1     -10.629  13.170  64.650  1.00  0.00    -0.347 OA 
ENDROOT
BRANCH   4  11
HETATM   11  C   UNL     1      -9.666  11.423  66.939  1.00  0.00    -0.213 C  
HETATM   12  C   UNL     1      -8.853  10.928  65.720  1.00  0.00    -0.202 C  
HETATM   13  C   UNL     1      -8.839  10.958  68.173  1.00  0.00    -0.137 C  
HETATM   14  C   UNL     1     -11.017  10.681  66.972  1.00  0.00    -0.274 C  
ENDBRANCH   4  11
BRANCH   6  15
HETATM   15  C   UNL     1     -10.525  17.304  67.323  1.00  0.00    -0.319 C  
BRANCH  15  16
HETATM   16  C   UNL     1      -9.257  18.113  67.148  1.00  0.00    -0.256 A  
HETATM   17  N   UNL     1      -8.782  18.802  68.156  1.00  0.00    -0.297 NA 
HETATM   18  C   UNL     1      -7.542  19.440  67.645  1.00  0.00    -0.258 A  
HETATM   19  H   UNL     1      -9.180  18.882  69.093  1.00  0.00     0.000 HD 
HETATM   20  C   UNL     1      -7.321  18.917  66.221  1.00  0.00    -0.254 A  
HETATM   21  N   UNL     1      -8.495  18.103  66.013  1.00  0.00    -0.515 NA 
ENDBRANCH  15  16
ENDBRANCH   6  15
TORSDOF 3
ENDMDL
MODEL       61
REMARK 921   NORMALIZED FREE ENERGY PREDICTED BY IDOCK:   -4.58 KCAL/MOL
REMARK 922        TOTAL FREE ENERGY PREDICTED BY IDOCK:   -5.71 KCAL/MOL
REMARK 923 INTER-LIGAND FREE ENERGY PREDICTED BY IDOCK:   -5.67 KCAL/MOL
REMARK 924 INTRA-LIGAND FREE ENERGY PREDICTED BY IDOCK:   -0.04 KCAL/MOL
REMARK 927      BINDING AFFINITY PREDICTED BY RF-SCORE:    0.00 PKD
ROOT
HETATM    1  C   UNL     1     -10.535  14.619  67.311  1.00  0.00    -0.266 C  
HETATM    2  C   UNL     1     -11.166  13.835  68.431  1.00  0.00    -0.300 A  
HETATM    3  C   UNL     1     -11.710  14.566  69.506  1.00  0.00    -0.361 A  
HETATM    4  C   UNL     1     -12.245  13.971  70.665  1.00  0.00    -0.442 A  
HETATM    5  C   UNL     1     -12.281  12.566  70.655  1.00  0.00    -0.276 A  
HETATM    6  C   UNL     1     -11.166  12.427  68.471  1.00  0.00    -0.321 A  
HETATM    7  C   UNL     1     -11.819  10.276  69.657  1.00  0.00    -0.181 C  
HETATM    8  H   UNL     1     -12.864  10.914  71.682  1.00  0.00     0.000 HD 
HETATM    9  C   UNL     1     -11.760  11.786  69.588  1.00  0.00    -0.413 A  
HETATM   10  O   UNL     1     -12.840  11.864  71.688  1.00  0.00    -0.374 OA 
ENDROOT
BRANCH   4  11
HETATM   11  C   UNL     1     -12.770  14.897  71.794  1.00  0.00    -0.401 C  
HETATM   12  C   UNL     1     -12.553  14.375  73.234  1.00  0.00    -0.337 C  
HETATM   13  C   UNL     1     -12.091  16.298  71.781  1.00  0.00    -0.408 C  
HETATM   14  C   UNL     1     -14.280  15.105  71.563  1.00  0.00    -0.647 C  
ENDBRANCH   4  11
BRANCH   6  15
HETATM   15  C   UNL     1     -10.469  11.629  67.380  1.00  0.00    -0.239 C  
BRANCH  15  16
HETATM   16  C   UNL     1      -8.954  11.647  67.345  1.00  0.00    -0.166 A  
HETATM   17  N   UNL     1      -8.286  12.042  68.400  1.00  0.00    -0.166 NA 
HETATM   18  C   UNL     1      -6.854  11.911  68.027  1.00  0.00    -0.072 A  
HETATM   19  H   UNL     1      -8.668  12.370  69.287  1.00  0.00     0.000 HD 
HETATM   20  C   UNL     1      -6.807  11.270  66.635  1.00  0.00    -0.130 A  
HETATM   21  N   UNL     1      -8.209  11.177  66.299  1.00  0.00    -0.169 NA 
ENDBRANCH  15  16
ENDBRANCH   6  15
TORSDOF 3
ENDMDL
MODEL       62
REMARK 921   NORMALIZED FREE ENERGY PREDICTED BY IDOCK:   -4.58 KCAL/MOL
REMARK 922        TOTAL FREE ENERGY PREDICTED BY IDOCK:   -5.71 KCAL/MOL
REMARK 923 INTER-LIGAND FREE ENERGY PREDICTED BY IDOCK:   -5.39 KCAL/MOL
REMARK 924 INTRA-LIGAND FREE ENERGY PREDICTED BY IDOCK:   -0.32 KCAL/MOL
REMARK 927      BINDING AFFINITY PREDICTED BY RF-SCORE:    0.00 PKD
ROOT
HETATM    1  C   UNL     1      -8.824  10.782  68.393  1.00  0.00    -0.146 C  
HETATM    2  C   UNL     1      -9.287  11.189  67.018  1.00  0.00    -0.182 A  
HETATM    3  C   UNL     1     -10.020  12.387  66.911  1.00  0.00    -0.223 A  
HETATM    4  C   UNL     1     -10.598  12.845  65.710  1.00  0.00    -0.293 A  
HETATM    5  C   UNL     1     -10.328  12.058  64.577  1.00  0.00    -0.296 A  
HETATM    6  C   UNL     1      -9.076  10.392  65.876  1.00  0.00    -0.192 A  
HETATM    7  C   UNL     1      -9.346  10.050  63.372  1.00  0.00    -0.300 C  
HETATM    8  H   UNL     1     -10.588  11.897  62.570  1.00  0.00     0.000 HD 
HETATM    9  C   UNL     1      -9.580  10.852  64.633  1.00  0.00    -0.305 A  
HETATM   10  O   UNL     1     -10.771  12.429  63.336  1.00  0.00    -0.446 OA 
ENDROOT
BRANCH   4  11
HETATM   11  C   UNL     1     -11.420  14.161  65.743  1.00  0.00    -0.327 C  
HETATM   12  C   UNL     1     -10.844  15.323  64.898  1.00  0.00    -0.444 C  
HETATM   13  C   UNL     1     -12.869  13.973  65.209  1.00  0.00    -0.418 C  
HETATM   14  C   UNL     1     -11.515  14.615  67.213  1.00  0.00    -0.386 C  
ENDBRANCH   4  11
BRANCH   6  15
HETATM   15  C   UNL     1      -8.399   9.035  66.001  1.00  0.00    -0.126 C  
BRANCH  15  16
HETATM   16  C   UNL     1      -9.238   7.863  66.467  1.00  0.00    -0.191 A  
HETATM   17  N   UNL     1     -10.531   8.010  66.616  1.00  0.00    -0.448 NA 
HETATM   18  C   UNL     1     -11.028   6.680  67.052  1.00  0.00    -0.393 A  
HETATM   19  H   UNL     1     -11.079   8.857  66.465  1.00  0.00     0.000 HD 
HETATM   20  C   UNL     1      -9.834   5.719  67.017  1.00  0.00    -0.151 A  
HETATM   21  N   UNL     1      -8.749   6.601  66.656  1.00  0.00    -0.121 NA 
ENDBRANCH  15  16
ENDBRANCH   6  15
TORSDOF 3
ENDMDL
MODEL       63
REMARK 921   NORMALIZED FREE ENERGY PREDICTED BY IDOCK:   -4.55 KCAL/MOL
REMARK 922        TOTAL FREE ENERGY PREDICTED BY IDOCK:   -5.68 KCAL/MOL
REMARK 923 INTER-LIGAND FREE ENERGY PREDICTED BY IDOCK:   -5.41 KCAL/MOL
REMARK 924 INTRA-LIGAND FREE ENERGY PREDICTED BY IDOCK:   -0.27 KCAL/MOL
REMARK 927      BINDING AFFINITY PREDICTED BY RF-SCORE:    0.00 PKD
ROOT
HETATM    1  C   UNL     1     -11.629  16.130  69.070  1.00  0.00    -0.298 C  
HETATM    2  C   UNL     1     -10.235  15.779  68.622  1.00  0.00    -0.221 A  
HETATM    3  C   UNL     1      -9.243  16.769  68.761  1.00  0.00    -0.260 A  
HETATM    4  C   UNL     1      -7.920  16.620  68.299  1.00  0.00    -0.192 A  
HETATM    5  C   UNL     1      -7.615  15.364  67.748  1.00  0.00    -0.150 A  
HETATM    6  C   UNL     1      -9.916  14.547  68.017  1.00  0.00    -0.222 A  
HETATM    7  C   UNL     1      -8.177  13.008  66.983  1.00  0.00    -0.071 C  
HETATM    8  H   UNL     1      -6.142  14.214  66.954  1.00  0.00     0.000 HD 
HETATM    9  C   UNL     1      -8.577  14.328  67.603  1.00  0.00    -0.186 A  
HETATM   10  O   UNL     1      -6.348  15.064  67.326  1.00  0.00    -0.312 OA 
ENDROOT
BRANCH   4  11
HETATM   11  C   UNL     1      -6.939  17.810  68.477  1.00  0.00    -0.238 C  
HETATM   12  C   UNL     1      -5.903  17.650  69.614  1.00  0.00    -0.242 C  
HETATM   13  C   UNL     1      -6.083  18.073  67.204  1.00  0.00    -0.168 C  
HETATM   14  C   UNL     1      -7.781  19.073  68.745  1.00  0.00    -0.382 C  
ENDBRANCH   4  11
BRANCH   6  15
HETATM   15  C   UNL     1     -11.005  13.520  67.745  1.00  0.00    -0.284 C  
BRANCH  15  16
HETATM   16  C   UNL     1     -11.601  13.470  66.354  1.00  0.00    -0.350 A  
HETATM   17  N   UNL     1     -11.461  14.496  65.551  1.00  0.00    -0.338 NA 
HETATM   18  C   UNL     1     -12.136  14.099  64.288  1.00  0.00    -0.444 A  
HETATM   19  H   UNL     1     -10.990  15.379  65.751  1.00  0.00     0.000 HD 
HETATM   20  C   UNL     1     -12.583  12.642  64.455  1.00  0.00    -0.412 A  
HETATM   21  N   UNL     1     -12.208  12.367  65.822  1.00  0.00    -0.638 NA 
ENDBRANCH  15  16
ENDBRANCH   6  15
TORSDOF 3
ENDMDL
MODEL       64
REMARK 921   NORMALIZED FREE ENERGY PREDICTED BY IDOCK:   -4.51 KCAL/MOL
REMARK 922        TOTAL FREE ENERGY PREDICTED BY IDOCK:   -5.63 KCAL/MOL
REMARK 923 INTER-LIGAND FREE ENERGY PREDICTED BY IDOCK:   -5.28 KCAL/MOL
REMARK 924 INTRA-LIGAND FREE ENERGY PREDICTED BY IDOCK:   -0.35 KCAL/MOL
REMARK 927      BINDING AFFINITY PREDICTED BY RF-SCORE:    0.00 PKD
ROOT
HETATM    1  C   UNL     1     -11.445  16.182  70.246  1.00  0.00    -0.319 C  
HETATM    2  C   UNL     1     -10.638  15.280  69.351  1.00  0.00    -0.257 A  
HETATM    3  C   UNL     1     -11.043  13.934  69.256  1.00  0.00    -0.261 A  
HETATM    4  C   UNL     1     -10.332  12.953  68.536  1.00  0.00    -0.239 A  
HETATM    5  C   UNL     1      -9.209  13.422  67.833  1.00  0.00    -0.216 A  
HETATM    6  C   UNL     1      -9.478  15.711  68.680  1.00  0.00    -0.204 A  
HETATM    7  C   UNL     1      -7.541  15.198  67.114  1.00  0.00    -0.204 C  
HETATM    8  H   UNL     1      -7.712  12.903  66.563  1.00  0.00     0.000 HD 
HETATM    9  C   UNL     1      -8.771  14.772  67.885  1.00  0.00    -0.167 A  
HETATM   10  O   UNL     1      -8.471  12.586  67.038  1.00  0.00    -0.181 OA 
ENDROOT
BRANCH   4  11
HETATM   11  C   UNL     1     -10.866  11.496  68.552  1.00  0.00    -0.254 C  
HETATM   12  C   UNL     1      -9.869  10.430  69.066  1.00  0.00    -0.222 C  
HETATM   13  C   UNL     1     -12.117  11.328  69.463  1.00  0.00    -0.386 C  
HETATM   14  C   UNL     1     -11.282  11.135  67.112  1.00  0.00    -0.320 C  
ENDBRANCH   4  11
BRANCH   6  15
HETATM   15  C   UNL     1      -8.958  17.128  68.877  1.00  0.00    -0.189 C  
BRANCH  15  16
HETATM   16  C   UNL     1      -9.437  18.199  67.919  1.00  0.00    -0.281 A  
HETATM   17  N   UNL     1      -8.874  19.382  67.934  1.00  0.00    -0.308 NA 
HETATM   18  C   UNL     1      -9.562  20.156  66.869  1.00  0.00    -0.430 A  
HETATM   19  H   UNL     1      -8.123  19.702  68.546  1.00  0.00     0.000 HD 
HETATM   20  C   UNL     1     -10.527  19.195  66.166  1.00  0.00    -0.477 A  
HETATM   21  N   UNL     1     -10.373  17.989  66.945  1.00  0.00    -0.365 NA 
ENDBRANCH  15  16
ENDBRANCH   6  15
TORSDOF 3
ENDMDL
MODEL       65
REMARK 921   NORMALIZED FREE ENERGY PREDICTED BY IDOCK:   -4.51 KCAL/MOL
REMARK 922        TOTAL FREE ENERGY PREDICTED BY IDOCK:   -5.62 KCAL/MOL
REMARK 923 INTER-LIGAND FREE ENERGY PREDICTED BY IDOCK:   -5.52 KCAL/MOL
REMARK 924 INTRA-LIGAND FREE ENERGY PREDICTED BY IDOCK:   -0.10 KCAL/MOL
REMARK 927      BINDING AFFINITY PREDICTED BY RF-SCORE:    0.00 PKD
ROOT
HETATM    1  C   UNL     1      -8.826   9.363  64.900  1.00  0.00    -0.240 C  
HETATM    2  C   UNL     1      -9.679  10.286  65.731  1.00  0.00    -0.297 A  
HETATM    3  C   UNL     1     -10.349  11.327  65.058  1.00  0.00    -0.359 A  
HETATM    4  C   UNL     1     -11.103  12.321  65.712  1.00  0.00    -0.362 A  
HETATM    5  C   UNL     1     -11.219  12.167  67.104  1.00  0.00    -0.314 A  
HETATM    6  C   UNL     1      -9.768  10.186  67.133  1.00  0.00    -0.214 A  
HETATM    7  C   UNL     1     -10.733  11.036  69.326  1.00  0.00    -0.263 C  
HETATM    8  H   UNL     1     -12.060  12.921  68.792  1.00  0.00     0.000 HD 
HETATM    9  C   UNL     1     -10.576  11.125  67.824  1.00  0.00    -0.248 A  
HETATM   10  O   UNL     1     -11.982  13.025  67.850  1.00  0.00    -0.347 OA 
ENDROOT
BRANCH   4  11
HETATM   11  C   UNL     1     -11.753  13.438  64.851  1.00  0.00    -0.379 C  
HETATM   12  C   UNL     1     -12.011  13.067  63.371  1.00  0.00    -0.592 C  
HETATM   13  C   UNL     1     -13.147  13.873  65.391  1.00  0.00    -0.236 C  
HETATM   14  C   UNL     1     -10.824  14.667  64.903  1.00  0.00    -0.436 C  
ENDBRANCH   4  11
BRANCH   6  15
HETATM   15  C   UNL     1      -8.947   9.147  67.882  1.00  0.00    -0.131 C  
BRANCH  15  16
HETATM   16  C   UNL     1      -9.495   7.737  67.968  1.00  0.00    -0.144 A  
HETATM   17  N   UNL     1     -10.791   7.543  67.951  1.00  0.00    -0.469 NA 
HETATM   18  C   UNL     1     -10.966   6.070  68.026  1.00  0.00    -0.245 A  
HETATM   19  H   UNL     1     -11.522   8.252  67.899  1.00  0.00     0.000 HD 
HETATM   20  C   UNL     1      -9.566   5.446  67.971  1.00  0.00    -0.127 A  
HETATM   21  N   UNL     1      -8.717   6.614  67.963  1.00  0.00    -0.118 NA 
ENDBRANCH  15  16
ENDBRANCH   6  15
TORSDOF 3
ENDMDL
MODEL       66
REMARK 921   NORMALIZED FREE ENERGY PREDICTED BY IDOCK:   -4.50 KCAL/MOL
REMARK 922        TOTAL FREE ENERGY PREDICTED BY IDOCK:   -5.62 KCAL/MOL
REMARK 923 INTER-LIGAND FREE ENERGY PREDICTED BY IDOCK:   -5.62 KCAL/MOL
REMARK 924 INTRA-LIGAND FREE ENERGY PREDICTED BY IDOCK:    0.01 KCAL/MOL
REMARK 927      BINDING AFFINITY PREDICTED BY RF-SCORE:    0.00 PKD
ROOT
HETATM    1  C   UNL     1     -12.775  13.912  65.809  1.00  0.00    -0.503 C  
HETATM    2  C   UNL     1     -11.384  13.537  66.248  1.00  0.00    -0.327 A  
HETATM    3  C   UNL     1     -10.827  12.366  65.698  1.00  0.00    -0.312 A  
HETATM    4  C   UNL     1      -9.578  11.838  66.084  1.00  0.00    -0.250 A  
HETATM    5  C   UNL     1      -8.864  12.611  67.016  1.00  0.00    -0.212 A  
HETATM    6  C   UNL     1     -10.669  14.263  67.221  1.00  0.00    -0.277 A  
HETATM    7  C   UNL     1      -8.555  14.574  68.598  1.00  0.00    -0.168 C  
HETATM    8  H   UNL     1      -7.125  12.770  68.052  1.00  0.00     0.000 HD 
HETATM    9  C   UNL     1      -9.377  13.807  67.586  1.00  0.00    -0.213 A  
HETATM   10  O   UNL     1      -7.608  12.248  67.422  1.00  0.00    -0.140 OA 
ENDROOT
BRANCH   4  11
HETATM   11  C   UNL     1      -9.104  10.514  65.429  1.00  0.00    -0.215 C  
HETATM   12  C   UNL     1      -7.571  10.303  65.396  1.00  0.00    -0.146 C  
HETATM   13  C   UNL     1      -9.653   9.255  66.162  1.00  0.00    -0.327 C  
HETATM   14  C   UNL     1      -9.641  10.488  63.985  1.00  0.00    -0.367 C  
ENDBRANCH   4  11
BRANCH   6  15
HETATM   15  C   UNL     1     -11.312  15.455  67.915  1.00  0.00    -0.328 C  
BRANCH  15  16
HETATM   16  C   UNL     1     -11.805  15.268  69.335  1.00  0.00    -0.343 A  
HETATM   17  N   UNL     1     -11.861  16.297  70.142  1.00  0.00    -0.356 NA 
HETATM   18  C   UNL     1     -12.403  15.764  71.419  1.00  0.00    -0.448 A  
HETATM   19  H   UNL     1     -11.591  17.260  69.938  1.00  0.00     0.000 HD 
HETATM   20  C   UNL     1     -12.756  14.291  71.178  1.00  0.00    -0.360 A  
HETATM   21  N   UNL     1     -12.302  14.091  69.822  1.00  0.00    -0.331 NA 
ENDBRANCH  15  16
ENDBRANCH   6  15
TORSDOF 3
ENDMDL
MODEL       67
REMARK 921   NORMALIZED FREE ENERGY PREDICTED BY IDOCK:   -4.50 KCAL/MOL
REMARK 922        TOTAL FREE ENERGY PREDICTED BY IDOCK:   -5.61 KCAL/MOL
REMARK 923 INTER-LIGAND FREE ENERGY PREDICTED BY IDOCK:   -5.37 KCAL/MOL
REMARK 924 INTRA-LIGAND FREE ENERGY PREDICTED BY IDOCK:   -0.24 KCAL/MOL
REMARK 927      BINDING AFFINITY PREDICTED BY RF-SCORE:    0.00 PKD
ROOT
HETATM    1  C   UNL     1     -11.874  15.624  68.581  1.00  0.00    -0.306 C  
HETATM    2  C   UNL     1     -10.440  15.959  68.263  1.00  0.00    -0.257 A  
HETATM    3  C   UNL     1     -10.092  17.323  68.208  1.00  0.00    -0.321 A  
HETATM    4  C   UNL     1      -8.818  17.790  67.830  1.00  0.00    -0.249 A  
HETATM    5  C   UNL     1      -7.862  16.789  67.581  1.00  0.00    -0.175 A  
HETATM    6  C   UNL     1      -9.478  14.977  67.957  1.00  0.00    -0.193 A  
HETATM    7  C   UNL     1      -7.083  14.383  67.342  1.00  0.00    -0.121 C  
HETATM    8  H   UNL     1      -5.921  16.431  67.106  1.00  0.00     0.000 HD 
HETATM    9  C   UNL     1      -8.161  15.401  67.641  1.00  0.00    -0.171 A  
HETATM   10  O   UNL     1      -6.567  17.107  67.274  1.00  0.00    -0.140 OA 
ENDROOT
BRANCH   4  11
HETATM   11  C   UNL     1      -8.583  19.323  67.767  1.00  0.00    -0.341 C  
HETATM   12  C   UNL     1      -9.795  20.195  68.172  1.00  0.00    -0.460 C  
HETATM   13  C   UNL     1      -7.436  19.790  68.710  1.00  0.00    -0.320 C  
HETATM   14  C   UNL     1      -8.177  19.674  66.323  1.00  0.00    -0.363 C  
ENDBRANCH   4  11
BRANCH   6  15
HETATM   15  C   UNL     1      -9.873  13.510  67.888  1.00  0.00    -0.235 C  
BRANCH  15  16
HETATM   16  C   UNL     1     -10.384  12.974  66.566  1.00  0.00    -0.274 A  
HETATM   17  N   UNL     1      -9.533  12.663  65.620  1.00  0.00    -0.456 NA 
HETATM   18  C   UNL     1     -10.365  12.158  64.497  1.00  0.00    -0.304 A  
HETATM   19  H   UNL     1      -8.517  12.748  65.648  1.00  0.00     0.000 HD 
HETATM   20  C   UNL     1     -11.816  12.122  64.991  1.00  0.00    -0.298 A  
HETATM   21  N   UNL     1     -11.697  12.692  66.313  1.00  0.00    -0.385 NA 
ENDBRANCH  15  16
ENDBRANCH   6  15
TORSDOF 3
ENDMDL
MODEL       68
REMARK 921   NORMALIZED FREE ENERGY PREDICTED BY IDOCK:   -4.49 KCAL/MOL
REMARK 922        TOTAL FREE ENERGY PREDICTED BY IDOCK:   -5.60 KCAL/MOL
REMARK 923 INTER-LIGAND FREE ENERGY PREDICTED BY IDOCK:   -5.35 KCAL/MOL
REMARK 924 INTRA-LIGAND FREE ENERGY PREDICTED BY IDOCK:   -0.24 KCAL/MOL
REMARK 927      BINDING AFFINITY PREDICTED BY RF-SCORE:    0.00 PKD
ROOT
HETATM    1  C   UNL     1     -11.684  12.443  68.828  1.00  0.00    -0.379 C  
HETATM    2  C   UNL     1     -11.220  11.029  69.061  1.00  0.00    -0.320 A  
HETATM    3  C   UNL     1     -11.802  10.326  70.133  1.00  0.00    -0.343 A  
HETATM    4  C   UNL     1     -11.402   9.035  70.531  1.00  0.00    -0.282 A  
HETATM    5  C   UNL     1     -10.416   8.439  69.725  1.00  0.00    -0.220 A  
HETATM    6  C   UNL     1     -10.196  10.429  68.303  1.00  0.00    -0.184 A  
HETATM    7  C   UNL     1      -8.743   8.400  67.815  1.00  0.00    -0.137 C  
HETATM    8  H   UNL     1      -9.322   6.756  69.415  1.00  0.00     0.000 HD 
HETATM    9  C   UNL     1      -9.811   9.101  68.624  1.00  0.00    -0.175 A  
HETATM   10  O   UNL     1      -9.989   7.159  69.959  1.00  0.00    -0.178 OA 
ENDROOT
BRANCH   4  11
HETATM   11  C   UNL     1     -12.099   8.393  71.760  1.00  0.00    -0.379 C  
HETATM   12  C   UNL     1     -13.206   9.252  72.417  1.00  0.00    -0.501 C  
HETATM   13  C   UNL     1     -12.803   7.049  71.413  1.00  0.00    -0.407 C  
HETATM   14  C   UNL     1     -11.011   8.096  72.811  1.00  0.00    -0.401 C  
ENDBRANCH   4  11
BRANCH   6  15
HETATM   15  C   UNL     1      -9.471  11.222  67.227  1.00  0.00    -0.184 C  
BRANCH  15  16
HETATM   16  C   UNL     1      -9.992  11.134  65.807  1.00  0.00    -0.245 A  
HETATM   17  N   UNL     1     -10.979  11.908  65.429  1.00  0.00    -0.296 NA 
HETATM   18  C   UNL     1     -11.210  11.577  63.999  1.00  0.00    -0.333 A  
HETATM   19  H   UNL     1     -11.480  12.592  65.995  1.00  0.00     0.000 HD 
HETATM   20  C   UNL     1     -10.126  10.574  63.588  1.00  0.00    -0.151 A  
HETATM   21  N   UNL     1      -9.431  10.353  64.835  1.00  0.00    -0.239 NA 
ENDBRANCH  15  16
ENDBRANCH   6  15
TORSDOF 3
ENDMDL
MODEL       69
REMARK 921   NORMALIZED FREE ENERGY PREDICTED BY IDOCK:   -4.42 KCAL/MOL
REMARK 922        TOTAL FREE ENERGY PREDICTED BY IDOCK:   -5.52 KCAL/MOL
REMARK 923 INTER-LIGAND FREE ENERGY PREDICTED BY IDOCK:   -5.22 KCAL/MOL
REMARK 924 INTRA-LIGAND FREE ENERGY PREDICTED BY IDOCK:   -0.30 KCAL/MOL
REMARK 927      BINDING AFFINITY PREDICTED BY RF-SCORE:    0.00 PKD
ROOT
HETATM    1  C   UNL     1     -12.273  14.298  66.507  1.00  0.00    -0.419 C  
HETATM    2  C   UNL     1     -10.847  14.650  66.842  1.00  0.00    -0.305 A  
HETATM    3  C   UNL     1     -10.513  16.018  66.890  1.00  0.00    -0.306 A  
HETATM    4  C   UNL     1      -9.204  16.497  67.096  1.00  0.00    -0.226 A  
HETATM    5  C   UNL     1      -8.235  15.507  67.336  1.00  0.00    -0.177 A  
HETATM    6  C   UNL     1      -9.846  13.678  67.033  1.00  0.00    -0.251 A  
HETATM    7  C   UNL     1      -7.426  13.110  67.565  1.00  0.00    -0.164 C  
HETATM    8  H   UNL     1      -6.283  15.170  67.782  1.00  0.00     0.000 HD 
HETATM    9  C   UNL     1      -8.527  14.116  67.314  1.00  0.00    -0.228 A  
HETATM   10  O   UNL     1      -6.938  15.839  67.620  1.00  0.00    -0.136 OA 
ENDROOT
BRANCH   4  11
HETATM   11  C   UNL     1      -8.969  18.031  67.080  1.00  0.00    -0.255 C  
HETATM   12  C   UNL     1      -7.716  18.501  66.304  1.00  0.00    -0.283 C  
HETATM   13  C   UNL     1     -10.147  18.808  66.424  1.00  0.00    -0.443 C  
HETATM   14  C   UNL     1      -8.853  18.500  68.544  1.00  0.00    -0.351 C  
ENDBRANCH   4  11
BRANCH   6  15
HETATM   15  C   UNL     1     -10.167  12.201  66.857  1.00  0.00    -0.228 C  
BRANCH  15  16
HETATM   16  C   UNL     1     -10.565  11.410  68.086  1.00  0.00    -0.189 A  
HETATM   17  N   UNL     1     -11.828  11.332  68.426  1.00  0.00    -0.552 NA 
HETATM   18  C   UNL     1     -11.854  10.476  69.640  1.00  0.00    -0.234 A  
HETATM   19  H   UNL     1     -12.623  11.767  67.957  1.00  0.00     0.000 HD 
HETATM   20  C   UNL     1     -10.422   9.983  69.874  1.00  0.00    -0.274 A  
HETATM   21  N   UNL     1      -9.693  10.669  68.833  1.00  0.00    -0.195 NA 
ENDBRANCH  15  16
ENDBRANCH   6  15
TORSDOF 3
ENDMDL
MODEL       70
REMARK 921   NORMALIZED FREE ENERGY PREDICTED BY IDOCK:   -4.39 KCAL/MOL
REMARK 922        TOTAL FREE ENERGY PREDICTED BY IDOCK:   -5.49 KCAL/MOL
REMARK 923 INTER-LIGAND FREE ENERGY PREDICTED BY IDOCK:   -5.56 KCAL/MOL
REMARK 924 INTRA-LIGAND FREE ENERGY PREDICTED BY IDOCK:    0.07 KCAL/MOL
REMARK 927      BINDING AFFINITY PREDICTED BY RF-SCORE:    0.00 PKD
ROOT
HETATM    1  C   UNL     1      -9.642  16.591  68.952  1.00  0.00    -0.261 C  
HETATM    2  C   UNL     1     -10.442  15.342  69.215  1.00  0.00    -0.258 A  
HETATM    3  C   UNL     1     -11.352  15.372  70.290  1.00  0.00    -0.332 A  
HETATM    4  C   UNL     1     -12.097  14.254  70.715  1.00  0.00    -0.418 A  
HETATM    5  C   UNL     1     -11.935  13.095  69.936  1.00  0.00    -0.317 A  
HETATM    6  C   UNL     1     -10.259  14.152  68.484  1.00  0.00    -0.247 A  
HETATM    7  C   UNL     1     -10.910  11.732  68.053  1.00  0.00    -0.256 C  
HETATM    8  H   UNL     1     -12.544  11.176  69.671  1.00  0.00     0.000 HD 
HETATM    9  C   UNL     1     -11.042  13.022  68.834  1.00  0.00    -0.307 A  
HETATM   10  O   UNL     1     -12.653  11.960  70.198  1.00  0.00    -0.105 OA 
ENDROOT
BRANCH   4  11
HETATM   11  C   UNL     1     -13.031  14.414  71.944  1.00  0.00    -0.426 C  
HETATM   12  C   UNL     1     -13.670  13.105  72.466  1.00  0.00    -0.563 C  
HETATM   13  C   UNL     1     -12.295  15.008  73.180  1.00  0.00    -0.506 C  
HETATM   14  C   UNL     1     -14.155  15.394  71.550  1.00  0.00    -0.596 C  
ENDBRANCH   4  11
BRANCH   6  15
HETATM   15  C   UNL     1      -9.189  14.069  67.407  1.00  0.00    -0.216 C  
BRANCH  15  16
HETATM   16  C   UNL     1      -7.761  13.811  67.843  1.00  0.00    -0.161 A  
HETATM   17  N   UNL     1      -7.485  12.754  68.567  1.00  0.00    -0.121 NA 
HETATM   18  C   UNL     1      -6.017  12.804  68.787  1.00  0.00    -0.071 A  
HETATM   19  H   UNL     1      -8.139  12.049  68.906  1.00  0.00     0.000 HD 
HETATM   20  C   UNL     1      -5.480  13.992  67.979  1.00  0.00    -0.117 A  
HETATM   21  N   UNL     1      -6.693  14.567  67.447  1.00  0.00    -0.282 NA 
ENDBRANCH  15  16
ENDBRANCH   6  15
TORSDOF 3
ENDMDL
MODEL       71
REMARK 921   NORMALIZED FREE ENERGY PREDICTED BY IDOCK:   -4.39 KCAL/MOL
REMARK 922        TOTAL FREE ENERGY PREDICTED BY IDOCK:   -5.49 KCAL/MOL
REMARK 923 INTER-LIGAND FREE ENERGY PREDICTED BY IDOCK:   -5.13 KCAL/MOL
REMARK 924 INTRA-LIGAND FREE ENERGY PREDICTED BY IDOCK:   -0.36 KCAL/MOL
REMARK 927      BINDING AFFINITY PREDICTED BY RF-SCORE:    0.00 PKD
ROOT
HETATM    1  C   UNL     1      -7.710   9.207  70.360  1.00  0.00    -0.132 C  
HETATM    2  C   UNL     1      -9.057   9.813  70.063  1.00  0.00    -0.258 A  
HETATM    3  C   UNL     1      -9.150  10.664  68.944  1.00  0.00    -0.181 A  
HETATM    4  C   UNL     1     -10.316  11.375  68.598  1.00  0.00    -0.219 A  
HETATM    5  C   UNL     1     -11.436  11.120  69.408  1.00  0.00    -0.298 A  
HETATM    6  C   UNL     1     -10.180   9.617  70.889  1.00  0.00    -0.303 A  
HETATM    7  C   UNL     1     -12.639  10.048  71.371  1.00  0.00    -0.518 C  
HETATM    8  H   UNL     1     -13.407  11.520  69.686  1.00  0.00     0.000 HD 
HETATM    9  C   UNL     1     -11.395  10.258  70.536  1.00  0.00    -0.422 A  
HETATM   10  O   UNL     1     -12.650  11.692  69.138  1.00  0.00    -0.108 OA 
ENDROOT
BRANCH   4  11
HETATM   11  C   UNL     1     -10.267  12.314  67.363  1.00  0.00    -0.213 C  
HETATM   12  C   UNL     1     -11.415  12.127  66.343  1.00  0.00    -0.430 C  
HETATM   13  C   UNL     1     -10.337  13.819  67.755  1.00  0.00    -0.241 C  
HETATM   14  C   UNL     1      -8.922  12.076  66.648  1.00  0.00    -0.204 C  
ENDBRANCH   4  11
BRANCH   6  15
HETATM   15  C   UNL     1     -10.059   8.805  72.170  1.00  0.00    -0.362 C  
BRANCH  15  16
HETATM   16  C   UNL     1     -10.449   7.342  72.122  1.00  0.00    -0.203 A  
HETATM   17  N   UNL     1     -11.059   6.800  73.147  1.00  0.00    -0.469 NA 
HETATM   18  C   UNL     1     -11.307   5.389  72.753  1.00  0.00    -0.296 A  
HETATM   19  H   UNL     1     -11.309   7.250  74.028  1.00  0.00     0.000 HD 
HETATM   20  C   UNL     1     -10.848   5.240  71.298  1.00  0.00    -0.069 A  
HETATM   21  N   UNL     1     -10.296   6.546  71.021  1.00  0.00    -0.203 NA 
ENDBRANCH  15  16
ENDBRANCH   6  15
TORSDOF 3
ENDMDL
MODEL       72
REMARK 921   NORMALIZED FREE ENERGY PREDICTED BY IDOCK:   -4.39 KCAL/MOL
REMARK 922        TOTAL FREE ENERGY PREDICTED BY IDOCK:   -5.48 KCAL/MOL
REMARK 923 INTER-LIGAND FREE ENERGY PREDICTED BY IDOCK:   -5.21 KCAL/MOL
REMARK 924 INTRA-LIGAND FREE ENERGY PREDICTED BY IDOCK:   -0.27 KCAL/MOL
REMARK 927      BINDING AFFINITY PREDICTED BY RF-SCORE:    0.00 PKD
ROOT
HETATM    1  C   UNL     1      -8.982   9.490  64.516  1.00  0.00    -0.256 C  
HETATM    2  C   UNL     1      -9.421   9.486  65.958  1.00  0.00    -0.294 A  
HETATM    3  C   UNL     1      -9.578   8.233  66.582  1.00  0.00    -0.299 A  
HETATM    4  C   UNL     1     -10.072   8.068  67.891  1.00  0.00    -0.243 A  
HETATM    5  C   UNL     1     -10.332   9.261  68.588  1.00  0.00    -0.205 A  
HETATM    6  C   UNL     1      -9.739  10.664  66.661  1.00  0.00    -0.225 A  
HETATM    7  C   UNL     1     -10.490  11.786  68.815  1.00  0.00    -0.221 C  
HETATM    8  H   UNL     1     -10.925  10.049  70.362  1.00  0.00     0.000 HD 
HETATM    9  C   UNL     1     -10.173  10.547  68.006  1.00  0.00    -0.195 A  
HETATM   10  O   UNL     1     -10.749   9.243  69.891  1.00  0.00    -0.220 OA 
ENDROOT
BRANCH   4  11
HETATM   11  C   UNL     1     -10.238   6.626  68.440  1.00  0.00    -0.188 C  
HETATM   12  C   UNL     1     -11.458   6.406  69.366  1.00  0.00    -0.374 C  
HETATM   13  C   UNL     1     -10.414   5.572  67.308  1.00  0.00    -0.300 C  
HETATM   14  C   UNL     1      -8.954   6.272  69.217  1.00  0.00    -0.125 C  
ENDBRANCH   4  11
BRANCH   6  15
HETATM   15  C   UNL     1      -9.697  12.012  65.958  1.00  0.00    -0.256 C  
BRANCH  15  16
HETATM   16  C   UNL     1     -10.886  12.407  65.106  1.00  0.00    -0.297 A  
HETATM   17  N   UNL     1     -10.693  12.852  63.890  1.00  0.00    -0.478 NA 
HETATM   18  C   UNL     1     -12.052  13.114  63.349  1.00  0.00    -0.486 A  
HETATM   19  H   UNL     1      -9.801  12.989  63.415  1.00  0.00     0.000 HD 
HETATM   20  C   UNL     1     -13.056  12.640  64.406  1.00  0.00     0.025 A  
HETATM   21  N   UNL     1     -12.188  12.237  65.487  1.00  0.00    -0.578 NA 
ENDBRANCH  15  16
ENDBRANCH   6  15
TORSDOF 3
ENDMDL
MODEL       73
REMARK 921   NORMALIZED FREE ENERGY PREDICTED BY IDOCK:   -4.34 KCAL/MOL
REMARK 922        TOTAL FREE ENERGY PREDICTED BY IDOCK:   -5.43 KCAL/MOL
REMARK 923 INTER-LIGAND FREE ENERGY PREDICTED BY IDOCK:   -5.23 KCAL/MOL
REMARK 924 INTRA-LIGAND FREE ENERGY PREDICTED BY IDOCK:   -0.20 KCAL/MOL
REMARK 927      BINDING AFFINITY PREDICTED BY RF-SCORE:    0.00 PKD
ROOT
HETATM    1  C   UNL     1     -11.721  15.790  69.077  1.00  0.00    -0.405 C  
HETATM    2  C   UNL     1     -11.623  14.344  68.666  1.00  0.00    -0.347 A  
HETATM    3  C   UNL     1     -11.974  13.374  69.626  1.00  0.00    -0.386 A  
HETATM    4  C   UNL     1     -11.842  11.987  69.420  1.00  0.00    -0.384 A  
HETATM    5  C   UNL     1     -11.404  11.611  68.138  1.00  0.00    -0.292 A  
HETATM    6  C   UNL     1     -11.136  13.940  67.408  1.00  0.00    -0.313 A  
HETATM    7  C   UNL     1     -10.574  12.069  65.781  1.00  0.00    -0.301 C  
HETATM    8  H   UNL     1     -11.004  10.038  66.917  1.00  0.00     0.000 HD 
HETATM    9  C   UNL     1     -11.055  12.551  67.132  1.00  0.00    -0.321 A  
HETATM   10  O   UNL     1     -11.300  10.293  67.783  1.00  0.00    -0.322 OA 
ENDROOT
BRANCH   4  11
HETATM   11  C   UNL     1     -12.223  11.029  70.580  1.00  0.00    -0.481 C  
HETATM   12  C   UNL     1     -12.847  11.710  71.822  1.00  0.00    -0.418 C  
HETATM   13  C   UNL     1     -13.272   9.962  70.154  1.00  0.00     0.460 C  
HETATM   14  C   UNL     1     -10.944  10.285  71.011  1.00  0.00     0.015 C  
ENDBRANCH   4  11
BRANCH   6  15
HETATM   15  C   UNL     1     -10.634  14.974  66.411  1.00  0.00    -0.310 C  
BRANCH  15  16
HETATM   16  C   UNL     1      -9.261  15.573  66.640  1.00  0.00    -0.271 A  
HETATM   17  N   UNL     1      -8.394  14.937  67.388  1.00  0.00    -0.180 NA 
HETATM   18  C   UNL     1      -7.173  15.784  67.375  1.00  0.00    -0.202 A  
HETATM   19  H   UNL     1      -8.528  14.051  67.875  1.00  0.00     0.000 HD 
HETATM   20  C   UNL     1      -7.440  16.944  66.409  1.00  0.00    -0.288 A  
HETATM   21  N   UNL     1      -8.813  16.710  66.029  1.00  0.00    -0.484 NA 
ENDBRANCH  15  16
ENDBRANCH   6  15
TORSDOF 3
ENDMDL
MODEL       74
REMARK 921   NORMALIZED FREE ENERGY PREDICTED BY IDOCK:   -4.31 KCAL/MOL
REMARK 922        TOTAL FREE ENERGY PREDICTED BY IDOCK:   -5.40 KCAL/MOL
REMARK 923 INTER-LIGAND FREE ENERGY PREDICTED BY IDOCK:   -5.19 KCAL/MOL
REMARK 924 INTRA-LIGAND FREE ENERGY PREDICTED BY IDOCK:   -0.20 KCAL/MOL
REMARK 927      BINDING AFFINITY PREDICTED BY RF-SCORE:    0.00 PKD
ROOT
HETATM    1  C   UNL     1      -8.024  10.824  68.786  1.00  0.00    -0.136 C  
HETATM    2  C   UNL     1      -8.961   9.651  68.916  1.00  0.00    -0.144 A  
HETATM    3  C   UNL     1      -9.293   9.232  70.219  1.00  0.00    -0.277 A  
HETATM    4  C   UNL     1     -10.078   8.095  70.499  1.00  0.00    -0.201 A  
HETATM    5  C   UNL     1     -10.592   7.431  69.372  1.00  0.00    -0.226 A  
HETATM    6  C   UNL     1      -9.446   8.935  67.805  1.00  0.00    -0.163 A  
HETATM    7  C   UNL     1     -10.875   7.049  66.877  1.00  0.00    -0.350 C  
HETATM    8  H   UNL     1     -11.774   5.905  68.742  1.00  0.00     0.000 HD 
HETATM    9  C   UNL     1     -10.299   7.826  68.039  1.00  0.00    -0.263 A  
HETATM   10  O   UNL     1     -11.427   6.354  69.504  1.00  0.00    -0.407 OA 
ENDROOT
BRANCH   4  11
HETATM   11  C   UNL     1     -10.330   7.720  71.983  1.00  0.00    -0.267 C  
HETATM   12  C   UNL     1     -10.362   6.203  72.287  1.00  0.00    -0.221 C  
HETATM   13  C   UNL     1      -9.235   8.284  72.935  1.00  0.00    -0.329 C  
HETATM   14  C   UNL     1     -11.678   8.339  72.399  1.00  0.00    -0.463 C  
ENDBRANCH   4  11
BRANCH   6  15
HETATM   15  C   UNL     1      -8.992   9.299  66.399  1.00  0.00    -0.185 C  
BRANCH  15  16
HETATM   16  C   UNL     1      -9.842  10.272  65.609  1.00  0.00    -0.268 A  
HETATM   17  N   UNL     1     -10.491  11.223  66.234  1.00  0.00    -0.251 NA 
HETATM   18  C   UNL     1     -11.187  11.988  65.167  1.00  0.00    -0.315 A  
HETATM   19  H   UNL     1     -10.513  11.401  67.238  1.00  0.00     0.000 HD 
HETATM   20  C   UNL     1     -10.743  11.395  63.825  1.00  0.00    -0.403 A  
HETATM   21  N   UNL     1      -9.909  10.293  64.243  1.00  0.00    -0.324 NA 
ENDBRANCH  15  16
ENDBRANCH   6  15
TORSDOF 3
ENDMDL
MODEL       75
REMARK 921   NORMALIZED FREE ENERGY PREDICTED BY IDOCK:   -4.31 KCAL/MOL
REMARK 922        TOTAL FREE ENERGY PREDICTED BY IDOCK:   -5.39 KCAL/MOL
REMARK 923 INTER-LIGAND FREE ENERGY PREDICTED BY IDOCK:   -5.04 KCAL/MOL
REMARK 924 INTRA-LIGAND FREE ENERGY PREDICTED BY IDOCK:   -0.36 KCAL/MOL
REMARK 927      BINDING AFFINITY PREDICTED BY RF-SCORE:    0.00 PKD
ROOT
HETATM    1  C   UNL     1     -10.994   6.420  66.878  1.00  0.00    -0.413 C  
HETATM    2  C   UNL     1     -10.404   7.248  67.989  1.00  0.00    -0.243 A  
HETATM    3  C   UNL     1     -11.019   7.165  69.254  1.00  0.00    -0.163 A  
HETATM    4  C   UNL     1     -10.640   7.950  70.361  1.00  0.00    -0.228 A  
HETATM    5  C   UNL     1      -9.531   8.787  70.150  1.00  0.00    -0.169 A  
HETATM    6  C   UNL     1      -9.328   8.135  67.791  1.00  0.00    -0.149 A  
HETATM    7  C   UNL     1      -7.691   9.831  68.744  1.00  0.00    -0.081 C  
HETATM    8  H   UNL     1      -8.266  10.116  71.021  1.00  0.00     0.000 HD 
HETATM    9  C   UNL     1      -8.868   8.893  68.898  1.00  0.00    -0.137 A  
HETATM   10  O   UNL     1      -9.016   9.550  71.163  1.00  0.00    -0.249 OA 
ENDROOT
BRANCH   4  11
HETATM   11  C   UNL     1     -11.434   7.789  71.685  1.00  0.00    -0.299 C  
HETATM   12  C   UNL     1     -10.572   7.561  72.950  1.00  0.00    -0.390 C  
HETATM   13  C   UNL     1     -12.294   9.042  72.021  1.00  0.00    -0.455 C  
HETATM   14  C   UNL     1     -12.391   6.593  71.513  1.00  0.00    -0.365 C  
ENDBRANCH   4  11
BRANCH   6  15
HETATM   15  C   UNL     1      -8.739   8.329  66.401  1.00  0.00    -0.162 C  
BRANCH  15  16
HETATM   16  C   UNL     1      -9.318   9.427  65.532  1.00  0.00    -0.251 A  
HETATM   17  N   UNL     1      -9.068   9.436  64.246  1.00  0.00    -0.417 NA 
HETATM   18  C   UNL     1      -9.799  10.614  63.714  1.00  0.00    -0.335 A  
HETATM   19  H   UNL     1      -8.494   8.774  63.723  1.00  0.00     0.000 HD 
HETATM   20  C   UNL     1     -10.599  11.211  64.877  1.00  0.00    -0.289 A  
HETATM   21  N   UNL     1     -10.186  10.381  65.984  1.00  0.00    -0.243 NA 
ENDBRANCH  15  16
ENDBRANCH   6  15
TORSDOF 3
ENDMDL
MODEL       76
REMARK 921   NORMALIZED FREE ENERGY PREDICTED BY IDOCK:   -4.30 KCAL/MOL
REMARK 922        TOTAL FREE ENERGY PREDICTED BY IDOCK:   -5.37 KCAL/MOL
REMARK 923 INTER-LIGAND FREE ENERGY PREDICTED BY IDOCK:   -5.07 KCAL/MOL
REMARK 924 INTRA-LIGAND FREE ENERGY PREDICTED BY IDOCK:   -0.30 KCAL/MOL
REMARK 927      BINDING AFFINITY PREDICTED BY RF-SCORE:    0.00 PKD
ROOT
HETATM    1  C   UNL     1     -10.651   9.624  68.193  1.00  0.00    -0.273 C  
HETATM    2  C   UNL     1     -10.338  10.120  66.806  1.00  0.00    -0.285 A  
HETATM    3  C   UNL     1     -10.923  11.338  66.407  1.00  0.00    -0.285 A  
HETATM    4  C   UNL     1     -10.800  11.877  65.111  1.00  0.00    -0.350 A  
HETATM    5  C   UNL     1      -9.973  11.152  64.237  1.00  0.00    -0.306 A  
HETATM    6  C   UNL     1      -9.557   9.386  65.892  1.00  0.00    -0.338 A  
HETATM    7  C   UNL     1      -8.486   9.195  63.594  1.00  0.00    -0.190 C  
HETATM    8  H   UNL     1      -9.153  11.113  62.379  1.00  0.00     0.000 HD 
HETATM    9  C   UNL     1      -9.349   9.928  64.598  1.00  0.00    -0.338 A  
HETATM   10  O   UNL     1      -9.713  11.603  62.971  1.00  0.00    -0.396 OA 
ENDROOT
BRANCH   4  11
HETATM   11  C   UNL     1     -11.535  13.207  64.794  1.00  0.00    -0.355 C  
HETATM   12  C   UNL     1     -12.244  13.260  63.419  1.00  0.00    -0.476 C  
HETATM   13  C   UNL     1     -12.657  13.529  65.823  1.00  0.00    -0.490 C  
HETATM   14  C   UNL     1     -10.495  14.342  64.861  1.00  0.00    -0.448 C  
ENDBRANCH   4  11
BRANCH   6  15
HETATM   15  C   UNL     1      -9.027   8.010  66.267  1.00  0.00    -0.208 C  
BRANCH  15  16
HETATM   16  C   UNL     1      -7.670   7.930  66.935  1.00  0.00    -0.099 A  
HETATM   17  N   UNL     1      -6.867   8.964  66.897  1.00  0.00    -0.076 NA 
HETATM   18  C   UNL     1      -5.660   8.549  67.657  1.00  0.00    -0.039 A  
HETATM   19  H   UNL     1      -7.035   9.862  66.443  1.00  0.00     0.000 HD 
HETATM   20  C   UNL     1      -5.946   7.158  68.232  1.00  0.00    -0.030 A  
HETATM   21  N   UNL     1      -7.246   6.864  67.678  1.00  0.00    -0.088 NA 
ENDBRANCH  15  16
ENDBRANCH   6  15
TORSDOF 3
ENDMDL
MODEL       77
REMARK 921   NORMALIZED FREE ENERGY PREDICTED BY IDOCK:   -4.27 KCAL/MOL
REMARK 922        TOTAL FREE ENERGY PREDICTED BY IDOCK:   -5.34 KCAL/MOL
REMARK 923 INTER-LIGAND FREE ENERGY PREDICTED BY IDOCK:   -4.98 KCAL/MOL
REMARK 924 INTRA-LIGAND FREE ENERGY PREDICTED BY IDOCK:   -0.36 KCAL/MOL
REMARK 927      BINDING AFFINITY PREDICTED BY RF-SCORE:    0.00 PKD
ROOT
HETATM    1  C   UNL     1     -10.742   5.248  72.293  1.00  0.00    -0.282 C  
HETATM    2  C   UNL     1     -10.298   5.792  70.961  1.00  0.00    -0.291 A  
HETATM    3  C   UNL     1      -9.957   4.858  69.962  1.00  0.00    -0.323 A  
HETATM    4  C   UNL     1      -9.435   5.215  68.703  1.00  0.00    -0.178 A  
HETATM    5  C   UNL     1      -9.345   6.597  68.462  1.00  0.00    -0.125 A  
HETATM    6  C   UNL     1     -10.147   7.170  70.712  1.00  0.00    -0.197 A  
HETATM    7  C   UNL     1      -9.550   9.046  69.103  1.00  0.00    -0.161 C  
HETATM    8  H   UNL     1      -8.859   8.013  67.090  1.00  0.00     0.000 HD 
HETATM    9  C   UNL     1      -9.692   7.576  69.431  1.00  0.00    -0.164 A  
HETATM   10  O   UNL     1      -8.920   7.078  67.254  1.00  0.00    -0.118 OA 
ENDROOT
BRANCH   4  11
HETATM   11  C   UNL     1      -9.059   4.081  67.713  1.00  0.00    -0.175 C  
HETATM   12  C   UNL     1      -9.788   4.124  66.349  1.00  0.00    -0.214 C  
HETATM   13  C   UNL     1      -7.546   4.086  67.346  1.00  0.00    -0.072 C  
HETATM   14  C   UNL     1      -9.371   2.737  68.401  1.00  0.00    -0.252 C  
ENDBRANCH   4  11
BRANCH   6  15
HETATM   15  C   UNL     1     -10.389   8.181  71.822  1.00  0.00    -0.293 C  
BRANCH  15  16
HETATM   16  C   UNL     1     -11.749   8.845  71.894  1.00  0.00    -0.369 A  
HETATM   17  N   UNL     1     -12.736   8.235  72.503  1.00  0.00    -0.582 NA 
HETATM   18  C   UNL     1     -13.889   9.166  72.404  1.00  0.00    -0.457 A  
HETATM   19  H   UNL     1     -12.716   7.318  72.950  1.00  0.00     0.000 HD 
HETATM   20  C   UNL     1     -13.377  10.451  71.744  1.00  0.00    -0.354 A  
HETATM   21  N   UNL     1     -12.007  10.109  71.443  1.00  0.00    -0.374 NA 
ENDBRANCH  15  16
ENDBRANCH   6  15
TORSDOF 3
ENDMDL
MODEL       78
REMARK 921   NORMALIZED FREE ENERGY PREDICTED BY IDOCK:   -4.26 KCAL/MOL
REMARK 922        TOTAL FREE ENERGY PREDICTED BY IDOCK:   -5.34 KCAL/MOL
REMARK 923 INTER-LIGAND FREE ENERGY PREDICTED BY IDOCK:   -5.48 KCAL/MOL
REMARK 924 INTRA-LIGAND FREE ENERGY PREDICTED BY IDOCK:    0.14 KCAL/MOL
REMARK 927      BINDING AFFINITY PREDICTED BY RF-SCORE:    0.00 PKD
ROOT
HETATM    1  C   UNL     1     -13.919   8.999  71.793  1.00  0.00    -0.415 C  
HETATM    2  C   UNL     1     -12.488   8.594  71.553  1.00  0.00    -0.364 A  
HETATM    3  C   UNL     1     -12.119   7.282  71.908  1.00  0.00    -0.349 A  
HETATM    4  C   UNL     1     -10.800   6.792  71.831  1.00  0.00    -0.261 A  
HETATM    5  C   UNL     1      -9.860   7.685  71.289  1.00  0.00    -0.171 A  
HETATM    6  C   UNL     1     -11.515   9.486  71.062  1.00  0.00    -0.420 A  
HETATM    7  C   UNL     1      -9.116   9.921  70.342  1.00  0.00    -0.021 C  
HETATM    8  H   UNL     1      -7.923   7.915  70.727  1.00  0.00     0.000 HD 
HETATM    9  C   UNL     1     -10.188   9.012  70.901  1.00  0.00    -0.324 A  
HETATM   10  O   UNL     1      -8.558   7.311  71.094  1.00  0.00    -0.128 OA 
ENDROOT
BRANCH   4  11
HETATM   11  C   UNL     1     -10.526   5.337  72.298  1.00  0.00    -0.273 C  
HETATM   12  C   UNL     1     -11.715   4.629  72.991  1.00  0.00    -0.145 C  
HETATM   13  C   UNL     1     -10.144   4.394  71.121  1.00  0.00    -0.196 C  
HETATM   14  C   UNL     1      -9.334   5.378  73.274  1.00  0.00    -0.136 C  
ENDBRANCH   4  11
BRANCH   6  15
HETATM   15  C   UNL     1     -11.872  10.941  70.796  1.00  0.00    -0.424 C  
BRANCH  15  16
HETATM   16  C   UNL     1     -11.628  11.489  69.405  1.00  0.00    -0.321 A  
HETATM   17  N   UNL     1     -12.037  10.811  68.361  1.00  0.00    -0.827 NA 
HETATM   18  C   UNL     1     -11.661  11.639  67.186  1.00  0.00    -0.212 A  
HETATM   19  H   UNL     1     -12.513   9.909  68.356  1.00  0.00     0.000 HD 
HETATM   20  C   UNL     1     -11.075  12.948  67.727  1.00  0.00    -0.259 A  
HETATM   21  N   UNL     1     -11.084  12.717  69.152  1.00  0.00    -0.228 NA 
ENDBRANCH  15  16
ENDBRANCH   6  15
TORSDOF 3
ENDMDL
MODEL       79
REMARK 921   NORMALIZED FREE ENERGY PREDICTED BY IDOCK:   -4.25 KCAL/MOL
REMARK 922        TOTAL FREE ENERGY PREDICTED BY IDOCK:   -5.33 KCAL/MOL
REMARK 923 INTER-LIGAND FREE ENERGY PREDICTED BY IDOCK:   -6.15 KCAL/MOL
REMARK 924 INTRA-LIGAND FREE ENERGY PREDICTED BY IDOCK:    0.83 KCAL/MOL
REMARK 927      BINDING AFFINITY PREDICTED BY RF-SCORE:    0.00 PKD
ROOT
HETATM    1  C   UNL     1     -10.713  16.696  65.344  1.00  0.00    -0.228 C  
HETATM    2  C   UNL     1     -10.954  15.327  65.923  1.00  0.00    -0.325 A  
HETATM    3  C   UNL     1     -10.886  14.230  65.041  1.00  0.00    -0.414 A  
HETATM    4  C   UNL     1     -11.182  12.905  65.417  1.00  0.00    -0.314 A  
HETATM    5  C   UNL     1     -11.481  12.720  66.778  1.00  0.00    -0.343 A  
HETATM    6  C   UNL     1     -11.308  15.120  67.271  1.00  0.00    -0.305 A  
HETATM    7  C   UNL     1     -11.891  13.516  69.155  1.00  0.00    -0.386 C  
HETATM    8  H   UNL     1     -11.920  11.348  68.208  1.00  0.00     0.000 HD 
HETATM    9  C   UNL     1     -11.545  13.792  67.708  1.00  0.00    -0.381 A  
HETATM   10  O   UNL     1     -11.718  11.473  67.288  1.00  0.00    -0.576 OA 
ENDROOT
BRANCH   4  11
HETATM   11  C   UNL     1     -11.111  11.798  64.331  1.00  0.00    -0.396 C  
HETATM   12  C   UNL     1     -12.400  11.603  63.499  1.00  0.00    -0.349 C  
HETATM   13  C   UNL     1     -10.003  12.071  63.273  1.00  0.00    -0.339 C  
HETATM   14  C   UNL     1     -10.769  10.472  65.038  1.00  0.00     0.027 C  
ENDBRANCH   4  11
BRANCH   6  15
HETATM   15  C   UNL     1     -11.511  16.306  68.202  1.00  0.00    -0.173 C  
BRANCH  15  16
HETATM   16  C   UNL     1     -10.436  17.373  68.237  1.00  0.00    -0.385 A  
HETATM   17  N   UNL     1     -10.770  18.635  68.131  1.00  0.00    -0.318 NA 
HETATM   18  C   UNL     1      -9.493  19.387  68.227  1.00  0.00    -0.365 A  
HETATM   19  H   UNL     1     -11.708  19.019  68.009  1.00  0.00     0.000 HD 
HETATM   20  C   UNL     1      -8.389  18.365  68.519  1.00  0.00    -0.323 A  
HETATM   21  N   UNL     1      -9.114  17.117  68.474  1.00  0.00    -0.259 NA 
ENDBRANCH  15  16
ENDBRANCH   6  15
TORSDOF 3
ENDMDL
MODEL       80
REMARK 921   NORMALIZED FREE ENERGY PREDICTED BY IDOCK:   -4.24 KCAL/MOL
REMARK 922        TOTAL FREE ENERGY PREDICTED BY IDOCK:   -5.30 KCAL/MOL
REMARK 923 INTER-LIGAND FREE ENERGY PREDICTED BY IDOCK:   -4.98 KCAL/MOL
REMARK 924 INTRA-LIGAND FREE ENERGY PREDICTED BY IDOCK:   -0.33 KCAL/MOL
REMARK 927      BINDING AFFINITY PREDICTED BY RF-SCORE:    0.00 PKD
ROOT
HETATM    1  C   UNL     1      -9.632  15.608  68.210  1.00  0.00    -0.200 C  
HETATM    2  C   UNL     1      -9.742  14.121  68.423  1.00  0.00    -0.226 A  
HETATM    3  C   UNL     1      -8.600  13.342  68.150  1.00  0.00    -0.174 A  
HETATM    4  C   UNL     1      -8.580  11.935  68.211  1.00  0.00    -0.162 A  
HETATM    5  C   UNL     1      -9.774  11.337  68.650  1.00  0.00    -0.195 A  
HETATM    6  C   UNL     1     -10.941  13.493  68.810  1.00  0.00    -0.291 A  
HETATM    7  C   UNL     1     -12.200  11.365  69.403  1.00  0.00    -0.288 C  
HETATM    8  H   UNL     1     -10.675   9.579  69.118  1.00  0.00     0.000 HD 
HETATM    9  C   UNL     1     -10.946  12.081  68.953  1.00  0.00    -0.277 A  
HETATM   10  O   UNL     1      -9.867   9.983  68.821  1.00  0.00    -0.156 OA 
ENDROOT
BRANCH   4  11
HETATM   11  C   UNL     1      -7.265  11.199  67.840  1.00  0.00    -0.090 C  
HETATM   12  C   UNL     1      -7.401  10.105  66.754  1.00  0.00    -0.104 C  
HETATM   13  C   UNL     1      -6.177  12.165  67.284  1.00  0.00    -0.152 C  
HETATM   14  C   UNL     1      -6.710  10.557  69.126  1.00  0.00    -0.069 C  
ENDBRANCH   4  11
BRANCH   6  15
HETATM   15  C   UNL     1     -12.214  14.308  68.983  1.00  0.00    -0.255 C  
BRANCH  15  16
HETATM   16  C   UNL     1     -12.495  14.903  70.348  1.00  0.00    -0.350 A  
HETATM   17  N   UNL     1     -13.733  15.120  70.718  1.00  0.00    -0.717 NA 
HETATM   18  C   UNL     1     -13.638  15.674  72.093  1.00  0.00    -0.464 A  
HETATM   19  H   UNL     1     -14.580  14.946  70.177  1.00  0.00     0.000 HD 
HETATM   20  C   UNL     1     -12.159  15.632  72.495  1.00  0.00    -0.462 A  
HETATM   21  N   UNL     1     -11.533  15.146  71.288  1.00  0.00    -0.347 NA 
ENDBRANCH  15  16
ENDBRANCH   6  15
TORSDOF 3
ENDMDL
MODEL       81
REMARK 921   NORMALIZED FREE ENERGY PREDICTED BY IDOCK:   -4.23 KCAL/MOL
REMARK 922        TOTAL FREE ENERGY PREDICTED BY IDOCK:   -5.29 KCAL/MOL
REMARK 923 INTER-LIGAND FREE ENERGY PREDICTED BY IDOCK:   -5.14 KCAL/MOL
REMARK 924 INTRA-LIGAND FREE ENERGY PREDICTED BY IDOCK:   -0.15 KCAL/MOL
REMARK 927      BINDING AFFINITY PREDICTED BY RF-SCORE:    0.00 PKD
ROOT
HETATM    1  C   UNL     1      -7.734  11.355  67.020  1.00  0.00    -0.154 C  
HETATM    2  C   UNL     1      -8.982  12.145  66.724  1.00  0.00    -0.203 A  
HETATM    3  C   UNL     1      -9.180  13.337  67.448  1.00  0.00    -0.216 A  
HETATM    4  C   UNL     1     -10.342  14.128  67.349  1.00  0.00    -0.256 A  
HETATM    5  C   UNL     1     -11.284  13.693  66.401  1.00  0.00    -0.308 A  
HETATM    6  C   UNL     1      -9.967  11.703  65.819  1.00  0.00    -0.270 A  
HETATM    7  C   UNL     1     -12.189  12.094  64.646  1.00  0.00    -0.379 C  
HETATM    8  H   UNL     1     -13.061  14.115  65.514  1.00  0.00     0.000 HD 
HETATM    9  C   UNL     1     -11.121  12.507  65.635  1.00  0.00    -0.338 A  
HETATM   10  O   UNL     1     -12.423  14.410  66.154  1.00  0.00    -0.392 OA 
ENDROOT
BRANCH   4  11
HETATM   11  C   UNL     1     -10.449  15.395  68.239  1.00  0.00    -0.241 C  
HETATM   12  C   UNL     1     -11.789  15.562  68.994  1.00  0.00    -0.373 C  
HETATM   13  C   UNL     1      -9.365  15.432  69.356  1.00  0.00    -0.266 C  
HETATM   14  C   UNL     1     -10.232  16.622  67.333  1.00  0.00    -0.286 C  
ENDBRANCH   4  11
BRANCH   6  15
HETATM   15  C   UNL     1      -9.825  10.355  65.128  1.00  0.00    -0.378 C  
BRANCH  15  16
HETATM   16  C   UNL     1      -9.841   9.110  65.990  1.00  0.00    -0.272 A  
HETATM   17  N   UNL     1     -10.776   8.960  66.895  1.00  0.00    -0.243 NA 
HETATM   18  C   UNL     1     -10.503   7.641  67.524  1.00  0.00    -0.266 A  
HETATM   19  H   UNL     1     -11.530   9.609  67.120  1.00  0.00     0.000 HD 
HETATM   20  C   UNL     1      -9.334   7.010  66.758  1.00  0.00    -0.156 A  
HETATM   21  N   UNL     1      -8.986   8.056  65.825  1.00  0.00    -0.143 NA 
ENDBRANCH  15  16
ENDBRANCH   6  15
TORSDOF 3
ENDMDL
MODEL       82
REMARK 921   NORMALIZED FREE ENERGY PREDICTED BY IDOCK:   -4.20 KCAL/MOL
REMARK 922        TOTAL FREE ENERGY PREDICTED BY IDOCK:   -5.27 KCAL/MOL
REMARK 923 INTER-LIGAND FREE ENERGY PREDICTED BY IDOCK:   -4.94 KCAL/MOL
REMARK 924 INTRA-LIGAND FREE ENERGY PREDICTED BY IDOCK:   -0.33 KCAL/MOL
REMARK 927      BINDING AFFINITY PREDICTED BY RF-SCORE:    0.00 PKD
ROOT
HETATM    1  C   UNL     1     -10.834  19.161  65.494  1.00  0.00    -0.084 C  
HETATM    2  C   UNL     1     -10.195  18.225  66.486  1.00  0.00    -0.409 A  
HETATM    3  C   UNL     1     -10.743  16.933  66.601  1.00  0.00    -0.094 A  
HETATM    4  C   UNL     1     -10.315  15.983  67.550  1.00  0.00    -0.287 A  
HETATM    5  C   UNL     1      -9.226  16.380  68.345  1.00  0.00    -0.217 A  
HETATM    6  C   UNL     1      -9.139  18.616  67.332  1.00  0.00    -0.290 A  
HETATM    7  C   UNL     1      -7.470  18.026  69.157  1.00  0.00    -0.086 C  
HETATM    8  H   UNL     1      -7.930  15.795  69.794  1.00  0.00     0.000 HD 
HETATM    9  C   UNL     1      -8.629  17.666  68.254  1.00  0.00    -0.268 A  
HETATM   10  O   UNL     1      -8.666  15.526  69.257  1.00  0.00    -0.231 OA 
ENDROOT
BRANCH   4  11
HETATM   11  C   UNL     1     -11.038  14.611  67.597  1.00  0.00    -0.311 C  
HETATM   12  C   UNL     1     -10.123  13.374  67.428  1.00  0.00    -0.237 C  
HETATM   13  C   UNL     1     -11.771  14.369  68.949  1.00  0.00    -0.357 C  
HETATM   14  C   UNL     1     -12.098  14.602  66.479  1.00  0.00    -0.230 C  
ENDBRANCH   4  11
BRANCH   6  15
HETATM   15  C   UNL     1      -8.624  20.047  67.307  1.00  0.00    -0.399 C  
BRANCH  15  16
HETATM   16  C   UNL     1      -7.303  20.314  66.615  1.00  0.00    -0.274 A  
HETATM   17  N   UNL     1      -6.993  19.649  65.530  1.00  0.00    -0.297 NA 
HETATM   18  C   UNL     1      -5.666  20.173  65.116  1.00  0.00    -0.180 A  
HETATM   19  H   UNL     1      -7.546  18.926  65.068  1.00  0.00     0.000 HD 
HETATM   20  C   UNL     1      -5.318  21.322  66.069  1.00  0.00    -0.221 A  
HETATM   21  N   UNL     1      -6.428  21.293  66.993  1.00  0.00    -0.465 NA 
ENDBRANCH  15  16
ENDBRANCH   6  15
TORSDOF 3
ENDMDL
MODEL       83
REMARK 921   NORMALIZED FREE ENERGY PREDICTED BY IDOCK:   -4.19 KCAL/MOL
REMARK 922        TOTAL FREE ENERGY PREDICTED BY IDOCK:   -5.25 KCAL/MOL
REMARK 923 INTER-LIGAND FREE ENERGY PREDICTED BY IDOCK:   -5.22 KCAL/MOL
REMARK 924 INTRA-LIGAND FREE ENERGY PREDICTED BY IDOCK:   -0.02 KCAL/MOL
REMARK 927      BINDING AFFINITY PREDICTED BY RF-SCORE:    0.00 PKD
ROOT
HETATM    1  C   UNL     1      -6.251  14.111  68.279  1.00  0.00    -0.117 C  
HETATM    2  C   UNL     1      -7.314  14.823  67.484  1.00  0.00    -0.225 A  
HETATM    3  C   UNL     1      -8.444  14.074  67.099  1.00  0.00    -0.207 A  
HETATM    4  C   UNL     1      -9.471  14.576  66.275  1.00  0.00    -0.310 A  
HETATM    5  C   UNL     1      -9.342  15.928  65.914  1.00  0.00    -0.318 A  
HETATM    6  C   UNL     1      -7.184  16.161  67.063  1.00  0.00    -0.256 A  
HETATM    7  C   UNL     1      -8.154  18.172  65.848  1.00  0.00    -0.002 C  
HETATM    8  H   UNL     1     -10.219  17.473  64.930  1.00  0.00     0.000 HD 
HETATM    9  C   UNL     1      -8.230  16.728  66.291  1.00  0.00    -0.359 A  
HETATM   10  O   UNL     1     -10.306  16.558  65.174  1.00  0.00    -0.618 OA 
ENDROOT
BRANCH   4  11
HETATM   11  C   UNL     1     -10.637  13.627  65.891  1.00  0.00    -0.289 C  
HETATM   12  C   UNL     1     -12.046  14.103  66.318  1.00  0.00    -0.463 C  
HETATM   13  C   UNL     1     -10.749  13.411  64.353  1.00  0.00    -0.423 C  
HETATM   14  C   UNL     1     -10.357  12.257  66.539  1.00  0.00    -0.250 C  
ENDBRANCH   4  11
BRANCH   6  15
HETATM   15  C   UNL     1      -5.912  16.940  67.363  1.00  0.00    -0.181 C  
BRANCH  15  16
HETATM   16  C   UNL     1      -6.038  18.231  68.146  1.00  0.00    -0.178 A  
HETATM   17  N   UNL     1      -6.854  18.291  69.169  1.00  0.00    -0.261 NA 
HETATM   18  C   UNL     1      -6.708  19.670  69.703  1.00  0.00    -0.305 A  
HETATM   19  H   UNL     1      -7.459  17.550  69.523  1.00  0.00     0.000 HD 
HETATM   20  C   UNL     1      -5.598  20.351  68.896  1.00  0.00    -0.291 A  
HETATM   21  N   UNL     1      -5.272  19.340  67.919  1.00  0.00    -0.171 NA 
ENDBRANCH  15  16
ENDBRANCH   6  15
TORSDOF 3
ENDMDL
MODEL       84
REMARK 921   NORMALIZED FREE ENERGY PREDICTED BY IDOCK:   -4.18 KCAL/MOL
REMARK 922        TOTAL FREE ENERGY PREDICTED BY IDOCK:   -5.24 KCAL/MOL
REMARK 923 INTER-LIGAND FREE ENERGY PREDICTED BY IDOCK:   -5.19 KCAL/MOL
REMARK 924 INTRA-LIGAND FREE ENERGY PREDICTED BY IDOCK:   -0.04 KCAL/MOL
REMARK 927      BINDING AFFINITY PREDICTED BY RF-SCORE:    0.00 PKD
ROOT
HETATM    1  C   UNL     1     -11.026  16.982  65.075  1.00  0.00     0.010 C  
HETATM    2  C   UNL     1     -10.364  15.703  65.516  1.00  0.00    -0.421 A  
HETATM    3  C   UNL     1     -10.756  14.515  64.869  1.00  0.00    -0.448 A  
HETATM    4  C   UNL     1     -10.297  13.235  65.237  1.00  0.00    -0.324 A  
HETATM    5  C   UNL     1      -9.337  13.216  66.264  1.00  0.00    -0.127 A  
HETATM    6  C   UNL     1      -9.441  15.650  66.578  1.00  0.00    -0.300 A  
HETATM    7  C   UNL     1      -7.874  14.285  68.044  1.00  0.00    -0.143 C  
HETATM    8  H   UNL     1      -8.108  12.031  67.364  1.00  0.00     0.000 HD 
HETATM    9  C   UNL     1      -8.898  14.388  66.935  1.00  0.00    -0.246 A  
HETATM   10  O   UNL     1      -8.757  12.044  66.669  1.00  0.00    -0.194 OA 
ENDROOT
BRANCH   4  11
HETATM   11  C   UNL     1     -10.846  12.005  64.467  1.00  0.00    -0.363 C  
HETATM   12  C   UNL     1     -12.203  12.221  63.755  1.00  0.00    -0.642 C  
HETATM   13  C   UNL     1      -9.886  11.529  63.338  1.00  0.00    -0.422 C  
HETATM   14  C   UNL     1     -10.993  10.849  65.477  1.00  0.00    -0.024 C  
ENDBRANCH   4  11
BRANCH   6  15
HETATM   15  C   UNL     1      -9.106  16.906  67.369  1.00  0.00    -0.221 C  
BRANCH  15  16
HETATM   16  C   UNL     1      -7.902  17.716  66.937  1.00  0.00    -0.224 A  
HETATM   17  N   UNL     1      -6.840  17.759  67.703  1.00  0.00    -0.178 NA 
HETATM   18  C   UNL     1      -5.865  18.608  66.972  1.00  0.00    -0.150 A  
HETATM   19  H   UNL     1      -6.711  17.305  68.608  1.00  0.00     0.000 HD 
HETATM   20  C   UNL     1      -6.492  18.951  65.616  1.00  0.00    -0.266 A  
HETATM   21  N   UNL     1      -7.799  18.347  65.728  1.00  0.00    -0.510 NA 
ENDBRANCH  15  16
ENDBRANCH   6  15
TORSDOF 3
ENDMDL
MODEL       85
REMARK 921   NORMALIZED FREE ENERGY PREDICTED BY IDOCK:   -4.17 KCAL/MOL
REMARK 922        TOTAL FREE ENERGY PREDICTED BY IDOCK:   -5.23 KCAL/MOL
REMARK 923 INTER-LIGAND FREE ENERGY PREDICTED BY IDOCK:   -5.39 KCAL/MOL
REMARK 924 INTRA-LIGAND FREE ENERGY PREDICTED BY IDOCK:    0.16 KCAL/MOL
REMARK 927      BINDING AFFINITY PREDICTED BY RF-SCORE:    0.00 PKD
ROOT
HETATM    1  C   UNL     1     -10.726  16.557  65.080  1.00  0.00    -0.228 C  
HETATM    2  C   UNL     1      -9.996  15.464  65.815  1.00  0.00    -0.393 A  
HETATM    3  C   UNL     1     -10.670  14.240  65.990  1.00  0.00    -0.304 A  
HETATM    4  C   UNL     1     -10.154  13.163  66.737  1.00  0.00    -0.253 A  
HETATM    5  C   UNL     1      -8.857  13.353  67.245  1.00  0.00    -0.220 A  
HETATM    6  C   UNL     1      -8.719  15.648  66.380  1.00  0.00    -0.354 A  
HETATM    7  C   UNL     1      -6.745  14.698  67.672  1.00  0.00    -0.196 C  
HETATM    8  H   UNL     1      -7.335  12.487  68.272  1.00  0.00     0.000 HD 
HETATM    9  C   UNL     1      -8.131  14.563  67.080  1.00  0.00    -0.125 A  
HETATM   10  O   UNL     1      -8.211  12.359  67.929  1.00  0.00    -0.141 OA 
ENDROOT
BRANCH   4  11
HETATM   11  C   UNL     1     -11.024  11.887  66.888  1.00  0.00    -0.335 C  
HETATM   12  C   UNL     1     -10.273  10.547  66.702  1.00  0.00    -0.289 C  
HETATM   13  C   UNL     1     -11.678  11.773  68.296  1.00  0.00    -0.377 C  
HETATM   14  C   UNL     1     -12.159  11.970  65.848  1.00  0.00     0.029 C  
ENDBRANCH   4  11
BRANCH   6  15
HETATM   15  C   UNL     1      -8.035  17.005  66.308  1.00  0.00    -0.343 C  
BRANCH  15  16
HETATM   16  C   UNL     1      -8.795  18.211  66.820  1.00  0.00    -0.264 A  
HETATM   17  N   UNL     1      -8.921  19.269  66.058  1.00  0.00    -0.442 NA 
HETATM   18  C   UNL     1      -9.728  20.229  66.854  1.00  0.00    -0.444 A  
HETATM   19  H   UNL     1      -8.545  19.404  65.119  1.00  0.00     0.000 HD 
HETATM   20  C   UNL     1     -10.141  19.511  68.144  1.00  0.00    -0.429 A  
HETATM   21  N   UNL     1      -9.461  18.244  68.013  1.00  0.00    -0.281 NA 
ENDBRANCH  15  16
ENDBRANCH   6  15
TORSDOF 3
ENDMDL
MODEL       86
REMARK 921   NORMALIZED FREE ENERGY PREDICTED BY IDOCK:   -4.17 KCAL/MOL
REMARK 922        TOTAL FREE ENERGY PREDICTED BY IDOCK:   -5.22 KCAL/MOL
REMARK 923 INTER-LIGAND FREE ENERGY PREDICTED BY IDOCK:   -4.96 KCAL/MOL
REMARK 924 INTRA-LIGAND FREE ENERGY PREDICTED BY IDOCK:   -0.26 KCAL/MOL
REMARK 927      BINDING AFFINITY PREDICTED BY RF-SCORE:    0.00 PKD
ROOT
HETATM    1  C   UNL     1      -7.424  13.422  68.413  1.00  0.00    -0.117 C  
HETATM    2  C   UNL     1      -8.135  14.493  67.627  1.00  0.00    -0.190 A  
HETATM    3  C   UNL     1      -7.512  15.753  67.543  1.00  0.00    -0.198 A  
HETATM    4  C   UNL     1      -8.098  16.876  66.926  1.00  0.00    -0.251 A  
HETATM    5  C   UNL     1      -9.341  16.641  66.312  1.00  0.00    -0.292 A  
HETATM    6  C   UNL     1      -9.404  14.299  67.049  1.00  0.00    -0.249 A  
HETATM    7  C   UNL     1     -11.345  15.213  65.685  1.00  0.00    -0.255 C  
HETATM    8  H   UNL     1     -10.825  17.470  65.202  1.00  0.00     0.000 HD 
HETATM    9  C   UNL     1     -10.000  15.383  66.355  1.00  0.00    -0.295 A  
HETATM   10  O   UNL     1      -9.985  17.629  65.617  1.00  0.00    -0.558 OA 
ENDROOT
BRANCH   4  11
HETATM   11  C   UNL     1      -7.320  18.218  66.945  1.00  0.00    -0.229 C  
HETATM   12  C   UNL     1      -8.181  19.480  67.191  1.00  0.00    -0.308 C  
HETATM   13  C   UNL     1      -6.236  18.264  68.061  1.00  0.00    -0.181 C  
HETATM   14  C   UNL     1      -6.603  18.361  65.588  1.00  0.00    -0.313 C  
ENDBRANCH   4  11
BRANCH   6  15
HETATM   15  C   UNL     1     -10.143  12.983  67.242  1.00  0.00    -0.235 C  
BRANCH  15  16
HETATM   16  C   UNL     1      -9.873  11.866  66.256  1.00  0.00    -0.225 A  
HETATM   17  N   UNL     1      -9.895  12.116  64.970  1.00  0.00    -0.395 NA 
HETATM   18  C   UNL     1      -9.570  10.823  64.315  1.00  0.00    -0.283 A  
HETATM   19  H   UNL     1     -10.093  13.008  64.516  1.00  0.00     0.000 HD 
HETATM   20  C   UNL     1      -9.245   9.822  65.429  1.00  0.00    -0.227 A  
HETATM   21  N   UNL     1      -9.501  10.601  66.618  1.00  0.00    -0.165 NA 
ENDBRANCH  15  16
ENDBRANCH   6  15
TORSDOF 3
ENDMDL
MODEL       87
REMARK 921   NORMALIZED FREE ENERGY PREDICTED BY IDOCK:   -4.15 KCAL/MOL
REMARK 922        TOTAL FREE ENERGY PREDICTED BY IDOCK:   -5.21 KCAL/MOL
REMARK 923 INTER-LIGAND FREE ENERGY PREDICTED BY IDOCK:   -5.24 KCAL/MOL
REMARK 924 INTRA-LIGAND FREE ENERGY PREDICTED BY IDOCK:    0.03 KCAL/MOL
REMARK 927      BINDING AFFINITY PREDICTED BY RF-SCORE:    0.00 PKD
ROOT
HETATM    1  C   UNL     1      -9.715  15.173  65.801  1.00  0.00    -0.379 C  
HETATM    2  C   UNL     1     -10.286  14.704  67.114  1.00  0.00    -0.256 A  
HETATM    3  C   UNL     1     -10.291  13.317  67.358  1.00  0.00    -0.243 A  
HETATM    4  C   UNL     1     -10.877  12.725  68.495  1.00  0.00    -0.279 A  
HETATM    5  C   UNL     1     -11.399  13.627  69.438  1.00  0.00    -0.245 A  
HETATM    6  C   UNL     1     -10.864  15.582  68.051  1.00  0.00    -0.300 A  
HETATM    7  C   UNL     1     -11.998  15.940  70.298  1.00  0.00    -0.324 C  
HETATM    8  H   UNL     1     -12.286  13.796  71.256  1.00  0.00     0.000 HD 
HETATM    9  C   UNL     1     -11.401  15.034  69.244  1.00  0.00    -0.311 A  
HETATM   10  O   UNL     1     -11.932  13.187  70.619  1.00  0.00    -0.308 OA 
ENDROOT
BRANCH   4  11
HETATM   11  C   UNL     1     -10.852  11.178  68.615  1.00  0.00    -0.251 C  
HETATM   12  C   UNL     1     -11.929  10.569  69.545  1.00  0.00    -0.258 C  
HETATM   13  C   UNL     1     -11.072  10.469  67.248  1.00  0.00    -0.284 C  
HETATM   14  C   UNL     1      -9.459  10.773  69.136  1.00  0.00    -0.151 C  
ENDBRANCH   4  11
BRANCH   6  15
HETATM   15  C   UNL     1     -10.979  17.067  67.742  1.00  0.00    -0.199 C  
BRANCH  15  16
HETATM   16  C   UNL     1      -9.707  17.889  67.724  1.00  0.00    -0.283 A  
HETATM   17  N   UNL     1      -8.819  17.732  68.674  1.00  0.00    -0.287 NA 
HETATM   18  C   UNL     1      -7.711  18.661  68.332  1.00  0.00    -0.306 A  
HETATM   19  H   UNL     1      -8.877  17.105  69.477  1.00  0.00     0.000 HD 
HETATM   20  C   UNL     1      -8.053  19.290  66.976  1.00  0.00    -0.263 A  
HETATM   21  N   UNL     1      -9.360  18.738  66.709  1.00  0.00    -0.307 NA 
ENDBRANCH  15  16
ENDBRANCH   6  15
TORSDOF 3
ENDMDL
MODEL       88
REMARK 921   NORMALIZED FREE ENERGY PREDICTED BY IDOCK:   -4.14 KCAL/MOL
REMARK 922        TOTAL FREE ENERGY PREDICTED BY IDOCK:   -5.19 KCAL/MOL
REMARK 923 INTER-LIGAND FREE ENERGY PREDICTED BY IDOCK:   -4.79 KCAL/MOL
REMARK 924 INTRA-LIGAND FREE ENERGY PREDICTED BY IDOCK:   -0.40 KCAL/MOL
REMARK 927      BINDING AFFINITY PREDICTED BY RF-SCORE:    0.00 PKD
ROOT
HETATM    1  C   UNL     1     -10.723   5.915  67.158  1.00  0.00    -0.387 C  
HETATM    2  C   UNL     1     -10.719   7.292  67.769  1.00  0.00    -0.267 A  
HETATM    3  C   UNL     1     -10.460   8.379  66.911  1.00  0.00    -0.359 A  
HETATM    4  C   UNL     1     -10.330   9.710  67.354  1.00  0.00    -0.306 A  
HETATM    5  C   UNL     1     -10.558   9.910  68.727  1.00  0.00    -0.222 A  
HETATM    6  C   UNL     1     -10.890   7.514  69.149  1.00  0.00    -0.105 A  
HETATM    7  C   UNL     1     -11.054   9.141  71.096  1.00  0.00    -0.393 C  
HETATM    8  H   UNL     1     -10.685  11.300  70.201  1.00  0.00     0.000 HD 
HETATM    9  C   UNL     1     -10.838   8.848  69.627  1.00  0.00    -0.186 A  
HETATM   10  O   UNL     1     -10.532  11.165  69.273  1.00  0.00    -0.214 OA 
ENDROOT
BRANCH   4  11
HETATM   11  C   UNL     1      -9.999  10.806  66.306  1.00  0.00    -0.272 C  
HETATM   12  C   UNL     1     -11.098  11.874  66.095  1.00  0.00    -0.374 C  
HETATM   13  C   UNL     1      -8.729  11.625  66.679  1.00  0.00    -0.187 C  
HETATM   14  C   UNL     1      -9.726  10.101  64.963  1.00  0.00    -0.384 C  
ENDBRANCH   4  11
BRANCH   6  15
HETATM   15  C   UNL     1     -11.042   6.338  70.103  1.00  0.00    -0.443 C  
BRANCH  15  16
HETATM   16  C   UNL     1      -9.782   5.644  70.580  1.00  0.00    -0.180 A  
HETATM   17  N   UNL     1      -9.798   4.353  70.803  1.00  0.00    -0.203 NA 
HETATM   18  C   UNL     1      -8.416   4.013  71.227  1.00  0.00    -0.081 A  
HETATM   19  H   UNL     1     -10.591   3.718  70.706  1.00  0.00     0.000 HD 
HETATM   20  C   UNL     1      -7.578   5.291  71.100  1.00  0.00    -0.096 A  
HETATM   21  N   UNL     1      -8.570   6.263  70.705  1.00  0.00    -0.134 NA 
ENDBRANCH  15  16
ENDBRANCH   6  15
TORSDOF 3
ENDMDL
MODEL       89
REMARK 921   NORMALIZED FREE ENERGY PREDICTED BY IDOCK:   -4.14 KCAL/MOL
REMARK 922        TOTAL FREE ENERGY PREDICTED BY IDOCK:   -5.19 KCAL/MOL
REMARK 923 INTER-LIGAND FREE ENERGY PREDICTED BY IDOCK:   -4.83 KCAL/MOL
REMARK 924 INTRA-LIGAND FREE ENERGY PREDICTED BY IDOCK:   -0.36 KCAL/MOL
REMARK 927      BINDING AFFINITY PREDICTED BY RF-SCORE:    0.00 PKD
ROOT
HETATM    1  C   UNL     1      -8.008  10.503  67.368  1.00  0.00    -0.110 C  
HETATM    2  C   UNL     1      -8.828  11.476  66.562  1.00  0.00    -0.190 A  
HETATM    3  C   UNL     1      -8.900  12.803  67.029  1.00  0.00    -0.213 A  
HETATM    4  C   UNL     1      -9.703  13.799  66.437  1.00  0.00    -0.304 A  
HETATM    5  C   UNL     1     -10.385  13.403  65.273  1.00  0.00    -0.319 A  
HETATM    6  C   UNL     1      -9.565  11.094  65.424  1.00  0.00    -0.266 A  
HETATM    7  C   UNL     1     -11.107  11.729  63.505  1.00  0.00    -0.503 C  
HETATM    8  H   UNL     1     -11.604  14.026  63.774  1.00  0.00     0.000 HD 
HETATM    9  C   UNL     1     -10.330  12.082  64.754  1.00  0.00    -0.318 A  
HETATM   10  O   UNL     1     -11.143  14.293  64.560  1.00  0.00    -0.371 OA 
ENDROOT
BRANCH   4  11
HETATM   11  C   UNL     1      -9.723  15.210  67.082  1.00  0.00    -0.230 C  
HETATM   12  C   UNL     1      -9.174  16.352  66.195  1.00  0.00    -0.365 C  
HETATM   13  C   UNL     1     -11.160  15.671  67.464  1.00  0.00    -0.289 C  
HETATM   14  C   UNL     1      -8.892  15.142  68.378  1.00  0.00    -0.174 C  
ENDBRANCH   4  11
BRANCH   6  15
HETATM   15  C   UNL     1      -9.597   9.638  64.984  1.00  0.00    -0.284 C  
BRANCH  15  16
HETATM   16  C   UNL     1      -8.488   9.145  64.077  1.00  0.00    -0.184 A  
HETATM   17  N   UNL     1      -8.618   7.998  63.459  1.00  0.00    -0.380 NA 
HETATM   18  C   UNL     1      -7.379   7.846  62.653  1.00  0.00    -0.101 A  
HETATM   19  H   UNL     1      -9.403   7.348  63.517  1.00  0.00     0.000 HD 
HETATM   20  C   UNL     1      -6.572   9.138  62.819  1.00  0.00    -0.093 A  
HETATM   21  N   UNL     1      -7.373   9.873  63.771  1.00  0.00    -0.127 NA 
ENDBRANCH  15  16
ENDBRANCH   6  15
TORSDOF 3
ENDMDL
MODEL       90
REMARK 921   NORMALIZED FREE ENERGY PREDICTED BY IDOCK:   -4.13 KCAL/MOL
REMARK 922        TOTAL FREE ENERGY PREDICTED BY IDOCK:   -5.18 KCAL/MOL
REMARK 923 INTER-LIGAND FREE ENERGY PREDICTED BY IDOCK:   -4.96 KCAL/MOL
REMARK 924 INTRA-LIGAND FREE ENERGY PREDICTED BY IDOCK:   -0.22 KCAL/MOL
REMARK 927      BINDING AFFINITY PREDICTED BY RF-SCORE:    0.00 PKD
ROOT
HETATM    1  C   UNL     1     -10.677  12.922  66.612  1.00  0.00    -0.280 C  
HETATM    2  C   UNL     1     -11.208  12.782  68.014  1.00  0.00    -0.310 A  
HETATM    3  C   UNL     1     -11.145  11.505  68.605  1.00  0.00    -0.291 A  
HETATM    4  C   UNL     1     -11.687  11.201  69.870  1.00  0.00    -0.433 A  
HETATM    5  C   UNL     1     -12.240  12.292  70.563  1.00  0.00    -0.300 A  
HETATM    6  C   UNL     1     -11.816  13.846  68.709  1.00  0.00    -0.396 A  
HETATM    7  C   UNL     1     -12.938  14.721  70.816  1.00  0.00    -0.407 C  
HETATM    8  H   UNL     1     -13.111  12.885  72.298  1.00  0.00     0.000 HD 
HETATM    9  C   UNL     1     -12.311  13.601  70.015  1.00  0.00    -0.342 A  
HETATM   10  O   UNL     1     -12.737  12.147  71.830  1.00  0.00    -0.267 OA 
ENDROOT
BRANCH   4  11
HETATM   11  C   UNL     1     -11.587   9.739  70.382  1.00  0.00    -0.327 C  
HETATM   12  C   UNL     1     -11.096   8.705  69.341  1.00  0.00     0.068 C  
HETATM   13  C   UNL     1     -10.598   9.591  71.575  1.00  0.00    -0.219 C  
HETATM   14  C   UNL     1     -12.986   9.321  70.876  1.00  0.00    -0.070 C  
ENDBRANCH   4  11
BRANCH   6  15
HETATM   15  C   UNL     1     -12.005  15.196  68.033  1.00  0.00    -0.112 C  
BRANCH  15  16
HETATM   16  C   UNL     1     -10.851  16.176  68.070  1.00  0.00    -0.333 A  
HETATM   17  N   UNL     1     -10.594  16.915  67.019  1.00  0.00    -0.276 NA 
HETATM   18  C   UNL     1      -9.436  17.760  67.410  1.00  0.00    -0.254 A  
HETATM   19  H   UNL     1     -11.084  16.911  66.125  1.00  0.00     0.000 HD 
HETATM   20  C   UNL     1      -9.144  17.470  68.886  1.00  0.00    -0.148 A  
HETATM   21  N   UNL     1     -10.096  16.425  69.182  1.00  0.00    -0.264 NA 
ENDBRANCH  15  16
ENDBRANCH   6  15
TORSDOF 3
ENDMDL
MODEL       91
REMARK 921   NORMALIZED FREE ENERGY PREDICTED BY IDOCK:   -4.11 KCAL/MOL
REMARK 922        TOTAL FREE ENERGY PREDICTED BY IDOCK:   -5.16 KCAL/MOL
REMARK 923 INTER-LIGAND FREE ENERGY PREDICTED BY IDOCK:   -4.83 KCAL/MOL
REMARK 924 INTRA-LIGAND FREE ENERGY PREDICTED BY IDOCK:   -0.33 KCAL/MOL
REMARK 927      BINDING AFFINITY PREDICTED BY RF-SCORE:    0.00 PKD
ROOT
HETATM    1  C   UNL     1      -9.880   8.442  66.882  1.00  0.00    -0.313 C  
HETATM    2  C   UNL     1     -10.154   7.509  68.033  1.00  0.00    -0.221 A  
HETATM    3  C   UNL     1     -10.852   8.034  69.138  1.00  0.00    -0.038 A  
HETATM    4  C   UNL     1     -11.097   7.312  70.323  1.00  0.00    -0.289 A  
HETATM    5  C   UNL     1     -10.664   5.974  70.309  1.00  0.00    -0.300 A  
HETATM    6  C   UNL     1      -9.684   6.182  68.067  1.00  0.00    -0.122 A  
HETATM    7  C   UNL     1      -9.521   3.954  69.279  1.00  0.00    -0.256 C  
HETATM    8  H   UNL     1     -10.609   4.238  71.360  1.00  0.00     0.000 HD 
HETATM    9  C   UNL     1      -9.971   5.396  69.212  1.00  0.00    -0.277 A  
HETATM   10  O   UNL     1     -10.902   5.142  71.369  1.00  0.00    -0.144 OA 
ENDROOT
BRANCH   4  11
HETATM   11  C   UNL     1     -11.839   8.028  71.483  1.00  0.00    -0.328 C  
HETATM   12  C   UNL     1     -11.179   7.892  72.875  1.00  0.00    -0.429 C  
HETATM   13  C   UNL     1     -11.959   9.563  71.257  1.00  0.00    -0.445 C  
HETATM   14  C   UNL     1     -13.266   7.450  71.550  1.00  0.00    -0.426 C  
ENDBRANCH   4  11
BRANCH   6  15
HETATM   15  C   UNL     1      -8.820   5.645  66.936  1.00  0.00    -0.113 C  
BRANCH  15  16
HETATM   16  C   UNL     1      -9.509   4.906  65.806  1.00  0.00    -0.164 A  
HETATM   17  N   UNL     1     -10.814   4.791  65.807  1.00  0.00    -0.779 NA 
HETATM   18  C   UNL     1     -11.141   4.046  64.565  1.00  0.00     0.123 A  
HETATM   19  H   UNL     1     -11.465   5.140  66.510  1.00  0.00     0.000 HD 
HETATM   20  C   UNL     1      -9.829   3.852  63.796  1.00  0.00    -0.168 A  
HETATM   21  N   UNL     1      -8.861   4.421  64.704  1.00  0.00    -0.141 NA 
ENDBRANCH  15  16
ENDBRANCH   6  15
TORSDOF 3
ENDMDL
MODEL       92
REMARK 921   NORMALIZED FREE ENERGY PREDICTED BY IDOCK:   -4.10 KCAL/MOL
REMARK 922        TOTAL FREE ENERGY PREDICTED BY IDOCK:   -5.14 KCAL/MOL
REMARK 923 INTER-LIGAND FREE ENERGY PREDICTED BY IDOCK:   -4.82 KCAL/MOL
REMARK 924 INTRA-LIGAND FREE ENERGY PREDICTED BY IDOCK:   -0.32 KCAL/MOL
REMARK 927      BINDING AFFINITY PREDICTED BY RF-SCORE:    0.00 PKD
ROOT
HETATM    1  C   UNL     1     -11.932   8.742  71.865  1.00  0.00    -0.435 C  
HETATM    2  C   UNL     1     -11.433   8.926  70.456  1.00  0.00    -0.231 A  
HETATM    3  C   UNL     1     -11.333  10.245  69.972  1.00  0.00    -0.370 A  
HETATM    4  C   UNL     1     -10.975  10.568  68.648  1.00  0.00    -0.294 A  
HETATM    5  C   UNL     1     -10.637   9.472  67.835  1.00  0.00    -0.244 A  
HETATM    6  C   UNL     1     -11.140   7.843  69.604  1.00  0.00    -0.033 A  
HETATM    7  C   UNL     1     -10.343   6.998  67.342  1.00  0.00    -0.313 C  
HETATM    8  H   UNL     1      -9.975   8.911  66.000  1.00  0.00     0.000 HD 
HETATM    9  C   UNL     1     -10.706   8.125  68.283  1.00  0.00    -0.073 A  
HETATM   10  O   UNL     1     -10.204   9.652  66.549  1.00  0.00    -0.239 OA 
ENDROOT
BRANCH   4  11
HETATM   11  C   UNL     1     -10.948  12.064  68.236  1.00  0.00    -0.275 C  
HETATM   12  C   UNL     1     -11.686  12.401  66.919  1.00  0.00    -0.432 C  
HETATM   13  C   UNL     1     -11.608  12.988  69.300  1.00  0.00    -0.367 C  
HETATM   14  C   UNL     1      -9.471  12.483  68.100  1.00  0.00    -0.214 C  
ENDBRANCH   4  11
BRANCH   6  15
HETATM   15  C   UNL     1     -11.367   6.414  70.072  1.00  0.00    -0.496 C  
BRANCH  15  16
HETATM   16  C   UNL     1     -10.215   5.696  70.744  1.00  0.00    -0.227 A  
HETATM   17  N   UNL     1      -9.975   4.441  70.454  1.00  0.00    -0.214 NA 
HETATM   18  C   UNL     1      -8.784   4.074  71.263  1.00  0.00    -0.090 A  
HETATM   19  H   UNL     1     -10.495   3.844  69.810  1.00  0.00     0.000 HD 
HETATM   20  C   UNL     1      -8.312   5.348  71.973  1.00  0.00    -0.122 A  
HETATM   21  N   UNL     1      -9.322   6.303  71.583  1.00  0.00    -0.148 NA 
ENDBRANCH  15  16
ENDBRANCH   6  15
TORSDOF 3
ENDMDL
MODEL       93
REMARK 921   NORMALIZED FREE ENERGY PREDICTED BY IDOCK:   -4.08 KCAL/MOL
REMARK 922        TOTAL FREE ENERGY PREDICTED BY IDOCK:   -5.12 KCAL/MOL
REMARK 923 INTER-LIGAND FREE ENERGY PREDICTED BY IDOCK:   -4.91 KCAL/MOL
REMARK 924 INTRA-LIGAND FREE ENERGY PREDICTED BY IDOCK:   -0.20 KCAL/MOL
REMARK 927      BINDING AFFINITY PREDICTED BY RF-SCORE:    0.00 PKD
ROOT
HETATM    1  C   UNL     1     -11.030   6.154  69.243  1.00  0.00    -0.450 C  
HETATM    2  C   UNL     1     -10.368   5.964  70.583  1.00  0.00    -0.296 A  
HETATM    3  C   UNL     1     -10.313   4.654  71.097  1.00  0.00    -0.142 A  
HETATM    4  C   UNL     1      -9.813   4.335  72.375  1.00  0.00    -0.217 A  
HETATM    5  C   UNL     1      -9.283   5.418  73.097  1.00  0.00    -0.132 A  
HETATM    6  C   UNL     1      -9.879   7.039  71.351  1.00  0.00    -0.180 A  
HETATM    7  C   UNL     1      -8.727   7.870  73.459  1.00  0.00    -0.321 C  
HETATM    8  H   UNL     1      -8.344   5.967  74.812  1.00  0.00     0.000 HD 
HETATM    9  C   UNL     1      -9.301   6.754  72.614  1.00  0.00    -0.152 A  
HETATM   10  O   UNL     1      -8.702   5.235  74.323  1.00  0.00    -0.116 OA 
ENDROOT
BRANCH   4  11
HETATM   11  C   UNL     1      -9.853   2.853  72.834  1.00  0.00    -0.187 C  
HETATM   12  C   UNL     1     -10.072   1.817  71.706  1.00  0.00    -0.195 C  
HETATM   13  C   UNL     1      -8.531   2.405  73.522  1.00  0.00    -0.063 C  
HETATM   14  C   UNL     1     -10.990   2.715  73.865  1.00  0.00    -0.282 C  
ENDBRANCH   4  11
BRANCH   6  15
HETATM   15  C   UNL     1     -10.048   8.470  70.864  1.00  0.00    -0.246 C  
BRANCH  15  16
HETATM   16  C   UNL     1     -11.286   9.226  71.301  1.00  0.00    -0.355 A  
HETATM   17  N   UNL     1     -11.563  10.386  70.758  1.00  0.00    -0.349 NA 
HETATM   18  C   UNL     1     -12.833  10.822  71.393  1.00  0.00    -0.452 A  
HETATM   19  H   UNL     1     -11.022  10.883  70.050  1.00  0.00     0.000 HD 
HETATM   20  C   UNL     1     -13.299   9.677  72.300  1.00  0.00    -0.408 A  
HETATM   21  N   UNL     1     -12.214   8.732  72.174  1.00  0.00    -0.370 NA 
ENDBRANCH  15  16
ENDBRANCH   6  15
TORSDOF 3
ENDMDL
MODEL       94
REMARK 921   NORMALIZED FREE ENERGY PREDICTED BY IDOCK:   -4.07 KCAL/MOL
REMARK 922        TOTAL FREE ENERGY PREDICTED BY IDOCK:   -5.12 KCAL/MOL
REMARK 923 INTER-LIGAND FREE ENERGY PREDICTED BY IDOCK:   -4.84 KCAL/MOL
REMARK 924 INTRA-LIGAND FREE ENERGY PREDICTED BY IDOCK:   -0.28 KCAL/MOL
REMARK 927      BINDING AFFINITY PREDICTED BY RF-SCORE:    0.00 PKD
ROOT
HETATM    1  C   UNL     1     -11.877  14.650  67.274  1.00  0.00    -0.375 C  
HETATM    2  C   UNL     1     -10.671  15.451  67.688  1.00  0.00    -0.292 A  
HETATM    3  C   UNL     1     -10.612  16.795  67.269  1.00  0.00    -0.275 A  
HETATM    4  C   UNL     1      -9.506  17.637  67.497  1.00  0.00    -0.256 A  
HETATM    5  C   UNL     1      -8.468  17.071  68.257  1.00  0.00    -0.233 A  
HETATM    6  C   UNL     1      -9.593  14.892  68.403  1.00  0.00    -0.209 A  
HETATM    7  C   UNL     1      -7.326  15.183  69.515  1.00  0.00    -0.210 C  
HETATM    8  H   UNL     1      -6.666  17.421  69.125  1.00  0.00     0.000 HD 
HETATM    9  C   UNL     1      -8.489  15.727  68.717  1.00  0.00    -0.198 A  
HETATM   10  O   UNL     1      -7.367  17.804  68.611  1.00  0.00    -0.252 OA 
ENDROOT
BRANCH   4  11
HETATM   11  C   UNL     1      -9.554  19.085  66.940  1.00  0.00    -0.364 C  
HETATM   12  C   UNL     1      -8.229  19.607  66.337  1.00  0.00    -0.356 C  
HETATM   13  C   UNL     1     -10.594  19.248  65.793  1.00  0.00    -0.450 C  
HETATM   14  C   UNL     1      -9.977  20.015  68.093  1.00  0.00    -0.533 C  
ENDBRANCH   4  11
BRANCH   6  15
HETATM   15  C   UNL     1      -9.587  13.411  68.750  1.00  0.00     0.035 C  
BRANCH  15  16
HETATM   16  C   UNL     1      -9.120  12.436  67.689  1.00  0.00    -0.186 A  
HETATM   17  N   UNL     1      -7.842  12.172  67.568  1.00  0.00    -0.151 NA 
HETATM   18  C   UNL     1      -7.751  11.178  66.468  1.00  0.00    -0.146 A  
HETATM   19  H   UNL     1      -7.075  12.566  68.113  1.00  0.00     0.000 HD 
HETATM   20  C   UNL     1      -9.185  10.828  66.056  1.00  0.00    -0.187 A  
HETATM   21  N   UNL     1      -9.962  11.716  66.889  1.00  0.00    -0.200 NA 
ENDBRANCH  15  16
ENDBRANCH   6  15
TORSDOF 3
ENDMDL
MODEL       95
REMARK 921   NORMALIZED FREE ENERGY PREDICTED BY IDOCK:   -4.07 KCAL/MOL
REMARK 922        TOTAL FREE ENERGY PREDICTED BY IDOCK:   -5.11 KCAL/MOL
REMARK 923 INTER-LIGAND FREE ENERGY PREDICTED BY IDOCK:   -4.78 KCAL/MOL
REMARK 924 INTRA-LIGAND FREE ENERGY PREDICTED BY IDOCK:   -0.33 KCAL/MOL
REMARK 927      BINDING AFFINITY PREDICTED BY RF-SCORE:    0.00 PKD
ROOT
HETATM    1  C   UNL     1      -9.958  17.517  65.761  1.00  0.00    -0.060 C  
HETATM    2  C   UNL     1      -9.505  16.187  66.304  1.00  0.00    -0.347 A  
HETATM    3  C   UNL     1     -10.485  15.188  66.466  1.00  0.00    -0.292 A  
HETATM    4  C   UNL     1     -10.231  13.932  67.050  1.00  0.00    -0.254 A  
HETATM    5  C   UNL     1      -8.891  13.693  67.399  1.00  0.00    -0.221 A  
HETATM    6  C   UNL     1      -8.180  15.941  66.712  1.00  0.00    -0.307 A  
HETATM    7  C   UNL     1      -6.447  14.338  67.655  1.00  0.00    -0.151 C  
HETATM    8  H   UNL     1      -7.590  12.325  68.146  1.00  0.00     0.000 HD 
HETATM    9  C   UNL     1      -7.865  14.663  67.239  1.00  0.00    -0.213 A  
HETATM   10  O   UNL     1      -8.496  12.486  67.910  1.00  0.00    -0.151 OA 
ENDROOT
BRANCH   4  11
HETATM   11  C   UNL     1     -11.415  12.940  67.209  1.00  0.00    -0.388 C  
HETATM   12  C   UNL     1     -11.146  11.502  66.704  1.00  0.00    -0.355 C  
HETATM   13  C   UNL     1     -11.844  12.757  68.694  1.00  0.00    -0.341 C  
HETATM   14  C   UNL     1     -12.617  13.521  66.440  1.00  0.00    -0.244 C  
ENDBRANCH   4  11
BRANCH   6  15
HETATM   15  C   UNL     1      -7.142  17.053  66.661  1.00  0.00    -0.289 C  
BRANCH  15  16
HETATM   16  C   UNL     1      -6.940  17.892  67.906  1.00  0.00    -0.205 A  
HETATM   17  N   UNL     1      -5.938  17.631  68.708  1.00  0.00    -0.172 NA 
HETATM   18  C   UNL     1      -6.030  18.645  69.790  1.00  0.00    -0.249 A  
HETATM   19  H   UNL     1      -5.244  16.890  68.611  1.00  0.00     0.000 HD 
HETATM   20  C   UNL     1      -7.172  19.598  69.420  1.00  0.00    -0.245 A  
HETATM   21  N   UNL     1      -7.688  18.994  68.214  1.00  0.00    -0.299 NA 
ENDBRANCH  15  16
ENDBRANCH   6  15
TORSDOF 3
ENDMDL
MODEL       96
REMARK 921   NORMALIZED FREE ENERGY PREDICTED BY IDOCK:   -4.06 KCAL/MOL
REMARK 922        TOTAL FREE ENERGY PREDICTED BY IDOCK:   -5.09 KCAL/MOL
REMARK 923 INTER-LIGAND FREE ENERGY PREDICTED BY IDOCK:   -5.09 KCAL/MOL
REMARK 924 INTRA-LIGAND FREE ENERGY PREDICTED BY IDOCK:   -0.00 KCAL/MOL
REMARK 927      BINDING AFFINITY PREDICTED BY RF-SCORE:    0.00 PKD
ROOT
HETATM    1  C   UNL     1     -10.170  14.845  65.359  1.00  0.00    -0.409 C  
HETATM    2  C   UNL     1     -10.374  13.917  66.527  1.00  0.00    -0.286 A  
HETATM    3  C   UNL     1     -10.007  12.568  66.354  1.00  0.00    -0.262 A  
HETATM    4  C   UNL     1     -10.227  11.567  67.321  1.00  0.00    -0.229 A  
HETATM    5  C   UNL     1     -10.776  12.017  68.534  1.00  0.00    -0.234 A  
HETATM    6  C   UNL     1     -10.973  14.330  67.733  1.00  0.00    -0.275 A  
HETATM    7  C   UNL     1     -11.750  13.773  70.089  1.00  0.00    -0.303 C  
HETATM    8  H   UNL     1     -11.347  11.463  70.402  1.00  0.00     0.000 HD 
HETATM    9  C   UNL     1     -11.147  13.369  68.762  1.00  0.00    -0.297 A  
HETATM   10  O   UNL     1     -10.975  11.159  69.582  1.00  0.00    -0.244 OA 
ENDROOT
BRANCH   4  11
HETATM   11  C   UNL     1      -9.813  10.110  66.981  1.00  0.00    -0.238 C  
HETATM   12  C   UNL     1      -9.618   9.812  65.475  1.00  0.00    -0.348 C  
HETATM   13  C   UNL     1      -8.461   9.706  67.636  1.00  0.00    -0.125 C  
HETATM   14  C   UNL     1     -10.904   9.174  67.537  1.00  0.00    -0.151 C  
ENDBRANCH   4  11
BRANCH   6  15
HETATM   15  C   UNL     1     -11.490  15.753  67.886  1.00  0.00    -0.221 C  
BRANCH  15  16
HETATM   16  C   UNL     1     -10.478  16.855  68.121  1.00  0.00    -0.350 A  
HETATM   17  N   UNL     1     -10.865  18.106  68.099  1.00  0.00    -0.261 NA 
HETATM   18  C   UNL     1      -9.642  18.899  68.387  1.00  0.00    -0.369 A  
HETATM   19  H   UNL     1     -11.806  18.460  67.923  1.00  0.00     0.000 HD 
HETATM   20  C   UNL     1      -8.519  17.900  68.690  1.00  0.00    -0.266 A  
HETATM   21  N   UNL     1      -9.173  16.633  68.461  1.00  0.00    -0.226 NA 
ENDBRANCH  15  16
ENDBRANCH   6  15
TORSDOF 3
ENDMDL
MODEL       97
REMARK 921   NORMALIZED FREE ENERGY PREDICTED BY IDOCK:   -4.06 KCAL/MOL
REMARK 922        TOTAL FREE ENERGY PREDICTED BY IDOCK:   -5.09 KCAL/MOL
REMARK 923 INTER-LIGAND FREE ENERGY PREDICTED BY IDOCK:   -4.84 KCAL/MOL
REMARK 924 INTRA-LIGAND FREE ENERGY PREDICTED BY IDOCK:   -0.25 KCAL/MOL
REMARK 927      BINDING AFFINITY PREDICTED BY RF-SCORE:    0.00 PKD
ROOT
HETATM    1  C   UNL     1     -11.107  10.936  68.986  1.00  0.00    -0.302 C  
HETATM    2  C   UNL     1     -10.524  10.486  67.672  1.00  0.00    -0.276 A  
HETATM    3  C   UNL     1      -9.628   9.399  67.700  1.00  0.00    -0.163 A  
HETATM    4  C   UNL     1      -8.932   8.930  66.569  1.00  0.00    -0.187 A  
HETATM    5  C   UNL     1      -9.251   9.573  65.360  1.00  0.00    -0.247 A  
HETATM    6  C   UNL     1     -10.784  11.147  66.456  1.00  0.00    -0.314 A  
HETATM    7  C   UNL     1     -10.438  11.314  63.943  1.00  0.00    -0.452 C  
HETATM    8  H   UNL     1      -8.914   9.602  63.358  1.00  0.00     0.000 HD 
HETATM    9  C   UNL     1     -10.160  10.662  65.279  1.00  0.00    -0.363 A  
HETATM   10  O   UNL     1      -8.699   9.167  64.175  1.00  0.00    -0.198 OA 
ENDROOT
BRANCH   4  11
HETATM   11  C   UNL     1      -7.939   7.751  66.751  1.00  0.00    -0.107 C  
HETATM   12  C   UNL     1      -7.927   7.107  68.157  1.00  0.00    -0.119 C  
HETATM   13  C   UNL     1      -8.234   6.567  65.784  1.00  0.00    -0.135 C  
HETATM   14  C   UNL     1      -6.526   8.277  66.432  1.00  0.00    -0.054 C  
ENDBRANCH   4  11
BRANCH   6  15
HETATM   15  C   UNL     1     -11.648  12.399  66.433  1.00  0.00    -0.442 C  
BRANCH  15  16
HETATM   16  C   UNL     1     -10.949  13.742  66.373  1.00  0.00    -0.298 A  
HETATM   17  N   UNL     1     -10.134  14.092  67.337  1.00  0.00    -0.239 NA 
HETATM   18  C   UNL     1      -9.620  15.431  66.947  1.00  0.00    -0.226 A  
HETATM   19  H   UNL     1      -9.902  13.560  68.176  1.00  0.00     0.000 HD 
HETATM   20  C   UNL     1     -10.181  15.740  65.554  1.00  0.00    -0.378 A  
HETATM   21  N   UNL     1     -11.033  14.600  65.312  1.00  0.00    -0.344 NA 
ENDBRANCH  15  16
ENDBRANCH   6  15
TORSDOF 3
ENDMDL
MODEL       98
REMARK 921   NORMALIZED FREE ENERGY PREDICTED BY IDOCK:   -4.05 KCAL/MOL
REMARK 922        TOTAL FREE ENERGY PREDICTED BY IDOCK:   -5.09 KCAL/MOL
REMARK 923 INTER-LIGAND FREE ENERGY PREDICTED BY IDOCK:   -4.78 KCAL/MOL
REMARK 924 INTRA-LIGAND FREE ENERGY PREDICTED BY IDOCK:   -0.31 KCAL/MOL
REMARK 927      BINDING AFFINITY PREDICTED BY RF-SCORE:    0.00 PKD
ROOT
HETATM    1  C   UNL     1      -7.119  11.628  67.492  1.00  0.00    -0.111 C  
HETATM    2  C   UNL     1      -8.482  12.250  67.644  1.00  0.00    -0.166 A  
HETATM    3  C   UNL     1      -8.673  13.531  67.090  1.00  0.00    -0.222 A  
HETATM    4  C   UNL     1      -9.860  14.277  67.236  1.00  0.00    -0.244 A  
HETATM    5  C   UNL     1     -10.901  13.619  67.915  1.00  0.00    -0.250 A  
HETATM    6  C   UNL     1      -9.524  11.637  68.366  1.00  0.00    -0.193 A  
HETATM    7  C   UNL     1     -11.922  11.687  69.209  1.00  0.00    -0.382 C  
HETATM    8  H   UNL     1     -12.833  13.760  68.523  1.00  0.00     0.000 HD 
HETATM    9  C   UNL     1     -10.761  12.322  68.476  1.00  0.00    -0.261 A  
HETATM   10  O   UNL     1     -12.130  14.204  68.063  1.00  0.00    -0.351 OA 
ENDROOT
BRANCH   4  11
HETATM   11  C   UNL     1      -9.920  15.697  66.612  1.00  0.00    -0.269 C  
HETATM   12  C   UNL     1     -10.528  16.793  67.519  1.00  0.00    -0.319 C  
HETATM   13  C   UNL     1      -8.513  16.242  66.233  1.00  0.00    -0.369 C  
HETATM   14  C   UNL     1     -10.752  15.603  65.318  1.00  0.00    -0.444 C  
ENDBRANCH   4  11
BRANCH   6  15
HETATM   15  C   UNL     1      -9.289  10.312  69.077  1.00  0.00    -0.195 C  
BRANCH  15  16
HETATM   16  C   UNL     1      -9.558   9.036  68.306  1.00  0.00    -0.145 A  
HETATM   17  N   UNL     1      -8.771   8.001  68.470  1.00  0.00    -0.131 NA 
HETATM   18  C   UNL     1      -9.335   6.940  67.596  1.00  0.00    -0.121 A  
HETATM   19  H   UNL     1      -7.948   7.938  69.069  1.00  0.00     0.000 HD 
HETATM   20  C   UNL     1     -10.633   7.492  66.996  1.00  0.00    -0.339 A  
HETATM   21  N   UNL     1     -10.648   8.844  67.504  1.00  0.00    -0.269 NA 
ENDBRANCH  15  16
ENDBRANCH   6  15
TORSDOF 3
ENDMDL
MODEL       99
REMARK 921   NORMALIZED FREE ENERGY PREDICTED BY IDOCK:   -4.05 KCAL/MOL
REMARK 922        TOTAL FREE ENERGY PREDICTED BY IDOCK:   -5.08 KCAL/MOL
REMARK 923 INTER-LIGAND FREE ENERGY PREDICTED BY IDOCK:   -4.80 KCAL/MOL
REMARK 924 INTRA-LIGAND FREE ENERGY PREDICTED BY IDOCK:   -0.28 KCAL/MOL
REMARK 927      BINDING AFFINITY PREDICTED BY RF-SCORE:    0.00 PKD
ROOT
HETATM    1  C   UNL     1     -10.036   6.745  66.973  1.00  0.00    -0.234 C  
HETATM    2  C   UNL     1     -10.333   7.904  67.887  1.00  0.00    -0.281 A  
HETATM    3  C   UNL     1     -10.657   7.606  69.225  1.00  0.00    -0.206 A  
HETATM    4  C   UNL     1     -11.050   8.575  70.169  1.00  0.00    -0.192 A  
HETATM    5  C   UNL     1     -11.024   9.904  69.710  1.00  0.00    -0.268 A  
HETATM    6  C   UNL     1     -10.367   9.239  67.439  1.00  0.00    -0.327 A  
HETATM    7  C   UNL     1     -10.700  11.707  67.951  1.00  0.00    -0.241 C  
HETATM    8  H   UNL     1     -11.298  11.845  70.236  1.00  0.00     0.000 HD 
HETATM    9  C   UNL     1     -10.689  10.255  68.375  1.00  0.00    -0.263 A  
HETATM   10  O   UNL     1     -11.316  10.947  70.546  1.00  0.00    -0.290 OA 
ENDROOT
BRANCH   4  11
HETATM   11  C   UNL     1     -11.424   8.102  71.599  1.00  0.00    -0.323 C  
HETATM   12  C   UNL     1     -12.628   8.829  72.244  1.00  0.00    -0.460 C  
HETATM   13  C   UNL     1     -11.808   6.594  71.648  1.00  0.00    -0.383 C  
HETATM   14  C   UNL     1     -10.185   8.301  72.495  1.00  0.00    -0.386 C  
ENDBRANCH   4  11
BRANCH   6  15
HETATM   15  C   UNL     1     -10.145   9.562  65.969  1.00  0.00    -0.319 C  
BRANCH  15  16
HETATM   16  C   UNL     1      -8.718   9.706  65.481  1.00  0.00    -0.153 A  
HETATM   17  N   UNL     1      -8.487   9.946  64.214  1.00  0.00    -0.159 NA 
HETATM   18  C   UNL     1      -7.010  10.050  64.099  1.00  0.00    -0.124 A  
HETATM   19  H   UNL     1      -9.175  10.041  63.467  1.00  0.00     0.000 HD 
HETATM   20  C   UNL     1      -6.439   9.946  65.519  1.00  0.00    -0.091 A  
HETATM   21  N   UNL     1      -7.626   9.703  66.304  1.00  0.00    -0.100 NA 
ENDBRANCH  15  16
ENDBRANCH   6  15
TORSDOF 3
ENDMDL
MODEL      100
REMARK 921   NORMALIZED FREE ENERGY PREDICTED BY IDOCK:   -4.04 KCAL/MOL
REMARK 922        TOTAL FREE ENERGY PREDICTED BY IDOCK:   -5.08 KCAL/MOL
REMARK 923 INTER-LIGAND FREE ENERGY PREDICTED BY IDOCK:   -4.90 KCAL/MOL
REMARK 924 INTRA-LIGAND FREE ENERGY PREDICTED BY IDOCK:   -0.18 KCAL/MOL
REMARK 927      BINDING AFFINITY PREDICTED BY RF-SCORE:    0.00 PKD
ROOT
HETATM    1  C   UNL     1     -12.852  11.797  70.793  1.00  0.00    -0.164 C  
HETATM    2  C   UNL     1     -11.893  12.294  69.743  1.00  0.00    -0.388 A  
HETATM    3  C   UNL     1     -10.878  11.411  69.325  1.00  0.00    -0.242 A  
HETATM    4  C   UNL     1      -9.854  11.767  68.425  1.00  0.00    -0.199 A  
HETATM    5  C   UNL     1      -9.950  13.064  67.891  1.00  0.00    -0.230 A  
HETATM    6  C   UNL     1     -11.935  13.606  69.232  1.00  0.00    -0.384 A  
HETATM    7  C   UNL     1     -10.992  15.369  67.662  1.00  0.00    -0.315 C  
HETATM    8  H   UNL     1      -9.125  14.387  66.590  1.00  0.00     0.000 HD 
HETATM    9  C   UNL     1     -10.965  13.983  68.268  1.00  0.00    -0.272 A  
HETATM   10  O   UNL     1      -9.060  13.511  66.952  1.00  0.00    -0.238 OA 
ENDROOT
BRANCH   4  11
HETATM   11  C   UNL     1      -8.771  10.709  68.085  1.00  0.00    -0.130 C  
HETATM   12  C   UNL     1      -7.323  11.248  67.998  1.00  0.00    -0.092 C  
HETATM   13  C   UNL     1      -8.698   9.568  69.141  1.00  0.00    -0.146 C  
HETATM   14  C   UNL     1      -9.147  10.074  66.732  1.00  0.00    -0.159 C  
ENDBRANCH   4  11
BRANCH   6  15
HETATM   15  C   UNL     1     -12.946  14.607  69.769  1.00  0.00     0.263 C  
BRANCH  15  16
HETATM   16  C   UNL     1     -12.762  15.111  71.186  1.00  0.00    -0.385 A  
HETATM   17  N   UNL     1     -13.811  15.433  71.902  1.00  0.00    -0.490 NA 
HETATM   18  C   UNL     1     -13.271  15.854  73.220  1.00  0.00    -0.595 A  
HETATM   19  H   UNL     1     -14.789  15.400  71.615  1.00  0.00     0.000 HD 
HETATM   20  C   UNL     1     -11.757  15.614  73.184  1.00  0.00    -0.330 A  
HETATM   21  N   UNL     1     -11.555  15.166  71.827  1.00  0.00    -0.401 NA 
ENDBRANCH  15  16
ENDBRANCH   6  15
TORSDOF 3
ENDMDL
MODEL      101
REMARK 921   NORMALIZED FREE ENERGY PREDICTED BY IDOCK:   -3.95 KCAL/MOL
REMARK 922        TOTAL FREE ENERGY PREDICTED BY IDOCK:   -4.97 KCAL/MOL
REMARK 923 INTER-LIGAND FREE ENERGY PREDICTED BY IDOCK:   -4.63 KCAL/MOL
REMARK 924 INTRA-LIGAND FREE ENERGY PREDICTED BY IDOCK:   -0.34 KCAL/MOL
REMARK 927      BINDING AFFINITY PREDICTED BY RF-SCORE:    0.00 PKD
ROOT
HETATM    1  C   UNL     1      -8.901   8.661  70.324  1.00  0.00    -0.158 C  
HETATM    2  C   UNL     1      -9.194   7.221  70.658  1.00  0.00    -0.157 A  
HETATM    3  C   UNL     1      -8.719   6.241  69.766  1.00  0.00    -0.137 A  
HETATM    4  C   UNL     1      -8.997   4.865  69.895  1.00  0.00    -0.138 A  
HETATM    5  C   UNL     1      -9.729   4.507  71.040  1.00  0.00    -0.189 A  
HETATM    6  C   UNL     1      -9.971   6.840  71.770  1.00  0.00    -0.184 A  
HETATM    7  C   UNL     1     -11.011   4.996  73.178  1.00  0.00    -0.375 C  
HETATM    8  H   UNL     1     -10.501   2.955  72.097  1.00  0.00     0.000 HD 
HETATM    9  C   UNL     1     -10.215   5.458  71.977  1.00  0.00    -0.256 A  
HETATM   10  O   UNL     1     -10.006   3.197  71.322  1.00  0.00    -0.142 OA 
ENDROOT
BRANCH   4  11
HETATM   11  C   UNL     1      -8.448   3.898  68.813  1.00  0.00    -0.098 C  
HETATM   12  C   UNL     1      -9.479   2.902  68.231  1.00  0.00    -0.217 C  
HETATM   13  C   UNL     1      -7.889   4.648  67.569  1.00  0.00    -0.090 C  
HETATM   14  C   UNL     1      -7.289   3.102  69.443  1.00  0.00    -0.045 C  
ENDBRANCH   4  11
BRANCH   6  15
HETATM   15  C   UNL     1     -10.596   7.896  72.668  1.00  0.00    -0.394 C  
BRANCH  15  16
HETATM   16  C   UNL     1     -11.923   8.493  72.245  1.00  0.00    -0.385 A  
HETATM   17  N   UNL     1     -13.035   7.853  72.508  1.00  0.00    -0.533 NA 
HETATM   18  C   UNL     1     -14.120   8.722  71.983  1.00  0.00    -0.441 A  
HETATM   19  H   UNL     1     -13.135   6.951  72.974  1.00  0.00     0.000 HD 
HETATM   20  C   UNL     1     -13.460  10.012  71.481  1.00  0.00    -0.291 A  
HETATM   21  N   UNL     1     -12.058   9.730  71.679  1.00  0.00    -0.398 NA 
ENDBRANCH  15  16
ENDBRANCH   6  15
TORSDOF 3
ENDMDL
MODEL      102
REMARK 921   NORMALIZED FREE ENERGY PREDICTED BY IDOCK:   -3.95 KCAL/MOL
REMARK 922        TOTAL FREE ENERGY PREDICTED BY IDOCK:   -4.97 KCAL/MOL
REMARK 923 INTER-LIGAND FREE ENERGY PREDICTED BY IDOCK:   -4.65 KCAL/MOL
REMARK 924 INTRA-LIGAND FREE ENERGY PREDICTED BY IDOCK:   -0.31 KCAL/MOL
REMARK 927      BINDING AFFINITY PREDICTED BY RF-SCORE:    0.00 PKD
ROOT
HETATM    1  C   UNL     1     -12.581  10.995  70.480  1.00  0.00    -0.390 C  
HETATM    2  C   UNL     1     -11.453  11.551  69.651  1.00  0.00    -0.373 A  
HETATM    3  C   UNL     1     -11.444  12.940  69.419  1.00  0.00    -0.323 A  
HETATM    4  C   UNL     1     -10.510  13.588  68.586  1.00  0.00    -0.242 A  
HETATM    5  C   UNL     1      -9.510  12.758  68.049  1.00  0.00    -0.213 A  
HETATM    6  C   UNL     1     -10.470  10.735  69.057  1.00  0.00    -0.239 A  
HETATM    7  C   UNL     1      -8.369  10.526  67.641  1.00  0.00    -0.114 C  
HETATM    8  H   UNL     1      -7.825  12.712  66.918  1.00  0.00     0.000 HD 
HETATM    9  C   UNL     1      -9.467  11.356  68.269  1.00  0.00    -0.187 A  
HETATM   10  O   UNL     1      -8.500  13.273  67.281  1.00  0.00    -0.192 OA 
ENDROOT
BRANCH   4  11
HETATM   11  C   UNL     1     -10.643  15.121  68.381  1.00  0.00    -0.238 C  
HETATM   12  C   UNL     1     -10.700  15.589  66.908  1.00  0.00    -0.317 C  
HETATM   13  C   UNL     1     -11.938  15.698  69.023  1.00  0.00    -0.323 C  
HETATM   14  C   UNL     1      -9.438  15.790  69.070  1.00  0.00    -0.247 C  
ENDBRANCH   4  11
BRANCH   6  15
HETATM   15  C   UNL     1     -10.543   9.222  69.194  1.00  0.00    -0.228 C  
BRANCH  15  16
HETATM   16  C   UNL     1      -9.870   8.585  70.393  1.00  0.00    -0.179 A  
HETATM   17  N   UNL     1      -9.385   9.345  71.344  1.00  0.00    -0.303 NA 
HETATM   18  C   UNL     1      -8.831   8.404  72.352  1.00  0.00    -0.224 A  
HETATM   19  H   UNL     1      -9.387  10.364  71.383  1.00  0.00     0.000 HD 
HETATM   20  C   UNL     1      -9.178   6.986  71.883  1.00  0.00    -0.140 A  
HETATM   21  N   UNL     1      -9.814   7.237  70.611  1.00  0.00    -0.180 NA 
ENDBRANCH  15  16
ENDBRANCH   6  15
TORSDOF 3
ENDMDL
MODEL      103
REMARK 921   NORMALIZED FREE ENERGY PREDICTED BY IDOCK:   -3.95 KCAL/MOL
REMARK 922        TOTAL FREE ENERGY PREDICTED BY IDOCK:   -4.96 KCAL/MOL
REMARK 923 INTER-LIGAND FREE ENERGY PREDICTED BY IDOCK:   -4.60 KCAL/MOL
REMARK 924 INTRA-LIGAND FREE ENERGY PREDICTED BY IDOCK:   -0.37 KCAL/MOL
REMARK 927      BINDING AFFINITY PREDICTED BY RF-SCORE:    0.00 PKD
ROOT
HETATM    1  C   UNL     1      -7.406  11.425  67.443  1.00  0.00    -0.119 C  
HETATM    2  C   UNL     1      -8.331  12.595  67.228  1.00  0.00    -0.189 A  
HETATM    3  C   UNL     1      -7.787  13.885  67.382  1.00  0.00    -0.177 A  
HETATM    4  C   UNL     1      -8.548  15.069  67.307  1.00  0.00    -0.226 A  
HETATM    5  C   UNL     1      -9.904  14.889  66.981  1.00  0.00    -0.237 A  
HETATM    6  C   UNL     1      -9.704  12.442  66.956  1.00  0.00    -0.211 A  
HETATM    7  C   UNL     1     -11.965  13.497  66.469  1.00  0.00    -0.460 C  
HETATM    8  H   UNL     1     -11.655  15.839  66.588  1.00  0.00     0.000 HD 
HETATM    9  C   UNL     1     -10.494  13.610  66.801  1.00  0.00    -0.270 A  
HETATM   10  O   UNL     1     -10.738  15.960  66.808  1.00  0.00    -0.321 OA 
ENDROOT
BRANCH   4  11
HETATM   11  C   UNL     1      -7.829  16.424  67.541  1.00  0.00    -0.167 C  
HETATM   12  C   UNL     1      -8.530  17.384  68.531  1.00  0.00    -0.274 C  
HETATM   13  C   UNL     1      -6.395  16.246  68.121  1.00  0.00    -0.130 C  
HETATM   14  C   UNL     1      -7.699  17.126  66.175  1.00  0.00    -0.302 C  
ENDBRANCH   4  11
BRANCH   6  15
HETATM   15  C   UNL     1     -10.328  11.055  66.915  1.00  0.00    -0.279 C  
BRANCH  15  16
HETATM   16  C   UNL     1     -10.745  10.425  68.228  1.00  0.00    -0.235 A  
HETATM   17  N   UNL     1     -10.420   9.182  68.483  1.00  0.00    -0.238 NA 
HETATM   18  C   UNL     1     -10.959   8.908  69.840  1.00  0.00    -0.182 A  
HETATM   19  H   UNL     1      -9.906   8.540  67.879  1.00  0.00     0.000 HD 
HETATM   20  C   UNL     1     -11.544  10.224  70.367  1.00  0.00    -0.328 A  
HETATM   21  N   UNL     1     -11.370  11.105  69.236  1.00  0.00    -0.254 NA 
ENDBRANCH  15  16
ENDBRANCH   6  15
TORSDOF 3
ENDMDL
MODEL      104
REMARK 921   NORMALIZED FREE ENERGY PREDICTED BY IDOCK:   -3.92 KCAL/MOL
REMARK 922        TOTAL FREE ENERGY PREDICTED BY IDOCK:   -4.94 KCAL/MOL
REMARK 923 INTER-LIGAND FREE ENERGY PREDICTED BY IDOCK:   -4.72 KCAL/MOL
REMARK 924 INTRA-LIGAND FREE ENERGY PREDICTED BY IDOCK:   -0.22 KCAL/MOL
REMARK 927      BINDING AFFINITY PREDICTED BY RF-SCORE:    0.00 PKD
ROOT
HETATM    1  C   UNL     1     -12.331  11.861  69.981  1.00  0.00    -0.202 C  
HETATM    2  C   UNL     1     -11.054  11.084  69.795  1.00  0.00    -0.303 A  
HETATM    3  C   UNL     1     -10.882   9.927  70.580  1.00  0.00    -0.391 A  
HETATM    4  C   UNL     1      -9.704   9.154  70.585  1.00  0.00    -0.314 A  
HETATM    5  C   UNL     1      -8.711   9.569  69.680  1.00  0.00    -0.182 A  
HETATM    6  C   UNL     1     -10.022  11.508  68.936  1.00  0.00    -0.117 A  
HETATM    7  C   UNL     1      -7.725  11.112  67.920  1.00  0.00    -0.105 C  
HETATM    8  H   UNL     1      -6.876   9.145  68.923  1.00  0.00     0.000 HD 
HETATM    9  C   UNL     1      -8.846  10.719  68.857  1.00  0.00    -0.154 A  
HETATM   10  O   UNL     1      -7.547   8.865  69.535  1.00  0.00    -0.076 OA 
ENDROOT
BRANCH   4  11
HETATM   11  C   UNL     1      -9.631   7.927  71.533  1.00  0.00    -0.189 C  
HETATM   12  C   UNL     1     -10.957   7.558  72.241  1.00  0.00    -0.307 C  
HETATM   13  C   UNL     1      -9.211   6.624  70.792  1.00  0.00    -0.155 C  
HETATM   14  C   UNL     1      -8.562   8.225  72.602  1.00  0.00    -0.264 C  
ENDBRANCH   4  11
BRANCH   6  15
HETATM   15  C   UNL     1     -10.143  12.823  68.181  1.00  0.00    -0.239 C  
BRANCH  15  16
HETATM   16  C   UNL     1     -10.666  12.781  66.760  1.00  0.00    -0.260 A  
HETATM   17  N   UNL     1     -11.568  11.890  66.428  1.00  0.00    -0.501 NA 
HETATM   18  C   UNL     1     -11.862  12.149  64.995  1.00  0.00    -0.298 A  
HETATM   19  H   UNL     1     -11.979  11.173  67.025  1.00  0.00     0.000 HD 
HETATM   20  C   UNL     1     -11.073  13.399  64.591  1.00  0.00    -0.366 A  
HETATM   21  N   UNL     1     -10.332  13.689  65.796  1.00  0.00    -0.291 NA 
ENDBRANCH  15  16
ENDBRANCH   6  15
TORSDOF 3
ENDMDL
MODEL      105
REMARK 921   NORMALIZED FREE ENERGY PREDICTED BY IDOCK:   -3.88 KCAL/MOL
REMARK 922        TOTAL FREE ENERGY PREDICTED BY IDOCK:   -4.89 KCAL/MOL
REMARK 923 INTER-LIGAND FREE ENERGY PREDICTED BY IDOCK:   -4.55 KCAL/MOL
REMARK 924 INTRA-LIGAND FREE ENERGY PREDICTED BY IDOCK:   -0.35 KCAL/MOL
REMARK 927      BINDING AFFINITY PREDICTED BY RF-SCORE:    0.00 PKD
ROOT
HETATM    1  C   UNL     1     -11.938  14.162  68.091  1.00  0.00    -0.367 C  
HETATM    2  C   UNL     1     -10.444  14.049  68.240  1.00  0.00    -0.245 A  
HETATM    3  C   UNL     1      -9.857  12.801  67.953  1.00  0.00    -0.223 A  
HETATM    4  C   UNL     1      -8.489  12.519  68.138  1.00  0.00    -0.180 A  
HETATM    5  C   UNL     1      -7.705  13.606  68.562  1.00  0.00    -0.129 A  
HETATM    6  C   UNL     1      -9.643  15.107  68.715  1.00  0.00    -0.219 A  
HETATM    7  C   UNL     1      -7.342  16.003  69.317  1.00  0.00    -0.231 C  
HETATM    8  H   UNL     1      -5.820  14.220  68.999  1.00  0.00     0.000 HD 
HETATM    9  C   UNL     1      -8.248  14.887  68.848  1.00  0.00    -0.171 A  
HETATM   10  O   UNL     1      -6.350  13.485  68.713  1.00  0.00    -0.082 OA 
ENDROOT
BRANCH   4  11
HETATM   11  C   UNL     1      -7.984  11.085  67.825  1.00  0.00    -0.115 C  
HETATM   12  C   UNL     1      -7.181  10.404  68.958  1.00  0.00    -0.088 C  
HETATM   13  C   UNL     1      -9.146  10.095  67.522  1.00  0.00    -0.143 C  
HETATM   14  C   UNL     1      -7.097  11.168  66.567  1.00  0.00    -0.124 C  
ENDBRANCH   4  11
BRANCH   6  15
HETATM   15  C   UNL     1     -10.282  16.417  69.149  1.00  0.00    -0.280 C  
BRANCH  15  16
HETATM   16  C   UNL     1     -10.447  17.506  68.109  1.00  0.00    -0.386 A  
HETATM   17  N   UNL     1     -10.576  18.753  68.490  1.00  0.00    -0.359 NA 
HETATM   18  C   UNL     1     -10.690  19.535  67.232  1.00  0.00    -0.484 A  
HETATM   19  H   UNL     1     -10.595  19.109  69.445  1.00  0.00     0.000 HD 
HETATM   20  C   UNL     1     -10.491  18.554  66.071  1.00  0.00    -0.400 A  
HETATM   21  N   UNL     1     -10.372  17.291  66.761  1.00  0.00    -0.320 NA 
ENDBRANCH  15  16
ENDBRANCH   6  15
TORSDOF 3
ENDMDL
MODEL      106
REMARK 921   NORMALIZED FREE ENERGY PREDICTED BY IDOCK:   -3.86 KCAL/MOL
REMARK 922        TOTAL FREE ENERGY PREDICTED BY IDOCK:   -4.87 KCAL/MOL
REMARK 923 INTER-LIGAND FREE ENERGY PREDICTED BY IDOCK:   -4.62 KCAL/MOL
REMARK 924 INTRA-LIGAND FREE ENERGY PREDICTED BY IDOCK:   -0.24 KCAL/MOL
REMARK 927      BINDING AFFINITY PREDICTED BY RF-SCORE:    0.00 PKD
ROOT
HETATM    1  C   UNL     1     -11.029   6.103  68.322  1.00  0.00    -0.397 C  
HETATM    2  C   UNL     1     -10.676   5.900  69.772  1.00  0.00    -0.411 A  
HETATM    3  C   UNL     1     -10.149   4.646  70.140  1.00  0.00    -0.283 A  
HETATM    4  C   UNL     1      -9.863   4.278  71.470  1.00  0.00    -0.260 A  
HETATM    5  C   UNL     1     -10.063   5.287  72.427  1.00  0.00    -0.182 A  
HETATM    6  C   UNL     1     -10.918   6.875  70.759  1.00  0.00    -0.297 A  
HETATM    7  C   UNL     1     -10.781   7.600  73.192  1.00  0.00    -0.445 C  
HETATM    8  H   UNL     1      -9.892   5.766  74.393  1.00  0.00     0.000 HD 
HETATM    9  C   UNL     1     -10.576   6.571  72.103  1.00  0.00    -0.240 A  
HETATM   10  O   UNL     1      -9.756   5.083  73.745  1.00  0.00    -0.135 OA 
ENDROOT
BRANCH   4  11
HETATM   11  C   UNL     1      -9.327   2.846  71.739  1.00  0.00    -0.193 C  
HETATM   12  C   UNL     1     -10.123   2.027  72.783  1.00  0.00    -0.202 C  
HETATM   13  C   UNL     1      -9.333   1.957  70.461  1.00  0.00    -0.181 C  
HETATM   14  C   UNL     1      -7.867   2.976  72.215  1.00  0.00    -0.055 C  
ENDBRANCH   4  11
BRANCH   6  15
HETATM   15  C   UNL     1     -11.605   8.182  70.395  1.00  0.00    -0.063 C  
BRANCH  15  16
HETATM   16  C   UNL     1     -10.811   9.206  69.609  1.00  0.00    -0.197 A  
HETATM   17  N   UNL     1     -11.358   9.796  68.575  1.00  0.00    -0.508 NA 
HETATM   18  C   UNL     1     -10.325  10.736  68.070  1.00  0.00    -0.182 A  
HETATM   19  H   UNL     1     -12.294   9.643  68.199  1.00  0.00     0.000 HD 
HETATM   20  C   UNL     1      -9.144  10.674  69.044  1.00  0.00    -0.166 A  
HETATM   21  N   UNL     1      -9.566   9.644  69.964  1.00  0.00    -0.230 NA 
ENDBRANCH  15  16
ENDBRANCH   6  15
TORSDOF 3
ENDMDL
MODEL      107
REMARK 921   NORMALIZED FREE ENERGY PREDICTED BY IDOCK:   -3.85 KCAL/MOL
REMARK 922        TOTAL FREE ENERGY PREDICTED BY IDOCK:   -4.86 KCAL/MOL
REMARK 923 INTER-LIGAND FREE ENERGY PREDICTED BY IDOCK:   -4.48 KCAL/MOL
REMARK 924 INTRA-LIGAND FREE ENERGY PREDICTED BY IDOCK:   -0.37 KCAL/MOL
REMARK 927      BINDING AFFINITY PREDICTED BY RF-SCORE:    0.00 PKD
ROOT
HETATM    1  C   UNL     1     -10.075   4.735  67.273  1.00  0.00    -0.192 C  
HETATM    2  C   UNL     1     -10.199   5.572  68.519  1.00  0.00    -0.250 A  
HETATM    3  C   UNL     1     -10.068   4.912  69.757  1.00  0.00    -0.319 A  
HETATM    4  C   UNL     1     -10.254   5.543  71.003  1.00  0.00    -0.287 A  
HETATM    5  C   UNL     1     -10.506   6.925  70.943  1.00  0.00    -0.211 A  
HETATM    6  C   UNL     1     -10.505   6.946  68.487  1.00  0.00    -0.229 A  
HETATM    7  C   UNL     1     -10.920   9.121  69.736  1.00  0.00    -0.195 C  
HETATM    8  H   UNL     1     -10.806   8.605  72.043  1.00  0.00     0.000 HD 
HETATM    9  C   UNL     1     -10.630   7.637  69.720  1.00  0.00    -0.245 A  
HETATM   10  O   UNL     1     -10.636   7.671  72.083  1.00  0.00    -0.213 OA 
ENDROOT
BRANCH   4  11
HETATM   11  C   UNL     1     -10.123   4.686  72.290  1.00  0.00    -0.250 C  
HETATM   12  C   UNL     1      -8.982   5.101  73.249  1.00  0.00    -0.120 C  
HETATM   13  C   UNL     1     -11.406   4.731  73.170  1.00  0.00    -0.380 C  
HETATM   14  C   UNL     1      -9.901   3.223  71.857  1.00  0.00    -0.238 C  
ENDBRANCH   4  11
BRANCH   6  15
HETATM   15  C   UNL     1     -10.776   7.642  67.161  1.00  0.00    -0.361 C  
BRANCH  15  16
HETATM   16  C   UNL     1      -9.597   8.233  66.417  1.00  0.00    -0.230 A  
HETATM   17  N   UNL     1      -9.038   7.556  65.444  1.00  0.00    -0.365 NA 
HETATM   18  C   UNL     1      -7.951   8.430  64.933  1.00  0.00    -0.136 A  
HETATM   19  H   UNL     1      -9.296   6.628  65.108  1.00  0.00     0.000 HD 
HETATM   20  C   UNL     1      -8.049   9.760  65.690  1.00  0.00    -0.120 A  
HETATM   21  N   UNL     1      -9.118   9.497  66.624  1.00  0.00    -0.145 NA 
ENDBRANCH  15  16
ENDBRANCH   6  15
TORSDOF 3
ENDMDL
MODEL      108
REMARK 921   NORMALIZED FREE ENERGY PREDICTED BY IDOCK:   -3.85 KCAL/MOL
REMARK 922        TOTAL FREE ENERGY PREDICTED BY IDOCK:   -4.85 KCAL/MOL
REMARK 923 INTER-LIGAND FREE ENERGY PREDICTED BY IDOCK:   -4.71 KCAL/MOL
REMARK 924 INTRA-LIGAND FREE ENERGY PREDICTED BY IDOCK:   -0.14 KCAL/MOL
REMARK 927      BINDING AFFINITY PREDICTED BY RF-SCORE:    0.00 PKD
ROOT
HETATM    1  C   UNL     1     -12.088  12.669  65.744  1.00  0.00    -0.484 C  
HETATM    2  C   UNL     1     -10.865  13.166  66.470  1.00  0.00    -0.291 A  
HETATM    3  C   UNL     1     -10.624  14.554  66.454  1.00  0.00    -0.302 A  
HETATM    4  C   UNL     1      -9.474  15.154  67.005  1.00  0.00    -0.237 A  
HETATM    5  C   UNL     1      -8.596  14.274  67.661  1.00  0.00    -0.183 A  
HETATM    6  C   UNL     1      -9.941  12.301  67.088  1.00  0.00    -0.213 A  
HETATM    7  C   UNL     1      -7.804  11.986  68.428  1.00  0.00    -0.147 C  
HETATM    8  H   UNL     1      -6.883  14.142  68.744  1.00  0.00     0.000 HD 
HETATM    9  C   UNL     1      -8.805  12.871  67.718  1.00  0.00    -0.188 A  
HETATM   10  O   UNL     1      -7.478  14.737  68.301  1.00  0.00    -0.103 OA 
ENDROOT
BRANCH   4  11
HETATM   11  C   UNL     1      -9.313  16.692  66.878  1.00  0.00    -0.246 C  
HETATM   12  C   UNL     1     -10.398  17.405  66.036  1.00  0.00    -0.309 C  
HETATM   13  C   UNL     1      -9.355  17.413  68.257  1.00  0.00    -0.278 C  
HETATM   14  C   UNL     1      -7.934  16.966  66.246  1.00  0.00    -0.350 C  
ENDBRANCH   4  11
BRANCH   6  15
HETATM   15  C   UNL     1     -10.124  10.794  67.001  1.00  0.00    -0.249 C  
BRANCH  15  16
HETATM   16  C   UNL     1     -10.563  10.059  68.251  1.00  0.00    -0.226 A  
HETATM   17  N   UNL     1     -10.274   8.789  68.391  1.00  0.00    -0.192 NA 
HETATM   18  C   UNL     1     -10.824   8.407  69.717  1.00  0.00    -0.183 A  
HETATM   19  H   UNL     1      -9.777   8.190  67.732  1.00  0.00     0.000 HD 
HETATM   20  C   UNL     1     -11.372   9.686  70.363  1.00  0.00    -0.277 A  
HETATM   21  N   UNL     1     -11.170  10.661  69.317  1.00  0.00    -0.253 NA 
ENDBRANCH  15  16
ENDBRANCH   6  15
TORSDOF 3
ENDMDL
MODEL      109
REMARK 921   NORMALIZED FREE ENERGY PREDICTED BY IDOCK:   -3.84 KCAL/MOL
REMARK 922        TOTAL FREE ENERGY PREDICTED BY IDOCK:   -4.84 KCAL/MOL
REMARK 923 INTER-LIGAND FREE ENERGY PREDICTED BY IDOCK:   -4.58 KCAL/MOL
REMARK 924 INTRA-LIGAND FREE ENERGY PREDICTED BY IDOCK:   -0.26 KCAL/MOL
REMARK 927      BINDING AFFINITY PREDICTED BY RF-SCORE:    0.00 PKD
ROOT
HETATM    1  C   UNL     1     -11.159   8.856  69.886  1.00  0.00    -0.146 C  
HETATM    2  C   UNL     1     -10.856   9.821  68.770  1.00  0.00    -0.219 A  
HETATM    3  C   UNL     1     -11.047  11.192  69.031  1.00  0.00    -0.299 A  
HETATM    4  C   UNL     1     -10.897  12.202  68.060  1.00  0.00    -0.258 A  
HETATM    5  C   UNL     1     -10.455  11.760  66.800  1.00  0.00    -0.225 A  
HETATM    6  C   UNL     1     -10.465   9.401  67.484  1.00  0.00    -0.343 A  
HETATM    7  C   UNL     1      -9.775   9.992  65.109  1.00  0.00    -0.380 C  
HETATM    8  H   UNL     1      -9.903  12.348  64.937  1.00  0.00     0.000 HD 
HETATM    9  C   UNL     1     -10.233  10.391  66.494  1.00  0.00    -0.289 A  
HETATM   10  O   UNL     1     -10.202  12.646  65.788  1.00  0.00    -0.264 OA 
ENDROOT
BRANCH   4  11
HETATM   11  C   UNL     1     -11.184  13.670  68.472  1.00  0.00    -0.310 C  
HETATM   12  C   UNL     1     -12.045  14.482  67.475  1.00  0.00    -0.284 C  
HETATM   13  C   UNL     1     -11.952  13.772  69.822  1.00  0.00    -0.406 C  
HETATM   14  C   UNL     1      -9.826  14.379  68.649  1.00  0.00    -0.231 C  
ENDBRANCH   4  11
BRANCH   6  15
HETATM   15  C   UNL     1     -10.379   7.919  67.153  1.00  0.00    -0.398 C  
BRANCH  15  16
HETATM   16  C   UNL     1      -9.200   7.138  67.696  1.00  0.00    -0.125 A  
HETATM   17  N   UNL     1      -9.404   6.002  68.316  1.00  0.00    -0.116 NA 
HETATM   18  C   UNL     1      -8.051   5.509  68.683  1.00  0.00    -0.102 A  
HETATM   19  H   UNL     1     -10.300   5.553  68.505  1.00  0.00     0.000 HD 
HETATM   20  C   UNL     1      -7.036   6.484  68.076  1.00  0.00    -0.077 A  
HETATM   21  N   UNL     1      -7.894   7.490  67.496  1.00  0.00    -0.114 NA 
ENDBRANCH  15  16
ENDBRANCH   6  15
TORSDOF 3
ENDMDL
MODEL      110
REMARK 921   NORMALIZED FREE ENERGY PREDICTED BY IDOCK:   -3.84 KCAL/MOL
REMARK 922        TOTAL FREE ENERGY PREDICTED BY IDOCK:   -4.84 KCAL/MOL
REMARK 923 INTER-LIGAND FREE ENERGY PREDICTED BY IDOCK:   -4.50 KCAL/MOL
REMARK 924 INTRA-LIGAND FREE ENERGY PREDICTED BY IDOCK:   -0.34 KCAL/MOL
REMARK 927      BINDING AFFINITY PREDICTED BY RF-SCORE:    0.00 PKD
ROOT
HETATM    1  C   UNL     1      -6.639  16.196  69.774  1.00  0.00    -0.137 C  
HETATM    2  C   UNL     1      -7.959  16.037  69.067  1.00  0.00    -0.224 A  
HETATM    3  C   UNL     1      -8.417  14.724  68.841  1.00  0.00    -0.159 A  
HETATM    4  C   UNL     1      -9.582  14.417  68.110  1.00  0.00    -0.218 A  
HETATM    5  C   UNL     1     -10.327  15.527  67.676  1.00  0.00    -0.269 A  
HETATM    6  C   UNL     1      -8.697  17.130  68.575  1.00  0.00    -0.261 A  
HETATM    7  C   UNL     1     -10.762  18.012  67.382  1.00  0.00    -0.334 C  
HETATM    8  H   UNL     1     -12.019  16.119  66.724  1.00  0.00     0.000 HD 
HETATM    9  C   UNL     1      -9.915  16.869  67.895  1.00  0.00    -0.274 A  
HETATM   10  O   UNL     1     -11.516  15.368  67.017  1.00  0.00    -0.246 OA 
ENDROOT
BRANCH   4  11
HETATM   11  C   UNL     1      -9.946  12.923  67.897  1.00  0.00    -0.233 C  
HETATM   12  C   UNL     1     -10.181  12.503  66.426  1.00  0.00    -0.260 C  
HETATM   13  C   UNL     1      -8.834  11.959  68.404  1.00  0.00    -0.159 C  
HETATM   14  C   UNL     1     -11.224  12.634  68.707  1.00  0.00    -0.325 C  
ENDBRANCH   4  11
BRANCH   6  15
HETATM   15  C   UNL     1      -8.151  18.545  68.701  1.00  0.00    -0.336 C  
BRANCH  15  16
HETATM   16  C   UNL     1      -7.293  19.077  67.571  1.00  0.00    -0.226 A  
HETATM   17  N   UNL     1      -7.173  20.370  67.402  1.00  0.00    -0.291 NA 
HETATM   18  C   UNL     1      -6.258  20.529  66.242  1.00  0.00    -0.209 A  
HETATM   19  H   UNL     1      -7.613  21.110  67.950  1.00  0.00     0.000 HD 
HETATM   20  C   UNL     1      -5.783  19.126  65.847  1.00  0.00    -0.160 A  
HETATM   21  N   UNL     1      -6.534  18.288  66.751  1.00  0.00    -0.176 NA 
ENDBRANCH  15  16
ENDBRANCH   6  15
TORSDOF 3
ENDMDL
MODEL      111
REMARK 921   NORMALIZED FREE ENERGY PREDICTED BY IDOCK:   -3.84 KCAL/MOL
REMARK 922        TOTAL FREE ENERGY PREDICTED BY IDOCK:   -4.84 KCAL/MOL
REMARK 923 INTER-LIGAND FREE ENERGY PREDICTED BY IDOCK:   -4.87 KCAL/MOL
REMARK 924 INTRA-LIGAND FREE ENERGY PREDICTED BY IDOCK:    0.04 KCAL/MOL
REMARK 927      BINDING AFFINITY PREDICTED BY RF-SCORE:    0.00 PKD
ROOT
HETATM    1  C   UNL     1     -10.372   8.431  67.058  1.00  0.00    -0.385 C  
HETATM    2  C   UNL     1      -9.966   9.881  67.093  1.00  0.00    -0.252 A  
HETATM    3  C   UNL     1     -10.644  10.763  66.230  1.00  0.00    -0.257 A  
HETATM    4  C   UNL     1     -10.309  12.124  66.083  1.00  0.00    -0.264 A  
HETATM    5  C   UNL     1      -9.285  12.584  66.929  1.00  0.00    -0.211 A  
HETATM    6  C   UNL     1      -8.907  10.356  67.891  1.00  0.00    -0.125 A  
HETATM    7  C   UNL     1      -7.480  12.302  68.694  1.00  0.00    -0.100 C  
HETATM    8  H   UNL     1      -8.219  14.212  67.509  1.00  0.00     0.000 HD 
HETATM    9  C   UNL     1      -8.584  11.736  67.828  1.00  0.00    -0.151 A  
HETATM   10  O   UNL     1      -8.912  13.901  66.937  1.00  0.00    -0.234 OA 
ENDROOT
BRANCH   4  11
HETATM   11  C   UNL     1     -11.111  12.974  65.061  1.00  0.00    -0.319 C  
HETATM   12  C   UNL     1     -10.454  14.315  64.656  1.00  0.00    -0.325 C  
HETATM   13  C   UNL     1     -11.336  12.229  63.713  1.00  0.00    -0.534 C  
HETATM   14  C   UNL     1     -12.494  13.262  65.676  1.00  0.00    -0.510 C  
ENDBRANCH   4  11
BRANCH   6  15
HETATM   15  C   UNL     1      -8.084   9.391  68.731  1.00  0.00    -0.103 C  
BRANCH  15  16
HETATM   16  C   UNL     1      -8.706   8.847  70.001  1.00  0.00    -0.147 A  
HETATM   17  N   UNL     1      -9.248   9.672  70.862  1.00  0.00    -0.345 NA 
HETATM   18  C   UNL     1      -9.771   8.809  71.953  1.00  0.00    -0.316 A  
HETATM   19  H   UNL     1      -9.300  10.688  70.797  1.00  0.00     0.000 HD 
HETATM   20  C   UNL     1      -9.545   7.355  71.525  1.00  0.00    -0.151 A  
HETATM   21  N   UNL     1      -8.835   7.514  70.278  1.00  0.00    -0.145 NA 
ENDBRANCH  15  16
ENDBRANCH   6  15
TORSDOF 3
ENDMDL
MODEL      112
REMARK 921   NORMALIZED FREE ENERGY PREDICTED BY IDOCK:   -3.82 KCAL/MOL
REMARK 922        TOTAL FREE ENERGY PREDICTED BY IDOCK:   -4.82 KCAL/MOL
REMARK 923 INTER-LIGAND FREE ENERGY PREDICTED BY IDOCK:   -4.57 KCAL/MOL
REMARK 924 INTRA-LIGAND FREE ENERGY PREDICTED BY IDOCK:   -0.26 KCAL/MOL
REMARK 927      BINDING AFFINITY PREDICTED BY RF-SCORE:    0.00 PKD
ROOT
HETATM    1  C   UNL     1      -9.256   3.593  68.872  1.00  0.00    -0.223 C  
HETATM    2  C   UNL     1      -9.656   5.036  69.035  1.00  0.00    -0.214 A  
HETATM    3  C   UNL     1     -10.400   5.375  70.182  1.00  0.00    -0.361 A  
HETATM    4  C   UNL     1     -10.925   6.660  70.422  1.00  0.00    -0.341 A  
HETATM    5  C   UNL     1     -10.587   7.633  69.465  1.00  0.00    -0.227 A  
HETATM    6  C   UNL     1      -9.377   6.018  68.065  1.00  0.00    -0.114 A  
HETATM    7  C   UNL     1      -9.518   8.441  67.307  1.00  0.00    -0.196 C  
HETATM    8  H   UNL     1     -10.746   9.596  68.968  1.00  0.00     0.000 HD 
HETATM    9  C   UNL     1      -9.826   7.343  68.301  1.00  0.00    -0.173 A  
HETATM   10  O   UNL     1     -10.974   8.938  69.615  1.00  0.00    -0.216 OA 
ENDROOT
BRANCH   4  11
HETATM   11  C   UNL     1     -11.766   6.885  71.707  1.00  0.00    -0.338 C  
HETATM   12  C   UNL     1     -11.359   8.110  72.559  1.00  0.00    -0.469 C  
HETATM   13  C   UNL     1     -13.275   7.110  71.400  1.00  0.00    -0.391 C  
HETATM   14  C   UNL     1     -11.646   5.615  72.571  1.00  0.00    -0.303 C  
ENDBRANCH   4  11
BRANCH   6  15
HETATM   15  C   UNL     1      -8.687   5.638  66.764  1.00  0.00    -0.115 C  
BRANCH  15  16
HETATM   16  C   UNL     1      -9.492   4.877  65.730  1.00  0.00    -0.164 A  
HETATM   17  N   UNL     1     -10.794   5.012  65.693  1.00  0.00    -0.702 NA 
HETATM   18  C   UNL     1     -11.244   4.158  64.565  1.00  0.00     0.300 A  
HETATM   19  H   UNL     1     -11.375   5.582  66.309  1.00  0.00     0.000 HD 
HETATM   20  C   UNL     1      -9.985   3.603  63.889  1.00  0.00    -0.186 A  
HETATM   21  N   UNL     1      -8.937   4.113  64.742  1.00  0.00    -0.133 NA 
ENDBRANCH  15  16
ENDBRANCH   6  15
TORSDOF 3
ENDMDL
MODEL      113
REMARK 921   NORMALIZED FREE ENERGY PREDICTED BY IDOCK:   -3.82 KCAL/MOL
REMARK 922        TOTAL FREE ENERGY PREDICTED BY IDOCK:   -4.82 KCAL/MOL
REMARK 923 INTER-LIGAND FREE ENERGY PREDICTED BY IDOCK:   -4.48 KCAL/MOL
REMARK 924 INTRA-LIGAND FREE ENERGY PREDICTED BY IDOCK:   -0.34 KCAL/MOL
REMARK 927      BINDING AFFINITY PREDICTED BY RF-SCORE:    0.00 PKD
ROOT
HETATM    1  C   UNL     1     -11.711  11.959  68.280  1.00  0.00    -0.385 C  
HETATM    2  C   UNL     1     -10.912  10.740  68.663  1.00  0.00    -0.285 A  
HETATM    3  C   UNL     1     -11.360   9.996  69.772  1.00  0.00    -0.281 A  
HETATM    4  C   UNL     1     -10.665   8.892  70.305  1.00  0.00    -0.248 A  
HETATM    5  C   UNL     1      -9.509   8.514  69.599  1.00  0.00    -0.165 A  
HETATM    6  C   UNL     1      -9.722  10.372  68.006  1.00  0.00    -0.166 A  
HETATM    7  C   UNL     1      -7.766   8.765  67.768  1.00  0.00    -0.102 C  
HETATM    8  H   UNL     1      -8.000   7.160  69.491  1.00  0.00     0.000 HD 
HETATM    9  C   UNL     1      -9.028   9.223  68.465  1.00  0.00    -0.129 A  
HETATM   10  O   UNL     1      -8.781   7.416  69.968  1.00  0.00    -0.139 OA 
ENDROOT
BRANCH   4  11
HETATM   11  C   UNL     1     -11.248   8.190  71.560  1.00  0.00    -0.307 C  
HETATM   12  C   UNL     1     -10.261   8.014  72.739  1.00  0.00    -0.389 C  
HETATM   13  C   UNL     1     -12.451   8.964  72.172  1.00  0.00    -0.459 C  
HETATM   14  C   UNL     1     -11.756   6.801  71.125  1.00  0.00    -0.394 C  
ENDBRANCH   4  11
BRANCH   6  15
HETATM   15  C   UNL     1      -9.161  11.240  66.890  1.00  0.00    -0.172 C  
BRANCH  15  16
HETATM   16  C   UNL     1      -8.318  12.438  67.278  1.00  0.00    -0.184 A  
HETATM   17  N   UNL     1      -7.065  12.266  67.617  1.00  0.00    -0.113 NA 
HETATM   18  C   UNL     1      -6.548  13.629  67.906  1.00  0.00    -0.155 A  
HETATM   19  H   UNL     1      -6.553  11.385  67.671  1.00  0.00     0.000 HD 
HETATM   20  C   UNL     1      -7.670  14.617  67.569  1.00  0.00    -0.195 A  
HETATM   21  N   UNL     1      -8.752  13.732  67.206  1.00  0.00    -0.210 NA 
ENDBRANCH  15  16
ENDBRANCH   6  15
TORSDOF 3
ENDMDL
MODEL      114
REMARK 921   NORMALIZED FREE ENERGY PREDICTED BY IDOCK:   -3.80 KCAL/MOL
REMARK 922        TOTAL FREE ENERGY PREDICTED BY IDOCK:   -4.79 KCAL/MOL
REMARK 923 INTER-LIGAND FREE ENERGY PREDICTED BY IDOCK:   -4.85 KCAL/MOL
REMARK 924 INTRA-LIGAND FREE ENERGY PREDICTED BY IDOCK:    0.05 KCAL/MOL
REMARK 927      BINDING AFFINITY PREDICTED BY RF-SCORE:    0.00 PKD
ROOT
HETATM    1  C   UNL     1     -12.145  10.077  70.956  1.00  0.00    -0.469 C  
HETATM    2  C   UNL     1     -11.170  10.716  70.002  1.00  0.00    -0.382 A  
HETATM    3  C   UNL     1     -11.488  11.999  69.515  1.00  0.00    -0.351 A  
HETATM    4  C   UNL     1     -10.723  12.680  68.547  1.00  0.00    -0.271 A  
HETATM    5  C   UNL     1      -9.548  12.023  68.141  1.00  0.00    -0.200 A  
HETATM    6  C   UNL     1     -10.015  10.057  69.538  1.00  0.00    -0.249 A  
HETATM    7  C   UNL     1      -7.906  10.085  68.118  1.00  0.00    -0.089 C  
HETATM    8  H   UNL     1      -7.886  12.162  66.984  1.00  0.00     0.000 HD 
HETATM    9  C   UNL     1      -9.178  10.736  68.616  1.00  0.00    -0.184 A  
HETATM   10  O   UNL     1      -8.680  12.606  67.259  1.00  0.00    -0.182 OA 
ENDROOT
BRANCH   4  11
HETATM   11  C   UNL     1     -11.213  14.072  68.066  1.00  0.00    -0.302 C  
HETATM   12  C   UNL     1     -12.004  14.071  66.736  1.00  0.00    -0.473 C  
HETATM   13  C   UNL     1     -12.170  14.754  69.087  1.00  0.00    -0.208 C  
HETATM   14  C   UNL     1      -9.974  14.974  67.908  1.00  0.00    -0.222 C  
ENDBRANCH   4  11
BRANCH   6  15
HETATM   15  C   UNL     1      -9.729   8.623  69.956  1.00  0.00    -0.176 C  
BRANCH  15  16
HETATM   16  C   UNL     1     -10.087   7.515  68.987  1.00  0.00    -0.192 A  
HETATM   17  N   UNL     1      -9.820   6.271  69.296  1.00  0.00    -0.139 NA 
HETATM   18  C   UNL     1     -10.319   5.468  68.150  1.00  0.00    -0.176 A  
HETATM   19  H   UNL     1      -9.367   5.927  70.143  1.00  0.00     0.000 HD 
HETATM   20  C   UNL     1     -11.017   6.438  67.190  1.00  0.00    -0.399 A  
HETATM   21  N   UNL     1     -10.776   7.713  67.823  1.00  0.00    -0.187 NA 
ENDBRANCH  15  16
ENDBRANCH   6  15
TORSDOF 3
ENDMDL
MODEL      115
REMARK 921   NORMALIZED FREE ENERGY PREDICTED BY IDOCK:   -3.79 KCAL/MOL
REMARK 922        TOTAL FREE ENERGY PREDICTED BY IDOCK:   -4.78 KCAL/MOL
REMARK 923 INTER-LIGAND FREE ENERGY PREDICTED BY IDOCK:   -4.45 KCAL/MOL
REMARK 924 INTRA-LIGAND FREE ENERGY PREDICTED BY IDOCK:   -0.33 KCAL/MOL
REMARK 927      BINDING AFFINITY PREDICTED BY RF-SCORE:    0.00 PKD
ROOT
HETATM    1  C   UNL     1     -10.987   6.261  67.674  1.00  0.00    -0.438 C  
HETATM    2  C   UNL     1     -10.100   7.206  66.907  1.00  0.00    -0.308 A  
HETATM    3  C   UNL     1     -10.413   8.578  66.966  1.00  0.00    -0.362 A  
HETATM    4  C   UNL     1      -9.734   9.568  66.227  1.00  0.00    -0.310 A  
HETATM    5  C   UNL     1      -8.646   9.106  65.467  1.00  0.00    -0.170 A  
HETATM    6  C   UNL     1      -9.037   6.764  66.095  1.00  0.00    -0.138 A  
HETATM    7  C   UNL     1      -7.107   7.314  64.533  1.00  0.00    -0.058 C  
HETATM    8  H   UNL     1      -7.124   9.662  64.244  1.00  0.00     0.000 HD 
HETATM    9  C   UNL     1      -8.282   7.736  65.389  1.00  0.00    -0.140 A  
HETATM   10  O   UNL     1      -7.859   9.974  64.758  1.00  0.00    -0.136 OA 
ENDROOT
BRANCH   4  11
HETATM   11  C   UNL     1     -10.213  11.039  66.353  1.00  0.00    -0.284 C  
HETATM   12  C   UNL     1      -9.119  12.060  66.747  1.00  0.00    -0.197 C  
HETATM   13  C   UNL     1     -10.798  11.592  65.021  1.00  0.00    -0.336 C  
HETATM   14  C   UNL     1     -11.333  11.077  67.410  1.00  0.00    -0.306 C  
ENDBRANCH   4  11
BRANCH   6  15
HETATM   15  C   UNL     1      -8.770   5.277  65.921  1.00  0.00    -0.138 C  
BRANCH  15  16
HETATM   16  C   UNL     1      -9.415   4.573  64.745  1.00  0.00    -0.121 A  
HETATM   17  N   UNL     1     -10.570   3.975  64.900  1.00  0.00    -0.526 NA 
HETATM   18  C   UNL     1     -10.908   3.423  63.563  1.00  0.00    -0.206 A  
HETATM   19  H   UNL     1     -11.121   3.905  65.756  1.00  0.00     0.000 HD 
HETATM   20  C   UNL     1      -9.820   3.897  62.592  1.00  0.00    -0.141 A  
HETATM   21  N   UNL     1      -8.914   4.597  63.473  1.00  0.00    -0.135 NA 
ENDBRANCH  15  16
ENDBRANCH   6  15
TORSDOF 3
ENDMDL
MODEL      116
REMARK 921   NORMALIZED FREE ENERGY PREDICTED BY IDOCK:   -3.76 KCAL/MOL
REMARK 922        TOTAL FREE ENERGY PREDICTED BY IDOCK:   -4.74 KCAL/MOL
REMARK 923 INTER-LIGAND FREE ENERGY PREDICTED BY IDOCK:   -4.79 KCAL/MOL
REMARK 924 INTRA-LIGAND FREE ENERGY PREDICTED BY IDOCK:    0.04 KCAL/MOL
REMARK 927      BINDING AFFINITY PREDICTED BY RF-SCORE:    0.00 PKD
ROOT
HETATM    1  C   UNL     1      -8.811  10.321  67.539  1.00  0.00    -0.128 C  
HETATM    2  C   UNL     1      -9.822  11.120  68.319  1.00  0.00    -0.195 A  
HETATM    3  C   UNL     1      -9.816  12.517  68.143  1.00  0.00    -0.221 A  
HETATM    4  C   UNL     1     -10.635  13.401  68.874  1.00  0.00    -0.181 A  
HETATM    5  C   UNL     1     -11.541  12.786  69.756  1.00  0.00    -0.218 A  
HETATM    6  C   UNL     1     -10.703  10.534  69.249  1.00  0.00    -0.269 A  
HETATM    7  C   UNL     1     -12.586  10.795  70.936  1.00  0.00    -0.498 C  
HETATM    8  H   UNL     1     -13.054  13.110  71.071  1.00  0.00     0.000 HD 
HETATM    9  C   UNL     1     -11.595  11.381  69.955  1.00  0.00    -0.402 A  
HETATM   10  O   UNL     1     -12.441  13.525  70.474  1.00  0.00    -0.332 OA 
ENDROOT
BRANCH   4  11
HETATM   11  C   UNL     1     -10.494  14.924  68.612  1.00  0.00    -0.242 C  
HETATM   12  C   UNL     1     -10.079  15.312  67.173  1.00  0.00    -0.240 C  
HETATM   13  C   UNL     1     -11.823  15.697  68.856  1.00  0.00    -0.368 C  
HETATM   14  C   UNL     1      -9.444  15.472  69.598  1.00  0.00    -0.244 C  
ENDBRANCH   4  11
BRANCH   6  15
HETATM   15  C   UNL     1     -10.630   9.043  69.541  1.00  0.00    -0.231 C  
BRANCH  15  16
HETATM   16  C   UNL     1      -9.867   8.597  70.771  1.00  0.00    -0.192 A  
HETATM   17  N   UNL     1      -8.557   8.610  70.761  1.00  0.00    -0.154 NA 
HETATM   18  C   UNL     1      -8.152   8.143  72.112  1.00  0.00    -0.138 A  
HETATM   19  H   UNL     1      -7.946   8.882  69.991  1.00  0.00     0.000 HD 
HETATM   20  C   UNL     1      -9.435   7.971  72.934  1.00  0.00    -0.277 A  
HETATM   21  N   UNL     1     -10.458   8.265  71.958  1.00  0.00    -0.255 NA 
ENDBRANCH  15  16
ENDBRANCH   6  15
TORSDOF 3
ENDMDL
MODEL      117
REMARK 921   NORMALIZED FREE ENERGY PREDICTED BY IDOCK:   -3.74 KCAL/MOL
REMARK 922        TOTAL FREE ENERGY PREDICTED BY IDOCK:   -4.72 KCAL/MOL
REMARK 923 INTER-LIGAND FREE ENERGY PREDICTED BY IDOCK:   -4.35 KCAL/MOL
REMARK 924 INTRA-LIGAND FREE ENERGY PREDICTED BY IDOCK:   -0.37 KCAL/MOL
REMARK 927      BINDING AFFINITY PREDICTED BY RF-SCORE:    0.00 PKD
ROOT
HETATM    1  C   UNL     1      -7.198  14.961  69.537  1.00  0.00    -0.184 C  
HETATM    2  C   UNL     1      -7.665  15.977  68.528  1.00  0.00    -0.158 A  
HETATM    3  C   UNL     1      -6.857  17.114  68.334  1.00  0.00    -0.191 A  
HETATM    4  C   UNL     1      -7.211  18.191  67.497  1.00  0.00    -0.205 A  
HETATM    5  C   UNL     1      -8.412  18.027  66.785  1.00  0.00    -0.257 A  
HETATM    6  C   UNL     1      -8.890  15.862  67.842  1.00  0.00    -0.179 A  
HETATM    7  C   UNL     1     -10.539  16.794  66.146  1.00  0.00    -0.212 C  
HETATM    8  H   UNL     1      -9.647  18.856  65.403  1.00  0.00     0.000 HD 
HETATM    9  C   UNL     1      -9.251  16.891  66.935  1.00  0.00    -0.253 A  
HETATM   10  O   UNL     1      -8.835  18.967  65.885  1.00  0.00    -0.450 OA 
ENDROOT
BRANCH   4  11
HETATM   11  C   UNL     1      -6.247  19.405  67.411  1.00  0.00    -0.201 C  
HETATM   12  C   UNL     1      -5.559  19.606  66.040  1.00  0.00    -0.171 C  
HETATM   13  C   UNL     1      -6.965  20.758  67.688  1.00  0.00    -0.375 C  
HETATM   14  C   UNL     1      -5.163  19.218  68.490  1.00  0.00    -0.192 C  
ENDBRANCH   4  11
BRANCH   6  15
HETATM   15  C   UNL     1      -9.831  14.704  68.138  1.00  0.00    -0.224 C  
BRANCH  15  16
HETATM   16  C   UNL     1      -9.605  13.400  67.400  1.00  0.00    -0.223 A  
HETATM   17  N   UNL     1      -9.192  12.346  68.057  1.00  0.00    -0.198 NA 
HETATM   18  C   UNL     1      -9.104  11.263  67.044  1.00  0.00    -0.163 A  
HETATM   19  H   UNL     1      -8.976  12.282  69.052  1.00  0.00     0.000 HD 
HETATM   20  C   UNL     1      -9.642  11.834  65.727  1.00  0.00    -0.233 A  
HETATM   21  N   UNL     1      -9.902  13.210  66.079  1.00  0.00    -0.279 NA 
ENDBRANCH  15  16
ENDBRANCH   6  15
TORSDOF 3
ENDMDL
MODEL      118
REMARK 921   NORMALIZED FREE ENERGY PREDICTED BY IDOCK:   -3.72 KCAL/MOL
REMARK 922        TOTAL FREE ENERGY PREDICTED BY IDOCK:   -4.70 KCAL/MOL
REMARK 923 INTER-LIGAND FREE ENERGY PREDICTED BY IDOCK:   -4.49 KCAL/MOL
REMARK 924 INTRA-LIGAND FREE ENERGY PREDICTED BY IDOCK:   -0.21 KCAL/MOL
REMARK 927      BINDING AFFINITY PREDICTED BY RF-SCORE:    0.00 PKD
ROOT
HETATM    1  C   UNL     1      -9.520   3.265  69.587  1.00  0.00    -0.209 C  
HETATM    2  C   UNL     1      -9.801   4.743  69.505  1.00  0.00    -0.292 A  
HETATM    3  C   UNL     1      -9.912   5.448  70.719  1.00  0.00    -0.269 A  
HETATM    4  C   UNL     1     -10.265   6.810  70.803  1.00  0.00    -0.215 A  
HETATM    5  C   UNL     1     -10.428   7.463  69.569  1.00  0.00    -0.232 A  
HETATM    6  C   UNL     1     -10.022   5.410  68.285  1.00  0.00    -0.212 A  
HETATM    7  C   UNL     1     -10.518   7.567  67.033  1.00  0.00    -0.409 C  
HETATM    8  H   UNL     1     -10.813   9.245  68.675  1.00  0.00     0.000 HD 
HETATM    9  C   UNL     1     -10.311   6.798  68.320  1.00  0.00    -0.215 A  
HETATM   10  O   UNL     1     -10.703   8.803  69.509  1.00  0.00    -0.228 OA 
ENDROOT
BRANCH   4  11
HETATM   11  C   UNL     1     -10.396   7.452  72.210  1.00  0.00    -0.251 C  
HETATM   12  C   UNL     1     -11.742   8.160  72.492  1.00  0.00    -0.457 C  
HETATM   13  C   UNL     1     -10.257   6.410  73.357  1.00  0.00    -0.248 C  
HETATM   14  C   UNL     1      -9.253   8.476  72.364  1.00  0.00    -0.328 C  
ENDBRANCH   4  11
BRANCH   6  15
HETATM   15  C   UNL     1     -10.033   4.634  66.976  1.00  0.00    -0.227 C  
BRANCH  15  16
HETATM   16  C   UNL     1      -8.867   4.825  66.028  1.00  0.00    -0.123 A  
HETATM   17  N   UNL     1      -9.085   5.251  64.809  1.00  0.00    -0.353 NA 
HETATM   18  C   UNL     1      -7.742   5.344  64.181  1.00  0.00    -0.086 A  
HETATM   19  H   UNL     1      -9.986   5.471  64.382  1.00  0.00     0.000 HD 
HETATM   20  C   UNL     1      -6.713   5.015  65.268  1.00  0.00    -0.048 A  
HETATM   21  N   UNL     1      -7.557   4.676  66.389  1.00  0.00    -0.089 NA 
ENDBRANCH  15  16
ENDBRANCH   6  15
TORSDOF 3
ENDMDL
MODEL      119
REMARK 921   NORMALIZED FREE ENERGY PREDICTED BY IDOCK:   -3.72 KCAL/MOL
REMARK 922        TOTAL FREE ENERGY PREDICTED BY IDOCK:   -4.69 KCAL/MOL
REMARK 923 INTER-LIGAND FREE ENERGY PREDICTED BY IDOCK:   -4.44 KCAL/MOL
REMARK 924 INTRA-LIGAND FREE ENERGY PREDICTED BY IDOCK:   -0.25 KCAL/MOL
REMARK 927      BINDING AFFINITY PREDICTED BY RF-SCORE:    0.00 PKD
ROOT
HETATM    1  C   UNL     1     -12.144  12.667  65.465  1.00  0.00    -0.515 C  
HETATM    2  C   UNL     1     -10.876  12.934  66.234  1.00  0.00    -0.295 A  
HETATM    3  C   UNL     1     -10.676  14.242  66.717  1.00  0.00    -0.287 A  
HETATM    4  C   UNL     1      -9.500  14.664  67.369  1.00  0.00    -0.201 A  
HETATM    5  C   UNL     1      -8.543  13.658  67.587  1.00  0.00    -0.185 A  
HETATM    6  C   UNL     1      -9.878  11.958  66.419  1.00  0.00    -0.234 A  
HETATM    7  C   UNL     1      -7.623  11.298  67.391  1.00  0.00    -0.120 C  
HETATM    8  H   UNL     1      -6.739  13.238  68.418  1.00  0.00     0.000 HD 
HETATM    9  C   UNL     1      -8.707  12.321  67.133  1.00  0.00    -0.193 A  
HETATM   10  O   UNL     1      -7.386  13.918  68.271  1.00  0.00    -0.095 OA 
ENDROOT
BRANCH   4  11
HETATM   11  C   UNL     1      -9.394  16.148  67.810  1.00  0.00    -0.211 C  
HETATM   12  C   UNL     1     -10.619  17.029  67.470  1.00  0.00    -0.310 C  
HETATM   13  C   UNL     1      -9.219  16.302  69.349  1.00  0.00    -0.114 C  
HETATM   14  C   UNL     1      -8.146  16.748  67.132  1.00  0.00    -0.210 C  
ENDBRANCH   4  11
BRANCH   6  15
HETATM   15  C   UNL     1     -10.025  10.580  65.793  1.00  0.00    -0.318 C  
BRANCH  15  16
HETATM   16  C   UNL     1      -9.306  10.314  64.485  1.00  0.00    -0.276 A  
HETATM   17  N   UNL     1      -9.038   9.082  64.132  1.00  0.00    -0.397 NA 
HETATM   18  C   UNL     1      -8.364   9.192  62.813  1.00  0.00    -0.197 A  
HETATM   19  H   UNL     1      -9.247   8.229  64.652  1.00  0.00     0.000 HD 
HETATM   20  C   UNL     1      -8.392  10.672  62.414  1.00  0.00    -0.226 A  
HETATM   21  N   UNL     1      -8.994  11.285  63.575  1.00  0.00    -0.055 NA 
ENDBRANCH  15  16
ENDBRANCH   6  15
TORSDOF 3
ENDMDL
MODEL      120
REMARK 921   NORMALIZED FREE ENERGY PREDICTED BY IDOCK:   -3.71 KCAL/MOL
REMARK 922        TOTAL FREE ENERGY PREDICTED BY IDOCK:   -4.68 KCAL/MOL
REMARK 923 INTER-LIGAND FREE ENERGY PREDICTED BY IDOCK:   -4.35 KCAL/MOL
REMARK 924 INTRA-LIGAND FREE ENERGY PREDICTED BY IDOCK:   -0.33 KCAL/MOL
REMARK 927      BINDING AFFINITY PREDICTED BY RF-SCORE:    0.00 PKD
ROOT
HETATM    1  C   UNL     1      -6.748   8.490  68.660  1.00  0.00    -0.059 C  
HETATM    2  C   UNL     1      -8.137   7.955  68.896  1.00  0.00    -0.125 A  
HETATM    3  C   UNL     1      -8.621   7.977  70.219  1.00  0.00    -0.132 A  
HETATM    4  C   UNL     1      -9.858   7.425  70.607  1.00  0.00    -0.179 A  
HETATM    5  C   UNL     1     -10.640   6.909  69.558  1.00  0.00    -0.236 A  
HETATM    6  C   UNL     1      -8.917   7.384  67.873  1.00  0.00    -0.131 A  
HETATM    7  C   UNL     1     -11.092   6.293  67.136  1.00  0.00    -0.389 C  
HETATM    8  H   UNL     1     -12.421   6.059  69.080  1.00  0.00     0.000 HD 
HETATM    9  C   UNL     1     -10.201   6.881  68.207  1.00  0.00    -0.201 A  
HETATM   10  O   UNL     1     -11.892   6.408  69.789  1.00  0.00    -0.357 OA 
ENDROOT
BRANCH   4  11
HETATM   11  C   UNL     1     -10.250   7.476  72.108  1.00  0.00    -0.238 C  
HETATM   12  C   UNL     1     -10.552   6.106  72.761  1.00  0.00    -0.254 C  
HETATM   13  C   UNL     1      -9.129   8.092  72.996  1.00  0.00    -0.331 C  
HETATM   14  C   UNL     1     -11.496   8.374  72.235  1.00  0.00    -0.454 C  
ENDBRANCH   4  11
BRANCH   6  15
HETATM   15  C   UNL     1      -8.354   7.239  66.467  1.00  0.00    -0.121 C  
BRANCH  15  16
HETATM   16  C   UNL     1      -8.438   8.436  65.542  1.00  0.00    -0.168 A  
HETATM   17  N   UNL     1      -9.603   8.979  65.288  1.00  0.00    -0.448 NA 
HETATM   18  C   UNL     1      -9.312  10.120  64.382  1.00  0.00    -0.293 A  
HETATM   19  H   UNL     1     -10.514   8.681  65.637  1.00  0.00     0.000 HD 
HETATM   20  C   UNL     1      -7.788  10.215  64.251  1.00  0.00    -0.140 A  
HETATM   21  N   UNL     1      -7.348   9.071  65.014  1.00  0.00    -0.094 NA 
ENDBRANCH  15  16
ENDBRANCH   6  15
TORSDOF 3
ENDMDL
MODEL      121
REMARK 921   NORMALIZED FREE ENERGY PREDICTED BY IDOCK:   -3.69 KCAL/MOL
REMARK 922        TOTAL FREE ENERGY PREDICTED BY IDOCK:   -4.66 KCAL/MOL
REMARK 923 INTER-LIGAND FREE ENERGY PREDICTED BY IDOCK:   -4.38 KCAL/MOL
REMARK 924 INTRA-LIGAND FREE ENERGY PREDICTED BY IDOCK:   -0.28 KCAL/MOL
REMARK 927      BINDING AFFINITY PREDICTED BY RF-SCORE:    0.00 PKD
ROOT
HETATM    1  C   UNL     1      -9.885   9.582  70.230  1.00  0.00    -0.313 C  
HETATM    2  C   UNL     1      -9.615   8.108  70.079  1.00  0.00    -0.171 A  
HETATM    3  C   UNL     1      -9.025   7.678  68.874  1.00  0.00    -0.137 A  
HETATM    4  C   UNL     1      -8.802   6.325  68.552  1.00  0.00    -0.114 A  
HETATM    5  C   UNL     1      -9.137   5.406  69.561  1.00  0.00    -0.112 A  
HETATM    6  C   UNL     1      -9.990   7.161  71.052  1.00  0.00    -0.192 A  
HETATM    7  C   UNL     1     -10.068   4.741  71.829  1.00  0.00    -0.261 C  
HETATM    8  H   UNL     1      -9.131   3.444  70.085  1.00  0.00     0.000 HD 
HETATM    9  C   UNL     1      -9.718   5.792  70.798  1.00  0.00    -0.220 A  
HETATM   10  O   UNL     1      -8.905   4.066  69.403  1.00  0.00    -0.080 OA 
ENDROOT
BRANCH   4  11
HETATM   11  C   UNL     1      -8.184   5.990  67.168  1.00  0.00    -0.105 C  
HETATM   12  C   UNL     1      -7.765   7.212  66.316  1.00  0.00    -0.100 C  
HETATM   13  C   UNL     1      -6.889   5.134  67.284  1.00  0.00    -0.060 C  
HETATM   14  C   UNL     1      -9.223   5.167  66.380  1.00  0.00    -0.141 C  
ENDBRANCH   4  11
BRANCH   6  15
HETATM   15  C   UNL     1     -10.744   7.598  72.299  1.00  0.00    -0.311 C  
BRANCH  15  16
HETATM   16  C   UNL     1     -12.238   7.818  72.185  1.00  0.00    -0.285 A  
HETATM   17  N   UNL     1     -12.791   8.840  72.789  1.00  0.00    -0.577 NA 
HETATM   18  C   UNL     1     -14.235   8.760  72.450  1.00  0.00    -0.385 A  
HETATM   19  H   UNL     1     -12.329   9.541  73.369  1.00  0.00     0.000 HD 
HETATM   20  C   UNL     1     -14.403   7.599  71.463  1.00  0.00    -0.452 A  
HETATM   21  N   UNL     1     -13.063   7.064  71.398  1.00  0.00    -0.360 NA 
ENDBRANCH  15  16
ENDBRANCH   6  15
TORSDOF 3
ENDMDL
MODEL      122
REMARK 921   NORMALIZED FREE ENERGY PREDICTED BY IDOCK:   -3.66 KCAL/MOL
REMARK 922        TOTAL FREE ENERGY PREDICTED BY IDOCK:   -4.63 KCAL/MOL
REMARK 923 INTER-LIGAND FREE ENERGY PREDICTED BY IDOCK:   -4.50 KCAL/MOL
REMARK 924 INTRA-LIGAND FREE ENERGY PREDICTED BY IDOCK:   -0.13 KCAL/MOL
REMARK 927      BINDING AFFINITY PREDICTED BY RF-SCORE:    0.00 PKD
ROOT
HETATM    1  C   UNL     1      -6.722  12.133  68.674  1.00  0.00    -0.081 C  
HETATM    2  C   UNL     1      -8.046  11.959  67.978  1.00  0.00    -0.151 A  
HETATM    3  C   UNL     1      -8.663  13.116  67.463  1.00  0.00    -0.201 A  
HETATM    4  C   UNL     1      -9.943  13.123  66.873  1.00  0.00    -0.245 A  
HETATM    5  C   UNL     1     -10.554  11.863  66.753  1.00  0.00    -0.229 A  
HETATM    6  C   UNL     1      -8.704  10.717  67.892  1.00  0.00    -0.127 A  
HETATM    7  C   UNL     1     -10.693   9.350  67.091  1.00  0.00    -0.234 C  
HETATM    8  H   UNL     1     -12.180  10.869  66.054  1.00  0.00     0.000 HD 
HETATM    9  C   UNL     1      -9.964  10.667  67.242  1.00  0.00    -0.224 A  
HETATM   10  O   UNL     1     -11.767  11.721  66.135  1.00  0.00    -0.462 OA 
ENDROOT
BRANCH   4  11
HETATM   11  C   UNL     1     -10.522  14.478  66.387  1.00  0.00    -0.295 C  
HETATM   12  C   UNL     1      -9.591  15.700  66.569  1.00  0.00    -0.293 C  
HETATM   13  C   UNL     1     -10.863  14.472  64.869  1.00  0.00    -0.436 C  
HETATM   14  C   UNL     1     -11.831  14.731  67.162  1.00  0.00    -0.307 C  
ENDBRANCH   4  11
BRANCH   6  15
HETATM   15  C   UNL     1      -8.109   9.485  68.557  1.00  0.00    -0.101 C  
BRANCH  15  16
HETATM   16  C   UNL     1      -8.823   8.917  69.767  1.00  0.00    -0.144 A  
HETATM   17  N   UNL     1      -9.357   9.729  70.645  1.00  0.00    -0.322 NA 
HETATM   18  C   UNL     1      -9.981   8.847  71.664  1.00  0.00    -0.327 A  
HETATM   19  H   UNL     1      -9.348  10.749  70.630  1.00  0.00     0.000 HD 
HETATM   20  C   UNL     1      -9.818   7.404  71.172  1.00  0.00    -0.174 A  
HETATM   21  N   UNL     1      -9.041   7.583  69.969  1.00  0.00    -0.148 NA 
ENDBRANCH  15  16
ENDBRANCH   6  15
TORSDOF 3
ENDMDL
MODEL      123
REMARK 921   NORMALIZED FREE ENERGY PREDICTED BY IDOCK:   -3.63 KCAL/MOL
REMARK 922        TOTAL FREE ENERGY PREDICTED BY IDOCK:   -4.59 KCAL/MOL
REMARK 923 INTER-LIGAND FREE ENERGY PREDICTED BY IDOCK:   -4.37 KCAL/MOL
REMARK 924 INTRA-LIGAND FREE ENERGY PREDICTED BY IDOCK:   -0.22 KCAL/MOL
REMARK 927      BINDING AFFINITY PREDICTED BY RF-SCORE:    0.00 PKD
ROOT
HETATM    1  C   UNL     1     -10.396   9.011  71.880  1.00  0.00    -0.357 C  
HETATM    2  C   UNL     1     -10.363   8.806  70.388  1.00  0.00    -0.230 A  
HETATM    3  C   UNL     1     -10.087   9.932  69.587  1.00  0.00    -0.254 A  
HETATM    4  C   UNL     1     -10.117   9.916  68.178  1.00  0.00    -0.193 A  
HETATM    5  C   UNL     1     -10.366   8.659  67.599  1.00  0.00    -0.254 A  
HETATM    6  C   UNL     1     -10.662   7.571  69.781  1.00  0.00    -0.249 A  
HETATM    7  C   UNL     1     -10.909   6.179  67.668  1.00  0.00    -0.421 C  
HETATM    8  H   UNL     1     -10.521   7.641  65.849  1.00  0.00     0.000 HD 
HETATM    9  C   UNL     1     -10.632   7.493  68.365  1.00  0.00    -0.177 A  
HETATM   10  O   UNL     1     -10.352   8.491  66.241  1.00  0.00    -0.185 OA 
ENDROOT
BRANCH   4  11
HETATM   11  C   UNL     1      -9.838  11.241  67.420  1.00  0.00    -0.201 C  
HETATM   12  C   UNL     1      -9.400  12.431  68.306  1.00  0.00    -0.199 C  
HETATM   13  C   UNL     1      -8.699  11.098  66.369  1.00  0.00    -0.177 C  
HETATM   14  C   UNL     1     -11.126  11.628  66.667  1.00  0.00    -0.364 C  
ENDBRANCH   4  11
BRANCH   6  15
HETATM   15  C   UNL     1     -11.086   6.381  70.629  1.00  0.00    -0.376 C  
BRANCH  15  16
HETATM   16  C   UNL     1     -10.007   5.434  71.112  1.00  0.00    -0.196 A  
HETATM   17  N   UNL     1      -9.300   5.741  72.171  1.00  0.00    -0.146 NA 
HETATM   18  C   UNL     1      -8.371   4.598  72.367  1.00  0.00    -0.115 A  
HETATM   19  H   UNL     1      -9.372   6.585  72.740  1.00  0.00     0.000 HD 
HETATM   20  C   UNL     1      -8.736   3.538  71.322  1.00  0.00    -0.078 A  
HETATM   21  N   UNL     1      -9.773   4.201  70.568  1.00  0.00    -0.195 NA 
ENDBRANCH  15  16
ENDBRANCH   6  15
TORSDOF 3
ENDMDL
MODEL      124
REMARK 921   NORMALIZED FREE ENERGY PREDICTED BY IDOCK:   -3.62 KCAL/MOL
REMARK 922        TOTAL FREE ENERGY PREDICTED BY IDOCK:   -4.58 KCAL/MOL
REMARK 923 INTER-LIGAND FREE ENERGY PREDICTED BY IDOCK:   -7.32 KCAL/MOL
REMARK 924 INTRA-LIGAND FREE ENERGY PREDICTED BY IDOCK:    2.75 KCAL/MOL
REMARK 927      BINDING AFFINITY PREDICTED BY RF-SCORE:    0.00 PKD
ROOT
HETATM    1  C   UNL     1     -10.842  14.978  64.777  1.00  0.00    -0.375 C  
HETATM    2  C   UNL     1     -10.856  15.506  66.188  1.00  0.00    -0.295 A  
HETATM    3  C   UNL     1     -10.180  16.717  66.432  1.00  0.00    -0.329 A  
HETATM    4  C   UNL     1     -10.027  17.282  67.714  1.00  0.00    -0.301 A  
HETATM    5  C   UNL     1     -10.672  16.592  68.754  1.00  0.00    -0.339 A  
HETATM    6  C   UNL     1     -11.448  14.806  67.257  1.00  0.00    -0.378 A  
HETATM    7  C   UNL     1     -12.033  14.681  69.728  1.00  0.00    -0.378 C  
HETATM    8  H   UNL     1     -11.097  16.604  70.739  1.00  0.00     0.000 HD 
HETATM    9  C   UNL     1     -11.379  15.376  68.554  1.00  0.00    -0.342 A  
HETATM   10  O   UNL     1     -10.661  17.071  70.036  1.00  0.00    -0.149 OA 
ENDROOT
BRANCH   4  11
HETATM   11  C   UNL     1      -9.219  18.601  67.846  1.00  0.00    -0.316 C  
HETATM   12  C   UNL     1      -9.003  19.380  66.526  1.00  0.00    -0.391 C  
HETATM   13  C   UNL     1      -9.902  19.627  68.796  1.00  0.00    -0.519 C  
HETATM   14  C   UNL     1      -7.844  18.247  68.445  1.00  0.00    -0.318 C  
ENDBRANCH   4  11
BRANCH   6  15
HETATM   15  C   UNL     1     -12.068  13.436  67.028  1.00  0.00    -0.390 C  
BRANCH  15  16
HETATM   16  C   UNL     1     -11.969  12.834  65.641  1.00  0.00    -0.452 A  
HETATM   17  N   UNL     1     -12.969  12.964  64.805  1.00  0.00    -0.788 NA 
HETATM   18  C   UNL     1     -12.526  12.287  63.559  1.00  0.00    -0.534 A  
HETATM   19  H   UNL     1     -13.861  13.430  64.974  1.00  0.00     0.000 HD 
HETATM   20  C   UNL     1     -11.072  11.851  63.775  1.00  0.00    -0.436 A  
HETATM   21  N   UNL     1     -10.844  12.233  65.149  1.00  0.00    -0.291 NA 
ENDBRANCH  15  16
ENDBRANCH   6  15
TORSDOF 3
ENDMDL
MODEL      125
REMARK 921   NORMALIZED FREE ENERGY PREDICTED BY IDOCK:   -3.58 KCAL/MOL
REMARK 922        TOTAL FREE ENERGY PREDICTED BY IDOCK:   -4.54 KCAL/MOL
REMARK 923 INTER-LIGAND FREE ENERGY PREDICTED BY IDOCK:   -4.20 KCAL/MOL
REMARK 924 INTRA-LIGAND FREE ENERGY PREDICTED BY IDOCK:   -0.34 KCAL/MOL
REMARK 927      BINDING AFFINITY PREDICTED BY RF-SCORE:    0.00 PKD
ROOT
HETATM    1  C   UNL     1      -8.617   8.377  72.378  1.00  0.00    -0.261 C  
HETATM    2  C   UNL     1      -8.854   8.134  70.910  1.00  0.00    -0.156 A  
HETATM    3  C   UNL     1      -8.025   8.817  69.999  1.00  0.00    -0.108 A  
HETATM    4  C   UNL     1      -8.190   8.764  68.601  1.00  0.00    -0.117 A  
HETATM    5  C   UNL     1      -9.206   7.905  68.150  1.00  0.00    -0.136 A  
HETATM    6  C   UNL     1      -9.900   7.320  70.432  1.00  0.00    -0.183 A  
HETATM    7  C   UNL     1     -11.141   6.289  68.467  1.00  0.00    -0.397 C  
HETATM    8  H   UNL     1     -10.112   7.126  66.508  1.00  0.00     0.000 HD 
HETATM    9  C   UNL     1     -10.056   7.182  69.029  1.00  0.00    -0.183 A  
HETATM   10  O   UNL     1      -9.425   7.707  66.813  1.00  0.00    -0.169 OA 
ENDROOT
BRANCH   4  11
HETATM   11  C   UNL     1      -7.233   9.604  67.714  1.00  0.00    -0.085 C  
HETATM   12  C   UNL     1      -6.551   8.831  66.559  1.00  0.00    -0.063 C  
HETATM   13  C   UNL     1      -7.955  10.792  67.014  1.00  0.00    -0.124 C  
HETATM   14  C   UNL     1      -6.142  10.192  68.631  1.00  0.00    -0.044 C  
ENDBRANCH   4  11
BRANCH   6  15
HETATM   15  C   UNL     1     -10.880   6.680  71.403  1.00  0.00    -0.282 C  
BRANCH  15  16
HETATM   16  C   UNL     1     -12.168   7.420  71.703  1.00  0.00    -0.330 A  
HETATM   17  N   UNL     1     -12.119   8.641  72.176  1.00  0.00    -0.366 NA 
HETATM   18  C   UNL     1     -13.537   9.058  72.326  1.00  0.00    -0.484 A  
HETATM   19  H   UNL     1     -11.286   9.187  72.394  1.00  0.00     0.000 HD 
HETATM   20  C   UNL     1     -14.402   7.928  71.757  1.00  0.00    -0.475 A  
HETATM   21  N   UNL     1     -13.413   6.932  71.418  1.00  0.00    -0.239 NA 
ENDBRANCH  15  16
ENDBRANCH   6  15
TORSDOF 3
ENDMDL
MODEL      126
REMARK 921   NORMALIZED FREE ENERGY PREDICTED BY IDOCK:   -3.58 KCAL/MOL
REMARK 922        TOTAL FREE ENERGY PREDICTED BY IDOCK:   -4.54 KCAL/MOL
REMARK 923 INTER-LIGAND FREE ENERGY PREDICTED BY IDOCK:   -4.30 KCAL/MOL
REMARK 924 INTRA-LIGAND FREE ENERGY PREDICTED BY IDOCK:   -0.24 KCAL/MOL
REMARK 927      BINDING AFFINITY PREDICTED BY RF-SCORE:    0.00 PKD
ROOT
HETATM    1  C   UNL     1     -10.090  10.817  69.033  1.00  0.00    -0.225 C  
HETATM    2  C   UNL     1     -10.263   9.323  69.108  1.00  0.00    -0.214 A  
HETATM    3  C   UNL     1     -10.132   8.719  70.374  1.00  0.00    -0.223 A  
HETATM    4  C   UNL     1     -10.172   7.327  70.585  1.00  0.00    -0.202 A  
HETATM    5  C   UNL     1     -10.437   6.555  69.440  1.00  0.00    -0.221 A  
HETATM    6  C   UNL     1     -10.474   8.522  67.969  1.00  0.00    -0.249 A  
HETATM    7  C   UNL     1     -10.859   6.221  66.958  1.00  0.00    -0.458 C  
HETATM    8  H   UNL     1     -10.751   4.674  68.744  1.00  0.00     0.000 HD 
HETATM    9  C   UNL     1     -10.593   7.119  68.146  1.00  0.00    -0.241 A  
HETATM   10  O   UNL     1     -10.572   5.196  69.518  1.00  0.00    -0.239 OA 
ENDROOT
BRANCH   4  11
HETATM   11  C   UNL     1      -9.968   6.793  72.028  1.00  0.00    -0.183 C  
HETATM   12  C   UNL     1      -9.793   7.879  73.116  1.00  0.00    -0.357 C  
HETATM   13  C   UNL     1     -11.169   5.937  72.523  1.00  0.00    -0.341 C  
HETATM   14  C   UNL     1      -8.719   5.891  72.020  1.00  0.00    -0.137 C  
ENDBRANCH   4  11
BRANCH   6  15
HETATM   15  C   UNL     1     -10.490   9.147  66.582  1.00  0.00    -0.237 C  
BRANCH  15  16
HETATM   16  C   UNL     1      -9.172   9.272  65.846  1.00  0.00    -0.219 A  
HETATM   17  N   UNL     1      -8.071   8.837  66.408  1.00  0.00    -0.102 NA 
HETATM   18  C   UNL     1      -6.998   9.092  65.413  1.00  0.00    -0.080 A  
HETATM   19  H   UNL     1      -7.973   8.414  67.331  1.00  0.00     0.000 HD 
HETATM   20  C   UNL     1      -7.674   9.635  64.149  1.00  0.00    -0.129 A  
HETATM   21  N   UNL     1      -9.054   9.728  64.562  1.00  0.00    -0.239 NA 
ENDBRANCH  15  16
ENDBRANCH   6  15
TORSDOF 3
ENDMDL
MODEL      127
REMARK 921   NORMALIZED FREE ENERGY PREDICTED BY IDOCK:   -3.57 KCAL/MOL
REMARK 922        TOTAL FREE ENERGY PREDICTED BY IDOCK:   -4.52 KCAL/MOL
REMARK 923 INTER-LIGAND FREE ENERGY PREDICTED BY IDOCK:   -4.17 KCAL/MOL
REMARK 924 INTRA-LIGAND FREE ENERGY PREDICTED BY IDOCK:   -0.36 KCAL/MOL
REMARK 927      BINDING AFFINITY PREDICTED BY RF-SCORE:    0.00 PKD
ROOT
HETATM    1  C   UNL     1      -6.924  10.753  66.090  1.00  0.00    -0.124 C  
HETATM    2  C   UNL     1      -8.332  10.775  66.622  1.00  0.00    -0.141 A  
HETATM    3  C   UNL     1      -9.147  11.862  66.250  1.00  0.00    -0.188 A  
HETATM    4  C   UNL     1     -10.451  12.067  66.745  1.00  0.00    -0.243 A  
HETATM    5  C   UNL     1     -10.936  11.056  67.593  1.00  0.00    -0.275 A  
HETATM    6  C   UNL     1      -8.824   9.804  67.516  1.00  0.00    -0.129 A  
HETATM    7  C   UNL     1     -10.744   8.896  68.914  1.00  0.00    -0.132 C  
HETATM    8  H   UNL     1     -12.540  10.415  68.660  1.00  0.00     0.000 HD 
HETATM    9  C   UNL     1     -10.158   9.934  67.983  1.00  0.00    -0.202 A  
HETATM   10  O   UNL     1     -12.212  11.098  68.086  1.00  0.00    -0.612 OA 
ENDROOT
BRANCH   4  11
HETATM   11  C   UNL     1     -11.222  13.333  66.286  1.00  0.00    -0.321 C  
HETATM   12  C   UNL     1     -11.787  14.214  67.425  1.00  0.00    -0.447 C  
HETATM   13  C   UNL     1     -10.336  14.301  65.448  1.00  0.00    -0.391 C  
HETATM   14  C   UNL     1     -12.388  12.870  65.390  1.00  0.00    -0.538 C  
ENDBRANCH   4  11
BRANCH   6  15
HETATM   15  C   UNL     1      -7.913   8.697  68.026  1.00  0.00    -0.107 C  
BRANCH  15  16
HETATM   16  C   UNL     1      -7.016   9.004  69.208  1.00  0.00    -0.057 A  
HETATM   17  N   UNL     1      -6.051   8.176  69.521  1.00  0.00    -0.033 NA 
HETATM   18  C   UNL     1      -5.373   8.791  70.691  1.00  0.00    -0.027 A  
HETATM   19  H   UNL     1      -5.816   7.297  69.061  1.00  0.00     0.000 HD 
HETATM   20  C   UNL     1      -6.029  10.157  70.926  1.00  0.00    -0.070 A  
HETATM   21  N   UNL     1      -7.078  10.161  69.933  1.00  0.00    -0.128 NA 
ENDBRANCH  15  16
ENDBRANCH   6  15
TORSDOF 3
ENDMDL
MODEL      128
REMARK 921   NORMALIZED FREE ENERGY PREDICTED BY IDOCK:   -3.54 KCAL/MOL
REMARK 922        TOTAL FREE ENERGY PREDICTED BY IDOCK:   -4.49 KCAL/MOL
REMARK 923 INTER-LIGAND FREE ENERGY PREDICTED BY IDOCK:   -4.22 KCAL/MOL
REMARK 924 INTRA-LIGAND FREE ENERGY PREDICTED BY IDOCK:   -0.26 KCAL/MOL
REMARK 927      BINDING AFFINITY PREDICTED BY RF-SCORE:    0.00 PKD
ROOT
HETATM    1  C   UNL     1     -11.032  11.423  68.958  1.00  0.00    -0.288 C  
HETATM    2  C   UNL     1     -10.331  10.137  68.603  1.00  0.00    -0.208 A  
HETATM    3  C   UNL     1     -10.626   9.004  69.386  1.00  0.00    -0.231 A  
HETATM    4  C   UNL     1      -9.980   7.761  69.236  1.00  0.00    -0.182 A  
HETATM    5  C   UNL     1      -9.057   7.689  68.178  1.00  0.00    -0.132 A  
HETATM    6  C   UNL     1      -9.363  10.053  67.584  1.00  0.00    -0.159 A  
HETATM    7  C   UNL     1      -7.721   8.649  66.243  1.00  0.00    -0.098 C  
HETATM    8  H   UNL     1      -7.788   6.471  67.164  1.00  0.00     0.000 HD 
HETATM    9  C   UNL     1      -8.740   8.800  67.351  1.00  0.00    -0.132 A  
HETATM   10  O   UNL     1      -8.413   6.519  67.878  1.00  0.00    -0.118 OA 
ENDROOT
BRANCH   4  11
HETATM   11  C   UNL     1     -10.370   6.607  70.198  1.00  0.00    -0.236 C  
HETATM   12  C   UNL     1     -11.566   6.900  71.134  1.00  0.00    -0.363 C  
HETATM   13  C   UNL     1     -10.778   5.310  69.440  1.00  0.00    -0.106 C  
HETATM   14  C   UNL     1      -9.134   6.279  71.058  1.00  0.00    -0.156 C  
ENDBRANCH   4  11
BRANCH   6  15
HETATM   15  C   UNL     1      -8.944  11.298  66.818  1.00  0.00    -0.173 C  
BRANCH  15  16
HETATM   16  C   UNL     1      -9.771  11.703  65.615  1.00  0.00    -0.236 A  
HETATM   17  N   UNL     1     -10.232  12.926  65.527  1.00  0.00    -0.288 NA 
HETATM   18  C   UNL     1     -10.963  12.975  64.234  1.00  0.00    -0.399 A  
HETATM   19  H   UNL     1     -10.115  13.682  66.201  1.00  0.00     0.000 HD 
HETATM   20  C   UNL     1     -10.750  11.623  63.544  1.00  0.00    -0.428 A  
HETATM   21  N   UNL     1      -9.998  10.893  64.537  1.00  0.00    -0.289 NA 
ENDBRANCH  15  16
ENDBRANCH   6  15
TORSDOF 3
ENDMDL
MODEL      129
REMARK 921   NORMALIZED FREE ENERGY PREDICTED BY IDOCK:   -3.51 KCAL/MOL
REMARK 922        TOTAL FREE ENERGY PREDICTED BY IDOCK:   -4.45 KCAL/MOL
REMARK 923 INTER-LIGAND FREE ENERGY PREDICTED BY IDOCK:   -4.38 KCAL/MOL
REMARK 924 INTRA-LIGAND FREE ENERGY PREDICTED BY IDOCK:   -0.08 KCAL/MOL
REMARK 927      BINDING AFFINITY PREDICTED BY RF-SCORE:    0.00 PKD
ROOT
HETATM    1  C   UNL     1     -10.002   8.786  71.715  1.00  0.00    -0.396 C  
HETATM    2  C   UNL     1      -9.839   8.560  70.235  1.00  0.00    -0.194 A  
HETATM    3  C   UNL     1      -8.975   9.428  69.540  1.00  0.00    -0.167 A  
HETATM    4  C   UNL     1      -8.796   9.400  68.142  1.00  0.00    -0.124 A  
HETATM    5  C   UNL     1      -9.487   8.377  67.471  1.00  0.00    -0.149 A  
HETATM    6  C   UNL     1     -10.561   7.577  69.530  1.00  0.00    -0.239 A  
HETATM    7  C   UNL     1     -11.079   6.402  67.335  1.00  0.00    -0.412 C  
HETATM    8  H   UNL     1      -9.812   7.502  65.667  1.00  0.00     0.000 HD 
HETATM    9  C   UNL     1     -10.356   7.467  68.130  1.00  0.00    -0.244 A  
HETATM   10  O   UNL     1      -9.345   8.194  66.121  1.00  0.00    -0.198 OA 
ENDROOT
BRANCH   4  11
HETATM   11  C   UNL     1      -7.847  10.446  67.500  1.00  0.00    -0.106 C  
HETATM   12  C   UNL     1      -6.631   9.860  66.742  1.00  0.00    -0.071 C  
HETATM   13  C   UNL     1      -8.566  11.339  66.447  1.00  0.00    -0.174 C  
HETATM   14  C   UNL     1      -7.335  11.366  68.625  1.00  0.00    -0.104 C  
ENDBRANCH   4  11
BRANCH   6  15
HETATM   15  C   UNL     1     -11.592   6.719  70.247  1.00  0.00    -0.417 C  
BRANCH  15  16
HETATM   16  C   UNL     1     -11.118   5.852  71.395  1.00  0.00    -0.248 A  
HETATM   17  N   UNL     1     -11.829   5.784  72.493  1.00  0.00    -0.443 NA 
HETATM   18  C   UNL     1     -11.094   4.843  73.378  1.00  0.00    -0.342 A  
HETATM   19  H   UNL     1     -12.701   6.273  72.697  1.00  0.00     0.000 HD 
HETATM   20  C   UNL     1      -9.912   4.295  72.570  1.00  0.00    -0.160 A  
HETATM   21  N   UNL     1     -10.023   5.035  71.335  1.00  0.00    -0.185 NA 
ENDBRANCH  15  16
ENDBRANCH   6  15
TORSDOF 3
ENDMDL
MODEL      130
REMARK 921   NORMALIZED FREE ENERGY PREDICTED BY IDOCK:   -3.51 KCAL/MOL
REMARK 922        TOTAL FREE ENERGY PREDICTED BY IDOCK:   -4.45 KCAL/MOL
REMARK 923 INTER-LIGAND FREE ENERGY PREDICTED BY IDOCK:   -4.35 KCAL/MOL
REMARK 924 INTRA-LIGAND FREE ENERGY PREDICTED BY IDOCK:   -0.11 KCAL/MOL
REMARK 927      BINDING AFFINITY PREDICTED BY RF-SCORE:    0.00 PKD
ROOT
HETATM    1  C   UNL     1      -7.319  12.680  68.408  1.00  0.00    -0.118 C  
HETATM    2  C   UNL     1      -8.245  12.317  67.278  1.00  0.00    -0.182 A  
HETATM    3  C   UNL     1      -9.319  13.191  67.015  1.00  0.00    -0.238 A  
HETATM    4  C   UNL     1     -10.319  12.935  66.056  1.00  0.00    -0.294 A  
HETATM    5  C   UNL     1     -10.137  11.765  65.299  1.00  0.00    -0.262 A  
HETATM    6  C   UNL     1      -8.117  11.124  66.541  1.00  0.00    -0.163 A  
HETATM    7  C   UNL     1      -8.944   9.612  64.671  1.00  0.00    -0.274 C  
HETATM    8  H   UNL     1     -10.876  10.644  63.776  1.00  0.00     0.000 HD 
HETATM    9  C   UNL     1      -9.062  10.861  65.516  1.00  0.00    -0.221 A  
HETATM   10  O   UNL     1     -10.998  11.436  64.287  1.00  0.00    -0.350 OA 
ENDROOT
BRANCH   4  11
HETATM   11  C   UNL     1     -11.471  13.963  65.901  1.00  0.00    -0.328 C  
HETATM   12  C   UNL     1     -12.781  13.403  65.298  1.00  0.00    -0.481 C  
HETATM   13  C   UNL     1     -11.904  14.584  67.261  1.00  0.00    -0.419 C  
HETATM   14  C   UNL     1     -10.959  15.106  65.003  1.00  0.00    -0.443 C  
ENDBRANCH   4  11
BRANCH   6  15
HETATM   15  C   UNL     1      -7.040  10.111  66.899  1.00  0.00    -0.091 C  
BRANCH  15  16
HETATM   16  C   UNL     1      -7.409   8.988  67.847  1.00  0.00    -0.084 A  
HETATM   17  N   UNL     1      -7.088   7.754  67.545  1.00  0.00    -0.081 NA 
HETATM   18  C   UNL     1      -7.573   6.935  68.686  1.00  0.00    -0.105 A  
HETATM   19  H   UNL     1      -6.608   7.426  66.707  1.00  0.00     0.000 HD 
HETATM   20  C   UNL     1      -8.118   7.907  69.739  1.00  0.00    -0.116 A  
HETATM   21  N   UNL     1      -7.982   9.180  69.073  1.00  0.00    -0.099 NA 
ENDBRANCH  15  16
ENDBRANCH   6  15
TORSDOF 3
ENDMDL
MODEL      131
REMARK 921   NORMALIZED FREE ENERGY PREDICTED BY IDOCK:   -3.51 KCAL/MOL
REMARK 922        TOTAL FREE ENERGY PREDICTED BY IDOCK:   -4.45 KCAL/MOL
REMARK 923 INTER-LIGAND FREE ENERGY PREDICTED BY IDOCK:   -4.08 KCAL/MOL
REMARK 924 INTRA-LIGAND FREE ENERGY PREDICTED BY IDOCK:   -0.37 KCAL/MOL
REMARK 927      BINDING AFFINITY PREDICTED BY RF-SCORE:    0.00 PKD
ROOT
HETATM    1  C   UNL     1     -11.129   6.173  66.852  1.00  0.00    -0.301 C  
HETATM    2  C   UNL     1     -10.398   5.927  68.146  1.00  0.00    -0.259 A  
HETATM    3  C   UNL     1     -11.063   6.271  69.339  1.00  0.00    -0.477 A  
HETATM    4  C   UNL     1     -10.472   6.188  70.615  1.00  0.00    -0.292 A  
HETATM    5  C   UNL     1      -9.172   5.654  70.640  1.00  0.00    -0.151 A  
HETATM    6  C   UNL     1      -9.076   5.444  68.195  1.00  0.00    -0.115 A  
HETATM    7  C   UNL     1      -7.062   4.726  69.571  1.00  0.00    -0.054 C  
HETATM    8  H   UNL     1      -7.632   5.093  71.838  1.00  0.00     0.000 HD 
HETATM    9  C   UNL     1      -8.467   5.278  69.465  1.00  0.00    -0.094 A  
HETATM   10  O   UNL     1      -8.510   5.454  71.821  1.00  0.00    -0.124 OA 
ENDROOT
BRANCH   4  11
HETATM   11  C   UNL     1     -11.304   6.642  71.844  1.00  0.00    -0.318 C  
HETATM   12  C   UNL     1     -11.507   5.569  72.939  1.00  0.00    -0.327 C  
HETATM   13  C   UNL     1     -10.656   7.843  72.593  1.00  0.00    -0.394 C  
HETATM   14  C   UNL     1     -12.684   7.097  71.331  1.00  0.00    -0.433 C  
ENDBRANCH   4  11
BRANCH   6  15
HETATM   15  C   UNL     1      -8.303   5.192  66.909  1.00  0.00    -0.107 C  
BRANCH  15  16
HETATM   16  C   UNL     1      -8.227   3.769  66.394  1.00  0.00    -0.100 A  
HETATM   17  N   UNL     1      -9.322   3.157  66.016  1.00  0.00    -0.297 NA 
HETATM   18  C   UNL     1      -8.881   1.816  65.556  1.00  0.00    -0.124 A  
HETATM   19  H   UNL     1     -10.274   3.525  66.034  1.00  0.00     0.000 HD 
HETATM   20  C   UNL     1      -7.350   1.797  65.623  1.00  0.00    -0.057 A  
HETATM   21  N   UNL     1      -7.058   3.089  66.198  1.00  0.00    -0.057 NA 
ENDBRANCH  15  16
ENDBRANCH   6  15
TORSDOF 3
ENDMDL
MODEL      132
REMARK 921   NORMALIZED FREE ENERGY PREDICTED BY IDOCK:   -3.48 KCAL/MOL
REMARK 922        TOTAL FREE ENERGY PREDICTED BY IDOCK:   -4.42 KCAL/MOL
REMARK 923 INTER-LIGAND FREE ENERGY PREDICTED BY IDOCK:   -4.07 KCAL/MOL
REMARK 924 INTRA-LIGAND FREE ENERGY PREDICTED BY IDOCK:   -0.35 KCAL/MOL
REMARK 927      BINDING AFFINITY PREDICTED BY RF-SCORE:    0.00 PKD
ROOT
HETATM    1  C   UNL     1     -11.027   6.474  67.520  1.00  0.00    -0.444 C  
HETATM    2  C   UNL     1     -10.184   7.353  68.406  1.00  0.00    -0.207 A  
HETATM    3  C   UNL     1      -9.603   6.758  69.544  1.00  0.00    -0.148 A  
HETATM    4  C   UNL     1      -8.871   7.473  70.513  1.00  0.00    -0.147 A  
HETATM    5  C   UNL     1      -8.679   8.837  70.232  1.00  0.00    -0.161 A  
HETATM    6  C   UNL     1     -10.020   8.733  68.177  1.00  0.00    -0.206 A  
HETATM    7  C   UNL     1      -8.993  10.955  68.866  1.00  0.00    -0.146 C  
HETATM    8  H   UNL     1      -7.796  10.552  70.867  1.00  0.00     0.000 HD 
HETATM    9  C   UNL     1      -9.230   9.478  69.091  1.00  0.00    -0.163 A  
HETATM   10  O   UNL     1      -7.926   9.630  71.056  1.00  0.00    -0.301 OA 
ENDROOT
BRANCH   4  11
HETATM   11  C   UNL     1      -8.325   6.699  71.742  1.00  0.00    -0.111 C  
HETATM   12  C   UNL     1      -6.788   6.735  71.917  1.00  0.00    -0.063 C  
HETATM   13  C   UNL     1      -8.882   7.248  73.088  1.00  0.00    -0.175 C  
HETATM   14  C   UNL     1      -8.778   5.232  71.609  1.00  0.00    -0.140 C  
ENDBRANCH   4  11
BRANCH   6  15
HETATM   15  C   UNL     1     -10.746   9.412  67.025  1.00  0.00    -0.207 C  
BRANCH  15  16
HETATM   16  C   UNL     1      -9.999   9.584  65.719  1.00  0.00    -0.245 A  
HETATM   17  N   UNL     1      -9.158   8.659  65.326  1.00  0.00    -0.413 NA 
HETATM   18  C   UNL     1      -8.636   9.136  64.019  1.00  0.00    -0.166 A  
HETATM   19  H   UNL     1      -8.915   7.797  65.813  1.00  0.00     0.000 HD 
HETATM   20  C   UNL     1      -9.395  10.422  63.672  1.00  0.00    -0.291 A  
HETATM   21  N   UNL     1     -10.213  10.615  64.846  1.00  0.00    -0.331 NA 
ENDBRANCH  15  16
ENDBRANCH   6  15
TORSDOF 3
ENDMDL
MODEL      133
REMARK 921   NORMALIZED FREE ENERGY PREDICTED BY IDOCK:   -3.46 KCAL/MOL
REMARK 922        TOTAL FREE ENERGY PREDICTED BY IDOCK:   -4.40 KCAL/MOL
REMARK 923 INTER-LIGAND FREE ENERGY PREDICTED BY IDOCK:   -4.06 KCAL/MOL
REMARK 924 INTRA-LIGAND FREE ENERGY PREDICTED BY IDOCK:   -0.33 KCAL/MOL
REMARK 927      BINDING AFFINITY PREDICTED BY RF-SCORE:    0.00 PKD
ROOT
HETATM    1  C   UNL     1     -10.580   6.786  67.533  1.00  0.00    -0.348 C  
HETATM    2  C   UNL     1      -9.853   7.321  68.738  1.00  0.00    -0.161 A  
HETATM    3  C   UNL     1     -10.094   6.687  69.973  1.00  0.00    -0.199 A  
HETATM    4  C   UNL     1      -9.562   7.134  71.199  1.00  0.00    -0.164 A  
HETATM    5  C   UNL     1      -8.688   8.231  71.108  1.00  0.00    -0.147 A  
HETATM    6  C   UNL     1      -9.015   8.452  68.684  1.00  0.00    -0.140 A  
HETATM    7  C   UNL     1      -7.462  10.079  69.869  1.00  0.00    -0.171 C  
HETATM    8  H   UNL     1      -7.457   9.462  72.153  1.00  0.00     0.000 HD 
HETATM    9  C   UNL     1      -8.401   8.893  69.884  1.00  0.00    -0.128 A  
HETATM   10  O   UNL     1      -8.048   8.720  72.215  1.00  0.00    -0.356 OA 
ENDROOT
BRANCH   4  11
HETATM   11  C   UNL     1      -9.947   6.368  72.492  1.00  0.00    -0.183 C  
HETATM   12  C   UNL     1     -10.545   7.238  73.624  1.00  0.00    -0.353 C  
HETATM   13  C   UNL     1     -11.020   5.269  72.238  1.00  0.00    -0.249 C  
HETATM   14  C   UNL     1      -8.677   5.672  73.018  1.00  0.00    -0.121 C  
ENDBRANCH   4  11
BRANCH   6  15
HETATM   15  C   UNL     1      -8.847   9.221  67.382  1.00  0.00    -0.124 C  
BRANCH  15  16
HETATM   16  C   UNL     1      -9.668  10.480  67.191  1.00  0.00    -0.171 A  
HETATM   17  N   UNL     1      -9.152  11.500  66.551  1.00  0.00    -0.189 NA 
HETATM   18  C   UNL     1     -10.222  12.530  66.530  1.00  0.00    -0.240 A  
HETATM   19  H   UNL     1      -8.216  11.571  66.152  1.00  0.00     0.000 HD 
HETATM   20  C   UNL     1     -11.469  11.897  67.158  1.00  0.00    -0.319 A  
HETATM   21  N   UNL     1     -10.978  10.601  67.562  1.00  0.00    -0.300 NA 
ENDBRANCH  15  16
ENDBRANCH   6  15
TORSDOF 3
ENDMDL
MODEL      134
REMARK 921   NORMALIZED FREE ENERGY PREDICTED BY IDOCK:   -3.45 KCAL/MOL
REMARK 922        TOTAL FREE ENERGY PREDICTED BY IDOCK:   -4.38 KCAL/MOL
REMARK 923 INTER-LIGAND FREE ENERGY PREDICTED BY IDOCK:   -4.05 KCAL/MOL
REMARK 924 INTRA-LIGAND FREE ENERGY PREDICTED BY IDOCK:   -0.33 KCAL/MOL
REMARK 927      BINDING AFFINITY PREDICTED BY RF-SCORE:    0.00 PKD
ROOT
HETATM    1  C   UNL     1     -10.194   9.206  66.720  1.00  0.00    -0.331 C  
HETATM    2  C   UNL     1     -10.385   8.131  67.758  1.00  0.00    -0.295 A  
HETATM    3  C   UNL     1     -10.892   8.526  69.011  1.00  0.00    -0.026 A  
HETATM    4  C   UNL     1     -11.035   7.652  70.108  1.00  0.00    -0.255 A  
HETATM    5  C   UNL     1     -10.708   6.309  69.850  1.00  0.00    -0.294 A  
HETATM    6  C   UNL     1     -10.015   6.789  67.543  1.00  0.00    -0.180 A  
HETATM    7  C   UNL     1      -9.862   4.401  68.402  1.00  0.00    -0.132 C  
HETATM    8  H   UNL     1     -10.647   4.438  70.634  1.00  0.00     0.000 HD 
HETATM    9  C   UNL     1     -10.209   5.861  68.598  1.00  0.00    -0.243 A  
HETATM   10  O   UNL     1     -10.868   5.345  70.808  1.00  0.00    -0.222 OA 
ENDROOT
BRANCH   4  11
HETATM   11  C   UNL     1     -11.565   8.230  71.447  1.00  0.00    -0.322 C  
HETATM   12  C   UNL     1     -10.677   7.955  72.684  1.00  0.00    -0.411 C  
HETATM   13  C   UNL     1     -11.713   9.779  71.411  1.00  0.00    -0.475 C  
HETATM   14  C   UNL     1     -12.963   7.630  71.694  1.00  0.00    -0.385 C  
ENDBRANCH   4  11
BRANCH   6  15
HETATM   15  C   UNL     1      -9.348   6.376  66.240  1.00  0.00    -0.149 C  
BRANCH  15  16
HETATM   16  C   UNL     1      -7.884   6.718  66.052  1.00  0.00    -0.104 A  
HETATM   17  N   UNL     1      -7.454   7.105  64.877  1.00  0.00    -0.088 NA 
HETATM   18  C   UNL     1      -6.005   7.375  65.061  1.00  0.00    -0.038 A  
HETATM   19  H   UNL     1      -7.998   7.200  64.019  1.00  0.00     0.000 HD 
HETATM   20  C   UNL     1      -5.698   7.193  66.552  1.00  0.00    -0.030 A  
HETATM   21  N   UNL     1      -6.970   6.749  67.069  1.00  0.00    -0.068 NA 
ENDBRANCH  15  16
ENDBRANCH   6  15
TORSDOF 3
ENDMDL
MODEL      135
REMARK 921   NORMALIZED FREE ENERGY PREDICTED BY IDOCK:   -3.44 KCAL/MOL
REMARK 922        TOTAL FREE ENERGY PREDICTED BY IDOCK:   -4.37 KCAL/MOL
REMARK 923 INTER-LIGAND FREE ENERGY PREDICTED BY IDOCK:   -4.06 KCAL/MOL
REMARK 924 INTRA-LIGAND FREE ENERGY PREDICTED BY IDOCK:   -0.31 KCAL/MOL
REMARK 927      BINDING AFFINITY PREDICTED BY RF-SCORE:    0.00 PKD
ROOT
HETATM    1  C   UNL     1      -6.551  12.331  67.511  1.00  0.00    -0.141 C  
HETATM    2  C   UNL     1      -8.010  11.958  67.545  1.00  0.00    -0.155 A  
HETATM    3  C   UNL     1      -8.939  13.000  67.732  1.00  0.00    -0.191 A  
HETATM    4  C   UNL     1     -10.325  12.794  67.880  1.00  0.00    -0.228 A  
HETATM    5  C   UNL     1     -10.750  11.461  67.747  1.00  0.00    -0.211 A  
HETATM    6  C   UNL     1      -8.458  10.625  67.469  1.00  0.00    -0.121 A  
HETATM    7  C   UNL     1     -10.386   8.968  67.426  1.00  0.00    -0.335 C  
HETATM    8  H   UNL     1     -12.366  10.232  67.710  1.00  0.00     0.000 HD 
HETATM    9  C   UNL     1      -9.853  10.379  67.541  1.00  0.00    -0.202 A  
HETATM   10  O   UNL     1     -12.078  11.133  67.799  1.00  0.00    -0.606 OA 
ENDROOT
BRANCH   4  11
HETATM   11  C   UNL     1     -11.231  14.030  68.126  1.00  0.00    -0.299 C  
HETATM   12  C   UNL     1     -12.122  13.957  69.389  1.00  0.00    -0.384 C  
HETATM   13  C   UNL     1     -10.415  15.343  68.303  1.00  0.00    -0.241 C  
HETATM   14  C   UNL     1     -12.134  14.200  66.889  1.00  0.00    -0.466 C  
ENDBRANCH   4  11
BRANCH   6  15
HETATM   15  C   UNL     1      -7.457   9.481  67.396  1.00  0.00    -0.091 C  
BRANCH  15  16
HETATM   16  C   UNL     1      -6.952   9.066  66.029  1.00  0.00    -0.085 A  
HETATM   17  N   UNL     1      -7.788   8.562  65.155  1.00  0.00    -0.109 NA 
HETATM   18  C   UNL     1      -6.971   8.296  63.943  1.00  0.00    -0.076 A  
HETATM   19  H   UNL     1      -8.785   8.389  65.281  1.00  0.00     0.000 HD 
HETATM   20  C   UNL     1      -5.563   8.834  64.221  1.00  0.00    -0.064 A  
HETATM   21  N   UNL     1      -5.674   9.274  65.592  1.00  0.00    -0.052 NA 
ENDBRANCH  15  16
ENDBRANCH   6  15
TORSDOF 3
ENDMDL
MODEL      136
REMARK 921   NORMALIZED FREE ENERGY PREDICTED BY IDOCK:   -3.44 KCAL/MOL
REMARK 922        TOTAL FREE ENERGY PREDICTED BY IDOCK:   -4.37 KCAL/MOL
REMARK 923 INTER-LIGAND FREE ENERGY PREDICTED BY IDOCK:   -4.05 KCAL/MOL
REMARK 924 INTRA-LIGAND FREE ENERGY PREDICTED BY IDOCK:   -0.32 KCAL/MOL
REMARK 927      BINDING AFFINITY PREDICTED BY RF-SCORE:    0.00 PKD
ROOT
HETATM    1  C   UNL     1      -9.742   9.871  64.850  1.00  0.00    -0.332 C  
HETATM    2  C   UNL     1      -9.443  11.029  65.765  1.00  0.00    -0.242 A  
HETATM    3  C   UNL     1     -10.325  12.127  65.728  1.00  0.00    -0.289 A  
HETATM    4  C   UNL     1     -10.122  13.318  66.453  1.00  0.00    -0.290 A  
HETATM    5  C   UNL     1      -9.000  13.320  67.301  1.00  0.00    -0.217 A  
HETATM    6  C   UNL     1      -8.297  11.079  66.583  1.00  0.00    -0.155 A  
HETATM    7  C   UNL     1      -6.897  12.314  68.308  1.00  0.00    -0.075 C  
HETATM    8  H   UNL     1      -7.970  14.388  68.686  1.00  0.00     0.000 HD 
HETATM    9  C   UNL     1      -8.092  12.231  67.384  1.00  0.00    -0.175 A  
HETATM   10  O   UNL     1      -8.728  14.387  68.113  1.00  0.00    -0.160 OA 
ENDROOT
BRANCH   4  11
HETATM   11  C   UNL     1     -11.151  14.468  66.285  1.00  0.00    -0.332 C  
HETATM   12  C   UNL     1     -10.578  15.793  65.730  1.00  0.00    -0.369 C  
HETATM   13  C   UNL     1     -12.301  14.100  65.303  1.00  0.00    -0.469 C  
HETATM   14  C   UNL     1     -11.780  14.737  67.666  1.00  0.00    -0.364 C  
ENDBRANCH   4  11
BRANCH   6  15
HETATM   15  C   UNL     1      -7.271   9.957  66.535  1.00  0.00    -0.095 C  
BRANCH  15  16
HETATM   16  C   UNL     1      -7.462   8.780  67.470  1.00  0.00    -0.089 A  
HETATM   17  N   UNL     1      -6.493   7.914  67.629  1.00  0.00    -0.055 NA 
HETATM   18  C   UNL     1      -7.007   6.927  68.613  1.00  0.00    -0.076 A  
HETATM   19  H   UNL     1      -5.579   7.916  67.174  1.00  0.00     0.000 HD 
HETATM   20  C   UNL     1      -8.379   7.428  69.078  1.00  0.00    -0.126 A  
HETATM   21  N   UNL     1      -8.566   8.601  68.256  1.00  0.00    -0.137 NA 
ENDBRANCH  15  16
ENDBRANCH   6  15
TORSDOF 3
ENDMDL
MODEL      137
REMARK 921   NORMALIZED FREE ENERGY PREDICTED BY IDOCK:   -3.40 KCAL/MOL
REMARK 922        TOTAL FREE ENERGY PREDICTED BY IDOCK:   -4.32 KCAL/MOL
REMARK 923 INTER-LIGAND FREE ENERGY PREDICTED BY IDOCK:   -4.04 KCAL/MOL
REMARK 924 INTRA-LIGAND FREE ENERGY PREDICTED BY IDOCK:   -0.28 KCAL/MOL
REMARK 927      BINDING AFFINITY PREDICTED BY RF-SCORE:    0.00 PKD
ROOT
HETATM    1  C   UNL     1      -8.682   8.176  72.014  1.00  0.00    -0.221 C  
HETATM    2  C   UNL     1      -8.744   8.726  70.613  1.00  0.00    -0.208 A  
HETATM    3  C   UNL     1      -7.861   9.776  70.291  1.00  0.00    -0.190 A  
HETATM    4  C   UNL     1      -7.869  10.453  69.055  1.00  0.00    -0.120 A  
HETATM    5  C   UNL     1      -8.778   9.956  68.106  1.00  0.00    -0.122 A  
HETATM    6  C   UNL     1      -9.682   8.283  69.661  1.00  0.00    -0.173 A  
HETATM    7  C   UNL     1     -10.639   8.422  67.309  1.00  0.00    -0.328 C  
HETATM    8  H   UNL     1      -9.453  10.143  66.200  1.00  0.00     0.000 HD 
HETATM    9  C   UNL     1      -9.676   8.890  68.378  1.00  0.00    -0.175 A  
HETATM   10  O   UNL     1      -8.838  10.478  66.842  1.00  0.00    -0.136 OA 
ENDROOT
BRANCH   4  11
HETATM   11  C   UNL     1      -6.870  11.623  68.850  1.00  0.00    -0.101 C  
HETATM   12  C   UNL     1      -7.515  13.004  68.577  1.00  0.00    -0.123 C  
HETATM   13  C   UNL     1      -5.961  11.857  70.092  1.00  0.00    -0.159 C  
HETATM   14  C   UNL     1      -5.959  11.256  67.662  1.00  0.00    -0.051 C  
ENDBRANCH   4  11
BRANCH   6  15
HETATM   15  C   UNL     1     -10.724   7.241  70.037  1.00  0.00    -0.261 C  
BRANCH  15  16
HETATM   16  C   UNL     1     -11.988   7.716  70.724  1.00  0.00    -0.169 A  
HETATM   17  N   UNL     1     -12.238   9.000  70.806  1.00  0.00    -0.483 NA 
HETATM   18  C   UNL     1     -13.544   9.099  71.507  1.00  0.00    -0.345 A  
HETATM   19  H   UNL     1     -11.660   9.766  70.461  1.00  0.00     0.000 HD 
HETATM   20  C   UNL     1     -14.056   7.669  71.712  1.00  0.00    -0.398 A  
HETATM   21  N   UNL     1     -12.962   6.881  71.195  1.00  0.00    -0.277 NA 
ENDBRANCH  15  16
ENDBRANCH   6  15
TORSDOF 3
ENDMDL
MODEL      138
REMARK 921   NORMALIZED FREE ENERGY PREDICTED BY IDOCK:   -3.35 KCAL/MOL
REMARK 922        TOTAL FREE ENERGY PREDICTED BY IDOCK:   -4.26 KCAL/MOL
REMARK 923 INTER-LIGAND FREE ENERGY PREDICTED BY IDOCK:   -3.87 KCAL/MOL
REMARK 924 INTRA-LIGAND FREE ENERGY PREDICTED BY IDOCK:   -0.39 KCAL/MOL
REMARK 927      BINDING AFFINITY PREDICTED BY RF-SCORE:    0.00 PKD
ROOT
HETATM    1  C   UNL     1      -9.339   3.054  71.023  1.00  0.00    -0.214 C  
HETATM    2  C   UNL     1      -9.707   4.345  70.341  1.00  0.00    -0.284 A  
HETATM    3  C   UNL     1     -10.073   5.429  71.162  1.00  0.00    -0.276 A  
HETATM    4  C   UNL     1     -10.533   6.666  70.667  1.00  0.00    -0.253 A  
HETATM    5  C   UNL     1     -10.530   6.788  69.267  1.00  0.00    -0.215 A  
HETATM    6  C   UNL     1      -9.765   4.477  68.940  1.00  0.00    -0.224 A  
HETATM    7  C   UNL     1     -10.193   5.932  66.899  1.00  0.00    -0.262 C  
HETATM    8  H   UNL     1     -10.883   8.044  67.711  1.00  0.00     0.000 HD 
HETATM    9  C   UNL     1     -10.153   5.729  68.398  1.00  0.00    -0.216 A  
HETATM   10  O   UNL     1     -10.885   7.961  68.658  1.00  0.00    -0.087 OA 
ENDROOT
BRANCH   4  11
HETATM   11  C   UNL     1     -10.946   7.760  71.686  1.00  0.00    -0.272 C  
HETATM   12  C   UNL     1     -10.102   9.056  71.645  1.00  0.00    -0.405 C  
HETATM   13  C   UNL     1     -12.411   8.245  71.481  1.00  0.00    -0.340 C  
HETATM   14  C   UNL     1     -10.847   7.146  73.097  1.00  0.00    -0.373 C  
ENDBRANCH   4  11
BRANCH   6  15
HETATM   15  C   UNL     1      -9.497   3.278  68.044  1.00  0.00    -0.217 C  
BRANCH  15  16
HETATM   16  C   UNL     1      -8.054   2.926  67.742  1.00  0.00    -0.074 A  
HETATM   17  N   UNL     1      -7.234   3.856  67.322  1.00  0.00    -0.066 NA 
HETATM   18  C   UNL     1      -5.924   3.176  67.153  1.00  0.00    -0.024 A  
HETATM   19  H   UNL     1      -7.449   4.839  67.148  1.00  0.00     0.000 HD 
HETATM   20  C   UNL     1      -6.097   1.736  67.652  1.00  0.00    -0.024 A  
HETATM   21  N   UNL     1      -7.504   1.696  67.974  1.00  0.00    -0.046 NA 
ENDBRANCH  15  16
ENDBRANCH   6  15
TORSDOF 3
ENDMDL
MODEL      139
REMARK 921   NORMALIZED FREE ENERGY PREDICTED BY IDOCK:   -3.35 KCAL/MOL
REMARK 922        TOTAL FREE ENERGY PREDICTED BY IDOCK:   -4.26 KCAL/MOL
REMARK 923 INTER-LIGAND FREE ENERGY PREDICTED BY IDOCK:   -3.91 KCAL/MOL
REMARK 924 INTRA-LIGAND FREE ENERGY PREDICTED BY IDOCK:   -0.35 KCAL/MOL
REMARK 927      BINDING AFFINITY PREDICTED BY RF-SCORE:    0.00 PKD
ROOT
HETATM    1  C   UNL     1      -9.949   8.606  66.294  1.00  0.00    -0.287 C  
HETATM    2  C   UNL     1      -9.648  10.045  66.625  1.00  0.00    -0.234 A  
HETATM    3  C   UNL     1     -10.533  11.021  66.129  1.00  0.00    -0.301 A  
HETATM    4  C   UNL     1     -10.330  12.408  66.274  1.00  0.00    -0.267 A  
HETATM    5  C   UNL     1      -9.203  12.771  67.033  1.00  0.00    -0.221 A  
HETATM    6  C   UNL     1      -8.497  10.439  67.336  1.00  0.00    -0.121 A  
HETATM    7  C   UNL     1      -7.091  12.293  68.359  1.00  0.00    -0.094 C  
HETATM    8  H   UNL     1      -8.168  14.330  67.822  1.00  0.00     0.000 HD 
HETATM    9  C   UNL     1      -8.291  11.823  67.567  1.00  0.00    -0.154 A  
HETATM   10  O   UNL     1      -8.930  14.084  67.310  1.00  0.00    -0.197 OA 
ENDROOT
BRANCH   4  11
HETATM   11  C   UNL     1     -11.363  13.375  65.638  1.00  0.00    -0.316 C  
HETATM   12  C   UNL     1     -12.281  14.116  66.640  1.00  0.00    -0.450 C  
HETATM   13  C   UNL     1     -10.690  14.511  64.815  1.00  0.00    -0.414 C  
HETATM   14  C   UNL     1     -12.241  12.553  64.674  1.00  0.00    -0.524 C  
ENDBRANCH   4  11
BRANCH   6  15
HETATM   15  C   UNL     1      -7.468   9.404  67.765  1.00  0.00    -0.087 C  
BRANCH  15  16
HETATM   16  C   UNL     1      -6.484   8.908  66.725  1.00  0.00    -0.064 A  
HETATM   17  N   UNL     1      -6.088   7.660  66.750  1.00  0.00    -0.046 NA 
HETATM   18  C   UNL     1      -5.164   7.520  65.596  1.00  0.00    -0.028 A  
HETATM   19  H   UNL     1      -6.358   6.938  67.419  1.00  0.00     0.000 HD 
HETATM   20  C   UNL     1      -5.182   8.853  64.839  1.00  0.00    -0.038 A  
HETATM   21  N   UNL     1      -6.039   9.661  65.675  1.00  0.00    -0.063 NA 
ENDBRANCH  15  16
ENDBRANCH   6  15
TORSDOF 3
ENDMDL
MODEL      140
REMARK 921   NORMALIZED FREE ENERGY PREDICTED BY IDOCK:   -3.30 KCAL/MOL
REMARK 922        TOTAL FREE ENERGY PREDICTED BY IDOCK:   -4.20 KCAL/MOL
REMARK 923 INTER-LIGAND FREE ENERGY PREDICTED BY IDOCK:   -3.83 KCAL/MOL
REMARK 924 INTRA-LIGAND FREE ENERGY PREDICTED BY IDOCK:   -0.37 KCAL/MOL
REMARK 927      BINDING AFFINITY PREDICTED BY RF-SCORE:    0.00 PKD
ROOT
HETATM    1  C   UNL     1     -10.335  17.078  66.191  1.00  0.00    -0.326 C  
HETATM    2  C   UNL     1     -10.173  15.584  66.289  1.00  0.00    -0.308 A  
HETATM    3  C   UNL     1     -10.759  14.802  65.274  1.00  0.00    -0.406 A  
HETATM    4  C   UNL     1     -10.773  13.393  65.282  1.00  0.00    -0.321 A  
HETATM    5  C   UNL     1     -10.081  12.793  66.348  1.00  0.00    -0.259 A  
HETATM    6  C   UNL     1      -9.532  14.956  67.375  1.00  0.00    -0.206 A  
HETATM    7  C   UNL     1      -8.749  12.820  68.510  1.00  0.00    -0.045 C  
HETATM    8  H   UNL     1      -9.491  11.027  67.157  1.00  0.00     0.000 HD 
HETATM    9  C   UNL     1      -9.461  13.539  67.385  1.00  0.00    -0.225 A  
HETATM   10  O   UNL     1      -9.958  11.433  66.436  1.00  0.00    -0.203 OA 
ENDROOT
BRANCH   4  11
HETATM   11  C   UNL     1     -11.495  12.657  64.121  1.00  0.00    -0.447 C  
HETATM   12  C   UNL     1     -10.572  11.861  63.167  1.00  0.00    -0.322 C  
HETATM   13  C   UNL     1     -12.526  11.609  64.629  1.00  0.00     0.381 C  
HETATM   14  C   UNL     1     -12.262  13.715  63.303  1.00  0.00    -0.096 C  
ENDBRANCH   4  11
BRANCH   6  15
HETATM   15  C   UNL     1      -9.009  15.782  68.540  1.00  0.00    -0.194 C  
BRANCH  15  16
HETATM   16  C   UNL     1      -7.596  16.322  68.449  1.00  0.00    -0.166 A  
HETATM   17  N   UNL     1      -6.811  15.923  67.479  1.00  0.00    -0.166 NA 
HETATM   18  C   UNL     1      -5.536  16.660  67.681  1.00  0.00    -0.143 A  
HETATM   19  H   UNL     1      -7.028  15.251  66.743  1.00  0.00     0.000 HD 
HETATM   20  C   UNL     1      -5.755  17.628  68.850  1.00  0.00    -0.178 A  
HETATM   21  N   UNL     1      -7.097  17.296  69.268  1.00  0.00    -0.207 NA 
ENDBRANCH  15  16
ENDBRANCH   6  15
TORSDOF 3
ENDMDL
MODEL      141
REMARK 921   NORMALIZED FREE ENERGY PREDICTED BY IDOCK:   -3.28 KCAL/MOL
REMARK 922        TOTAL FREE ENERGY PREDICTED BY IDOCK:   -4.18 KCAL/MOL
REMARK 923 INTER-LIGAND FREE ENERGY PREDICTED BY IDOCK:   -4.09 KCAL/MOL
REMARK 924 INTRA-LIGAND FREE ENERGY PREDICTED BY IDOCK:   -0.09 KCAL/MOL
REMARK 927      BINDING AFFINITY PREDICTED BY RF-SCORE:    0.00 PKD
ROOT
HETATM    1  C   UNL     1      -9.893  14.945  65.712  1.00  0.00    -0.380 C  
HETATM    2  C   UNL     1      -8.901  15.494  66.704  1.00  0.00    -0.325 A  
HETATM    3  C   UNL     1      -8.434  16.806  66.492  1.00  0.00    -0.318 A  
HETATM    4  C   UNL     1      -7.437  17.417  67.278  1.00  0.00    -0.211 A  
HETATM    5  C   UNL     1      -6.978  16.652  68.364  1.00  0.00    -0.160 A  
HETATM    6  C   UNL     1      -8.384  14.730  67.768  1.00  0.00    -0.166 A  
HETATM    7  C   UNL     1      -6.875  14.565  69.807  1.00  0.00    -0.126 C  
HETATM    8  H   UNL     1      -5.750  16.639  69.981  1.00  0.00     0.000 HD 
HETATM    9  C   UNL     1      -7.430  15.332  68.628  1.00  0.00    -0.126 A  
HETATM   10  O   UNL     1      -6.061  17.156  69.247  1.00  0.00    -0.190 OA 
ENDROOT
BRANCH   4  11
HETATM   11  C   UNL     1      -6.983  18.854  66.906  1.00  0.00    -0.210 C  
HETATM   12  C   UNL     1      -6.698  19.790  68.105  1.00  0.00    -0.308 C  
HETATM   13  C   UNL     1      -5.665  18.868  66.079  1.00  0.00    -0.189 C  
HETATM   14  C   UNL     1      -8.090  19.482  66.036  1.00  0.00    -0.299 C  
ENDBRANCH   4  11
BRANCH   6  15
HETATM   15  C   UNL     1      -8.784  13.271  67.931  1.00  0.00    -0.192 C  
BRANCH  15  16
HETATM   16  C   UNL     1      -7.891  12.217  67.307  1.00  0.00    -0.176 A  
HETATM   17  N   UNL     1      -6.667  12.527  66.960  1.00  0.00    -0.375 NA 
HETATM   18  C   UNL     1      -6.086  11.273  66.416  1.00  0.00    -0.117 A  
HETATM   19  H   UNL     1      -6.211  13.436  67.044  1.00  0.00     0.000 HD 
HETATM   20  C   UNL     1      -7.131  10.169  66.614  1.00  0.00    -0.101 A  
HETATM   21  N   UNL     1      -8.245  10.904  67.165  1.00  0.00    -0.123 NA 
ENDBRANCH  15  16
ENDBRANCH   6  15
TORSDOF 3
ENDMDL
MODEL      142
REMARK 921   NORMALIZED FREE ENERGY PREDICTED BY IDOCK:   -3.28 KCAL/MOL
REMARK 922        TOTAL FREE ENERGY PREDICTED BY IDOCK:   -4.18 KCAL/MOL
REMARK 923 INTER-LIGAND FREE ENERGY PREDICTED BY IDOCK:   -3.95 KCAL/MOL
REMARK 924 INTRA-LIGAND FREE ENERGY PREDICTED BY IDOCK:   -0.22 KCAL/MOL
REMARK 927      BINDING AFFINITY PREDICTED BY RF-SCORE:    0.00 PKD
ROOT
HETATM    1  C   UNL     1     -10.983   6.241  67.178  1.00  0.00    -0.453 C  
HETATM    2  C   UNL     1     -10.443   7.044  68.333  1.00  0.00    -0.231 A  
HETATM    3  C   UNL     1     -11.248   7.141  69.485  1.00  0.00    -0.121 A  
HETATM    4  C   UNL     1     -10.920   7.932  70.604  1.00  0.00    -0.248 A  
HETATM    5  C   UNL     1      -9.671   8.575  70.538  1.00  0.00    -0.177 A  
HETATM    6  C   UNL     1      -9.221   7.741  68.272  1.00  0.00    -0.139 A  
HETATM    7  C   UNL     1      -7.495   9.228  69.402  1.00  0.00    -0.078 C  
HETATM    8  H   UNL     1      -8.357   9.751  71.543  1.00  0.00     0.000 HD 
HETATM    9  C   UNL     1      -8.818   8.493  69.405  1.00  0.00    -0.141 A  
HETATM   10  O   UNL     1      -9.201   9.317  71.587  1.00  0.00    -0.313 OA 
ENDROOT
BRANCH   4  11
HETATM   11  C   UNL     1     -11.921   7.984  71.789  1.00  0.00    -0.342 C  
HETATM   12  C   UNL     1     -12.592   9.358  72.028  1.00  0.00    -0.462 C  
HETATM   13  C   UNL     1     -13.110   6.997  71.609  1.00  0.00    -0.384 C  
HETATM   14  C   UNL     1     -11.157   7.575  73.063  1.00  0.00    -0.413 C  
ENDBRANCH   4  11
BRANCH   6  15
HETATM   15  C   UNL     1      -8.404   7.748  66.988  1.00  0.00    -0.117 C  
BRANCH  15  16
HETATM   16  C   UNL     1      -7.598   6.510  66.653  1.00  0.00    -0.094 A  
HETATM   17  N   UNL     1      -7.040   5.819  67.616  1.00  0.00    -0.072 NA 
HETATM   18  C   UNL     1      -6.364   4.682  66.940  1.00  0.00    -0.037 A  
HETATM   19  H   UNL     1      -7.064   6.019  68.616  1.00  0.00     0.000 HD 
HETATM   20  C   UNL     1      -6.720   4.767  65.451  1.00  0.00    -0.049 A  
HETATM   21  N   UNL     1      -7.487   5.989  65.394  1.00  0.00    -0.079 NA 
ENDBRANCH  15  16
ENDBRANCH   6  15
TORSDOF 3
ENDMDL
MODEL      143
REMARK 921   NORMALIZED FREE ENERGY PREDICTED BY IDOCK:   -3.25 KCAL/MOL
REMARK 922        TOTAL FREE ENERGY PREDICTED BY IDOCK:   -4.14 KCAL/MOL
REMARK 923 INTER-LIGAND FREE ENERGY PREDICTED BY IDOCK:   -3.89 KCAL/MOL
REMARK 924 INTRA-LIGAND FREE ENERGY PREDICTED BY IDOCK:   -0.25 KCAL/MOL
REMARK 927      BINDING AFFINITY PREDICTED BY RF-SCORE:    0.00 PKD
ROOT
HETATM    1  C   UNL     1     -11.026   6.346  67.929  1.00  0.00    -0.416 C  
HETATM    2  C   UNL     1     -10.336   7.480  67.216  1.00  0.00    -0.366 A  
HETATM    3  C   UNL     1     -10.745   8.789  67.536  1.00  0.00    -0.213 A  
HETATM    4  C   UNL     1     -10.260   9.941  66.885  1.00  0.00    -0.302 A  
HETATM    5  C   UNL     1      -9.259   9.710  65.926  1.00  0.00    -0.194 A  
HETATM    6  C   UNL     1      -9.370   7.273  66.212  1.00  0.00    -0.160 A  
HETATM    7  C   UNL     1      -7.733   8.241  64.524  1.00  0.00    -0.123 C  
HETATM    8  H   UNL     1      -7.977  10.592  64.622  1.00  0.00     0.000 HD 
HETATM    9  C   UNL     1      -8.803   8.410  65.581  1.00  0.00    -0.196 A  
HETATM   10  O   UNL     1      -8.654  10.748  65.271  1.00  0.00    -0.183 OA 
ENDROOT
BRANCH   4  11
HETATM   11  C   UNL     1     -10.831  11.321  67.307  1.00  0.00    -0.317 C  
HETATM   12  C   UNL     1     -11.583  12.094  66.198  1.00  0.00    -0.418 C  
HETATM   13  C   UNL     1     -11.859  11.211  68.471  1.00  0.00    -0.330 C  
HETATM   14  C   UNL     1      -9.652  12.182  67.802  1.00  0.00    -0.195 C  
ENDBRANCH   4  11
BRANCH   6  15
HETATM   15  C   UNL     1      -9.013   5.863  65.768  1.00  0.00    -0.131 C  
BRANCH  15  16
HETATM   16  C   UNL     1      -7.978   5.105  66.573  1.00  0.00    -0.104 A  
HETATM   17  N   UNL     1      -7.432   5.669  67.622  1.00  0.00    -0.077 NA 
HETATM   18  C   UNL     1      -6.500   4.652  68.172  1.00  0.00    -0.041 A  
HETATM   19  H   UNL     1      -7.609   6.607  67.983  1.00  0.00     0.000 HD 
HETATM   20  C   UNL     1      -6.684   3.376  67.341  1.00  0.00    -0.045 A  
HETATM   21  N   UNL     1      -7.631   3.803  66.339  1.00  0.00    -0.083 NA 
ENDBRANCH  15  16
ENDBRANCH   6  15
TORSDOF 3
ENDMDL
MODEL      144
REMARK 921   NORMALIZED FREE ENERGY PREDICTED BY IDOCK:   -3.20 KCAL/MOL
REMARK 922        TOTAL FREE ENERGY PREDICTED BY IDOCK:   -4.09 KCAL/MOL
REMARK 923 INTER-LIGAND FREE ENERGY PREDICTED BY IDOCK:   -3.78 KCAL/MOL
REMARK 924 INTRA-LIGAND FREE ENERGY PREDICTED BY IDOCK:   -0.31 KCAL/MOL
REMARK 927      BINDING AFFINITY PREDICTED BY RF-SCORE:    0.00 PKD
ROOT
HETATM    1  C   UNL     1      -7.767   8.357  72.972  1.00  0.00    -0.127 C  
HETATM    2  C   UNL     1      -8.426   7.320  72.101  1.00  0.00    -0.117 A  
HETATM    3  C   UNL     1      -7.610   6.289  71.594  1.00  0.00    -0.095 A  
HETATM    4  C   UNL     1      -8.063   5.306  70.692  1.00  0.00    -0.108 A  
HETATM    5  C   UNL     1      -9.432   5.365  70.379  1.00  0.00    -0.164 A  
HETATM    6  C   UNL     1      -9.782   7.387  71.729  1.00  0.00    -0.172 A  
HETATM    7  C   UNL     1     -11.757   6.383  70.482  1.00  0.00    -0.385 C  
HETATM    8  H   UNL     1     -10.941   4.467  69.358  1.00  0.00     0.000 HD 
HETATM    9  C   UNL     1     -10.297   6.375  70.878  1.00  0.00    -0.246 A  
HETATM   10  O   UNL     1     -10.015   4.427  69.570  1.00  0.00    -0.211 OA 
ENDROOT
BRANCH   4  11
HETATM   11  C   UNL     1      -7.046   4.253  70.177  1.00  0.00    -0.042 C  
HETATM   12  C   UNL     1      -6.936   4.136  68.638  1.00  0.00    -0.048 C  
HETATM   13  C   UNL     1      -5.592   4.548  70.648  1.00  0.00    -0.012 C  
HETATM   14  C   UNL     1      -7.459   2.884  70.752  1.00  0.00    -0.036 C  
ENDBRANCH   4  11
BRANCH   6  15
HETATM   15  C   UNL     1     -10.640   8.565  72.165  1.00  0.00    -0.419 C  
BRANCH  15  16
HETATM   16  C   UNL     1     -10.905   9.663  71.155  1.00  0.00    -0.334 A  
HETATM   17  N   UNL     1     -10.031   9.897  70.208  1.00  0.00    -0.350 NA 
HETATM   18  C   UNL     1     -10.614  11.000  69.402  1.00  0.00    -0.174 A  
HETATM   19  H   UNL     1      -9.140   9.423  70.056  1.00  0.00     0.000 HD 
HETATM   20  C   UNL     1     -12.010  11.282  69.968  1.00  0.00    -0.368 A  
HETATM   21  N   UNL     1     -12.065  10.384  71.097  1.00  0.00    -0.375 NA 
ENDBRANCH  15  16
ENDBRANCH   6  15
TORSDOF 3
ENDMDL
MODEL      145
REMARK 921   NORMALIZED FREE ENERGY PREDICTED BY IDOCK:   -3.17 KCAL/MOL
REMARK 922        TOTAL FREE ENERGY PREDICTED BY IDOCK:   -4.05 KCAL/MOL
REMARK 923 INTER-LIGAND FREE ENERGY PREDICTED BY IDOCK:   -4.09 KCAL/MOL
REMARK 924 INTRA-LIGAND FREE ENERGY PREDICTED BY IDOCK:    0.03 KCAL/MOL
REMARK 927      BINDING AFFINITY PREDICTED BY RF-SCORE:    0.00 PKD
ROOT
HETATM    1  C   UNL     1      -6.630  12.383  67.658  1.00  0.00    -0.131 C  
HETATM    2  C   UNL     1      -8.120  12.163  67.651  1.00  0.00    -0.158 A  
HETATM    3  C   UNL     1      -8.918  13.159  67.053  1.00  0.00    -0.228 A  
HETATM    4  C   UNL     1     -10.326  13.138  67.054  1.00  0.00    -0.249 A  
HETATM    5  C   UNL     1     -10.908  11.997  67.633  1.00  0.00    -0.231 A  
HETATM    6  C   UNL     1      -8.731  11.056  68.271  1.00  0.00    -0.144 A  
HETATM    7  C   UNL     1     -10.845   9.769  68.851  1.00  0.00    -0.220 C  
HETATM    8  H   UNL     1     -12.658  11.046  68.027  1.00  0.00     0.000 HD 
HETATM    9  C   UNL     1     -10.146  10.959  68.233  1.00  0.00    -0.189 A  
HETATM   10  O   UNL     1     -12.265  11.818  67.636  1.00  0.00    -0.534 OA 
ENDROOT
BRANCH   4  11
HETATM   11  C   UNL     1     -11.082  14.324  66.398  1.00  0.00    -0.325 C  
HETATM   12  C   UNL     1     -10.387  14.951  65.165  1.00  0.00    -0.431 C  
HETATM   13  C   UNL     1     -12.495  13.922  65.884  1.00  0.00    -0.519 C  
HETATM   14  C   UNL     1     -11.265  15.414  67.473  1.00  0.00    -0.302 C  
ENDBRANCH   4  11
BRANCH   6  15
HETATM   15  C   UNL     1      -7.890  10.041  69.030  1.00  0.00    -0.101 C  
BRANCH  15  16
HETATM   16  C   UNL     1      -7.285   8.893  68.248  1.00  0.00    -0.079 A  
HETATM   17  N   UNL     1      -6.182   8.329  68.674  1.00  0.00    -0.044 NA 
HETATM   18  C   UNL     1      -5.895   7.246  67.697  1.00  0.00    -0.030 A  
HETATM   19  H   UNL     1      -5.637   8.579  69.500  1.00  0.00     0.000 HD 
HETATM   20  C   UNL     1      -7.068   7.206  66.711  1.00  0.00    -0.078 A  
HETATM   21  N   UNL     1      -7.872   8.321  67.154  1.00  0.00    -0.096 NA 
ENDBRANCH  15  16
ENDBRANCH   6  15
TORSDOF 3
ENDMDL
MODEL      146
REMARK 921   NORMALIZED FREE ENERGY PREDICTED BY IDOCK:   -3.14 KCAL/MOL
REMARK 922        TOTAL FREE ENERGY PREDICTED BY IDOCK:   -4.02 KCAL/MOL
REMARK 923 INTER-LIGAND FREE ENERGY PREDICTED BY IDOCK:   -3.91 KCAL/MOL
REMARK 924 INTRA-LIGAND FREE ENERGY PREDICTED BY IDOCK:   -0.11 KCAL/MOL
REMARK 927      BINDING AFFINITY PREDICTED BY RF-SCORE:    0.00 PKD
ROOT
HETATM    1  C   UNL     1      -7.518   7.235  64.183  1.00  0.00    -0.099 C  
HETATM    2  C   UNL     1      -8.552   7.764  65.142  1.00  0.00    -0.023 A  
HETATM    3  C   UNL     1      -8.879   9.131  65.049  1.00  0.00    -0.230 A  
HETATM    4  C   UNL     1      -9.754   9.787  65.938  1.00  0.00    -0.332 A  
HETATM    5  C   UNL     1     -10.361   8.961  66.900  1.00  0.00    -0.262 A  
HETATM    6  C   UNL     1      -9.134   6.970  66.149  1.00  0.00    -0.149 A  
HETATM    7  C   UNL     1     -10.756   6.754  68.095  1.00  0.00    -0.295 C  
HETATM    8  H   UNL     1     -11.695   8.900  68.429  1.00  0.00     0.000 HD 
HETATM    9  C   UNL     1     -10.075   7.575  67.021  1.00  0.00    -0.332 A  
HETATM   10  O   UNL     1     -11.285   9.458  67.779  1.00  0.00    -0.040 OA 
ENDROOT
BRANCH   4  11
HETATM   11  C   UNL     1      -9.992  11.309  65.749  1.00  0.00    -0.281 C  
HETATM   12  C   UNL     1     -11.413  11.806  66.106  1.00  0.00    -0.288 C  
HETATM   13  C   UNL     1      -9.045  12.175  66.629  1.00  0.00    -0.206 C  
HETATM   14  C   UNL     1      -9.703  11.647  64.273  1.00  0.00    -0.196 C  
ENDBRANCH   4  11
BRANCH   6  15
HETATM   15  C   UNL     1      -8.693   5.527  66.340  1.00  0.00    -0.123 C  
BRANCH  15  16
HETATM   16  C   UNL     1      -9.321   4.470  65.455  1.00  0.00    -0.162 A  
HETATM   17  N   UNL     1     -10.283   4.803  64.631  1.00  0.00    -0.369 NA 
HETATM   18  C   UNL     1     -10.638   3.549  63.918  1.00  0.00    -0.265 A  
HETATM   19  H   UNL     1     -10.700   5.725  64.506  1.00  0.00     0.000 HD 
HETATM   20  C   UNL     1      -9.649   2.472  64.381  1.00  0.00    -0.128 A  
HETATM   21  N   UNL     1      -8.881   3.178  65.379  1.00  0.00    -0.130 NA 
ENDBRANCH  15  16
ENDBRANCH   6  15
TORSDOF 3
ENDMDL
MODEL      147
REMARK 921   NORMALIZED FREE ENERGY PREDICTED BY IDOCK:   -3.09 KCAL/MOL
REMARK 922        TOTAL FREE ENERGY PREDICTED BY IDOCK:   -3.96 KCAL/MOL
REMARK 923 INTER-LIGAND FREE ENERGY PREDICTED BY IDOCK:   -3.61 KCAL/MOL
REMARK 924 INTRA-LIGAND FREE ENERGY PREDICTED BY IDOCK:   -0.35 KCAL/MOL
REMARK 927      BINDING AFFINITY PREDICTED BY RF-SCORE:    0.00 PKD
ROOT
HETATM    1  C   UNL     1      -6.444   5.789  69.647  1.00  0.00    -0.042 C  
HETATM    2  C   UNL     1      -7.928   6.037  69.718  1.00  0.00    -0.106 A  
HETATM    3  C   UNL     1      -8.516   6.076  70.997  1.00  0.00    -0.124 A  
HETATM    4  C   UNL     1      -9.902   6.203  71.218  1.00  0.00    -0.204 A  
HETATM    5  C   UNL     1     -10.680   6.373  70.059  1.00  0.00    -0.259 A  
HETATM    6  C   UNL     1      -8.737   6.156  68.571  1.00  0.00    -0.111 A  
HETATM    7  C   UNL     1     -11.035   6.530  67.549  1.00  0.00    -0.444 C  
HETATM    8  H   UNL     1     -12.556   6.693  69.353  1.00  0.00     0.000 HD 
HETATM    9  C   UNL     1     -10.130   6.358  68.749  1.00  0.00    -0.182 A  
HETATM   10  O   UNL     1     -12.031   6.578  70.136  1.00  0.00    -0.383 OA 
ENDROOT
BRANCH   4  11
HETATM   11  C   UNL     1     -10.421   6.187  72.680  1.00  0.00    -0.233 C  
HETATM   12  C   UNL     1     -11.528   5.147  72.979  1.00  0.00    -0.349 C  
HETATM   13  C   UNL     1      -9.298   5.864  73.708  1.00  0.00    -0.131 C  
HETATM   14  C   UNL     1     -10.961   7.594  73.000  1.00  0.00    -0.457 C  
ENDBRANCH   4  11
BRANCH   6  15
HETATM   15  C   UNL     1      -8.134   5.987  67.185  1.00  0.00    -0.106 C  
BRANCH  15  16
HETATM   16  C   UNL     1      -8.237   4.626  66.527  1.00  0.00    -0.107 A  
HETATM   17  N   UNL     1      -8.283   4.539  65.221  1.00  0.00    -0.109 NA 
HETATM   18  C   UNL     1      -8.355   3.084  64.929  1.00  0.00    -0.095 A  
HETATM   19  H   UNL     1      -8.272   5.306  64.549  1.00  0.00     0.000 HD 
HETATM   20  C   UNL     1      -8.227   2.349  66.268  1.00  0.00    -0.088 A  
HETATM   21  N   UNL     1      -8.185   3.443  67.210  1.00  0.00    -0.086 NA 
ENDBRANCH  15  16
ENDBRANCH   6  15
TORSDOF 3
ENDMDL
MODEL      148
REMARK 921   NORMALIZED FREE ENERGY PREDICTED BY IDOCK:   -3.07 KCAL/MOL
REMARK 922        TOTAL FREE ENERGY PREDICTED BY IDOCK:   -3.93 KCAL/MOL
REMARK 923 INTER-LIGAND FREE ENERGY PREDICTED BY IDOCK:   -3.55 KCAL/MOL
REMARK 924 INTRA-LIGAND FREE ENERGY PREDICTED BY IDOCK:   -0.38 KCAL/MOL
REMARK 927      BINDING AFFINITY PREDICTED BY RF-SCORE:    0.00 PKD
ROOT
HETATM    1  C   UNL     1      -9.479   3.241  70.511  1.00  0.00    -0.242 C  
HETATM    2  C   UNL     1      -9.517   3.790  69.109  1.00  0.00    -0.242 A  
HETATM    3  C   UNL     1      -8.770   3.109  68.127  1.00  0.00    -0.137 A  
HETATM    4  C   UNL     1      -8.632   3.557  66.799  1.00  0.00    -0.113 A  
HETATM    5  C   UNL     1      -9.367   4.712  66.477  1.00  0.00    -0.149 A  
HETATM    6  C   UNL     1     -10.200   4.975  68.772  1.00  0.00    -0.164 A  
HETATM    7  C   UNL     1     -10.896   6.669  67.009  1.00  0.00    -0.467 C  
HETATM    8  H   UNL     1      -9.873   5.993  64.985  1.00  0.00     0.000 HD 
HETATM    9  C   UNL     1     -10.147   5.423  67.427  1.00  0.00    -0.223 A  
HETATM   10  O   UNL     1      -9.377   5.212  65.203  1.00  0.00    -0.114 OA 
ENDROOT
BRANCH   4  11
HETATM   11  C   UNL     1      -7.742   2.733  65.831  1.00  0.00    -0.080 C  
HETATM   12  C   UNL     1      -8.455   2.201  64.565  1.00  0.00    -0.089 C  
HETATM   13  C   UNL     1      -6.538   3.553  65.283  1.00  0.00    -0.040 C  
HETATM   14  C   UNL     1      -7.175   1.538  66.623  1.00  0.00    -0.051 C  
ENDBRANCH   4  11
BRANCH   6  15
HETATM   15  C   UNL     1     -10.903   5.788  69.849  1.00  0.00    -0.417 C  
BRANCH  15  16
HETATM   16  C   UNL     1     -10.181   6.996  70.410  1.00  0.00    -0.196 A  
HETATM   17  N   UNL     1     -10.843   8.107  70.621  1.00  0.00    -0.229 NA 
HETATM   18  C   UNL     1      -9.847   9.054  71.186  1.00  0.00    -0.300 A  
HETATM   19  H   UNL     1     -11.831   8.284  70.437  1.00  0.00     0.000 HD 
HETATM   20  C   UNL     1      -8.540   8.275  71.372  1.00  0.00    -0.149 A  
HETATM   21  N   UNL     1      -8.875   6.986  70.815  1.00  0.00    -0.148 NA 
ENDBRANCH  15  16
ENDBRANCH   6  15
TORSDOF 3
ENDMDL
MODEL      149
REMARK 921   NORMALIZED FREE ENERGY PREDICTED BY IDOCK:   -3.02 KCAL/MOL
REMARK 922        TOTAL FREE ENERGY PREDICTED BY IDOCK:   -3.88 KCAL/MOL
REMARK 923 INTER-LIGAND FREE ENERGY PREDICTED BY IDOCK:   -3.54 KCAL/MOL
REMARK 924 INTRA-LIGAND FREE ENERGY PREDICTED BY IDOCK:   -0.34 KCAL/MOL
REMARK 927      BINDING AFFINITY PREDICTED BY RF-SCORE:    0.00 PKD
ROOT
HETATM    1  C   UNL     1      -9.549   3.925  69.035  1.00  0.00    -0.209 C  
HETATM    2  C   UNL     1      -9.327   5.105  68.125  1.00  0.00    -0.148 A  
HETATM    3  C   UNL     1      -8.164   5.099  67.331  1.00  0.00    -0.107 A  
HETATM    4  C   UNL     1      -7.774   6.173  66.506  1.00  0.00    -0.103 A  
HETATM    5  C   UNL     1      -8.678   7.249  66.457  1.00  0.00    -0.133 A  
HETATM    6  C   UNL     1     -10.188   6.220  68.098  1.00  0.00    -0.200 A  
HETATM    7  C   UNL     1     -10.785   8.495  67.134  1.00  0.00    -0.209 C  
HETATM    8  H   UNL     1      -9.064   9.052  65.608  1.00  0.00     0.000 HD 
HETATM    9  C   UNL     1      -9.871   7.293  67.227  1.00  0.00    -0.224 A  
HETATM   10  O   UNL     1      -8.454   8.324  65.641  1.00  0.00    -0.142 OA 
ENDROOT
BRANCH   4  11
HETATM   11  C   UNL     1      -6.443   6.051  65.717  1.00  0.00    -0.043 C  
HETATM   12  C   UNL     1      -5.506   7.279  65.807  1.00  0.00    -0.028 C  
HETATM   13  C   UNL     1      -5.569   4.859  66.203  1.00  0.00    -0.017 C  
HETATM   14  C   UNL     1      -6.798   5.803  64.238  1.00  0.00    -0.050 C  
ENDBRANCH   4  11
BRANCH   6  15
HETATM   15  C   UNL     1     -11.376   6.295  69.044  1.00  0.00    -0.319 C  
BRANCH  15  16
HETATM   16  C   UNL     1     -11.173   6.966  70.387  1.00  0.00    -0.312 A  
HETATM   17  N   UNL     1     -11.592   8.193  70.569  1.00  0.00    -0.438 NA 
HETATM   18  C   UNL     1     -11.256   8.516  71.980  1.00  0.00    -0.348 A  
HETATM   19  H   UNL     1     -12.052   8.798  69.888  1.00  0.00     0.000 HD 
HETATM   20  C   UNL     1     -10.683   7.242  72.609  1.00  0.00    -0.278 A  
HETATM   21  N   UNL     1     -10.657   6.336  71.485  1.00  0.00    -0.230 NA 
ENDBRANCH  15  16
ENDBRANCH   6  15
TORSDOF 3
ENDMDL
MODEL      150
REMARK 921   NORMALIZED FREE ENERGY PREDICTED BY IDOCK:   -3.00 KCAL/MOL
REMARK 922        TOTAL FREE ENERGY PREDICTED BY IDOCK:   -3.85 KCAL/MOL
REMARK 923 INTER-LIGAND FREE ENERGY PREDICTED BY IDOCK:   -3.48 KCAL/MOL
REMARK 924 INTRA-LIGAND FREE ENERGY PREDICTED BY IDOCK:   -0.37 KCAL/MOL
REMARK 927      BINDING AFFINITY PREDICTED BY RF-SCORE:    0.00 PKD
ROOT
HETATM    1  C   UNL     1      -7.701   7.038  70.651  1.00  0.00    -0.095 C  
HETATM    2  C   UNL     1      -8.259   6.232  69.508  1.00  0.00    -0.117 A  
HETATM    3  C   UNL     1      -7.549   5.077  69.124  1.00  0.00    -0.072 A  
HETATM    4  C   UNL     1      -7.894   4.279  68.016  1.00  0.00    -0.079 A  
HETATM    5  C   UNL     1      -9.066   4.664  67.342  1.00  0.00    -0.123 A  
HETATM    6  C   UNL     1      -9.400   6.626  68.782  1.00  0.00    -0.131 A  
HETATM    7  C   UNL     1     -11.066   6.171  66.917  1.00  0.00    -0.301 C  
HETATM    8  H   UNL     1     -10.344   4.194  65.837  1.00  0.00     0.000 HD 
HETATM    9  C   UNL     1      -9.825   5.810  67.702  1.00  0.00    -0.142 A  
HETATM   10  O   UNL     1      -9.552   3.933  66.292  1.00  0.00    -0.186 OA 
ENDROOT
BRANCH   4  11
HETATM   11  C   UNL     1      -6.997   3.058  67.679  1.00  0.00    -0.049 C  
HETATM   12  C   UNL     1      -7.659   1.674  67.881  1.00  0.00    -0.054 C  
HETATM   13  C   UNL     1      -6.530   3.052  66.194  1.00  0.00    -0.029 C  
HETATM   14  C   UNL     1      -5.740   3.143  68.566  1.00  0.00    -0.022 C  
ENDBRANCH   4  11
BRANCH   6  15
HETATM   15  C   UNL     1     -10.100   7.937  69.105  1.00  0.00    -0.197 C  
BRANCH  15  16
HETATM   16  C   UNL     1     -11.117   7.942  70.227  1.00  0.00    -0.229 A  
HETATM   17  N   UNL     1     -11.985   6.965  70.319  1.00  0.00    -0.613 NA 
HETATM   18  C   UNL     1     -12.795   7.275  71.525  1.00  0.00    -0.388 A  
HETATM   19  H   UNL     1     -12.084   6.164  69.696  1.00  0.00     0.000 HD 
HETATM   20  C   UNL     1     -12.180   8.520  72.174  1.00  0.00    -0.382 A  
HETATM   21  N   UNL     1     -11.136   8.863  71.237  1.00  0.00    -0.272 NA 
ENDBRANCH  15  16
ENDBRANCH   6  15
TORSDOF 3
ENDMDL
MODEL      151
REMARK 921   NORMALIZED FREE ENERGY PREDICTED BY IDOCK:   -2.97 KCAL/MOL
REMARK 922        TOTAL FREE ENERGY PREDICTED BY IDOCK:   -3.81 KCAL/MOL
REMARK 923 INTER-LIGAND FREE ENERGY PREDICTED BY IDOCK:   -3.44 KCAL/MOL
REMARK 924 INTRA-LIGAND FREE ENERGY PREDICTED BY IDOCK:   -0.37 KCAL/MOL
REMARK 927      BINDING AFFINITY PREDICTED BY RF-SCORE:    0.00 PKD
ROOT
HETATM    1  C   UNL     1     -11.156   6.221  68.755  1.00  0.00    -0.424 C  
HETATM    2  C   UNL     1     -10.023   6.226  69.748  1.00  0.00    -0.204 A  
HETATM    3  C   UNL     1     -10.290   5.724  71.036  1.00  0.00    -0.291 A  
HETATM    4  C   UNL     1      -9.361   5.753  72.095  1.00  0.00    -0.157 A  
HETATM    5  C   UNL     1      -8.089   6.251  71.763  1.00  0.00    -0.103 A  
HETATM    6  C   UNL     1      -8.757   6.769  69.456  1.00  0.00    -0.133 A  
HETATM    7  C   UNL     1      -6.381   7.290  70.197  1.00  0.00    -0.031 C  
HETATM    8  H   UNL     1      -6.214   6.606  72.455  1.00  0.00     0.000 HD 
HETATM    9  C   UNL     1      -7.767   6.753  70.473  1.00  0.00    -0.104 A  
HETATM   10  O   UNL     1      -7.074   6.269  72.680  1.00  0.00    -0.077 OA 
ENDROOT
BRANCH   4  11
HETATM   11  C   UNL     1      -9.803   5.206  73.479  1.00  0.00    -0.170 C  
HETATM   12  C   UNL     1      -8.877   4.129  74.092  1.00  0.00    -0.095 C  
HETATM   13  C   UNL     1      -9.877   6.319  74.564  1.00  0.00    -0.338 C  
HETATM   14  C   UNL     1     -11.217   4.614  73.317  1.00  0.00    -0.411 C  
ENDBRANCH   4  11
BRANCH   6  15
HETATM   15  C   UNL     1      -8.495   7.430  68.111  1.00  0.00    -0.124 C  
BRANCH  15  16
HETATM   16  C   UNL     1      -8.917   8.875  67.936  1.00  0.00    -0.139 A  
HETATM   17  N   UNL     1      -8.226   9.826  68.514  1.00  0.00    -0.104 NA 
HETATM   18  C   UNL     1      -8.895  11.091  68.116  1.00  0.00    -0.141 A  
HETATM   19  H   UNL     1      -7.404   9.720  69.109  1.00  0.00     0.000 HD 
HETATM   20  C   UNL     1     -10.008  10.722  67.128  1.00  0.00    -0.194 A  
HETATM   21  N   UNL     1      -9.936   9.280  67.120  1.00  0.00    -0.200 NA 
ENDBRANCH  15  16
ENDBRANCH   6  15
TORSDOF 3
ENDMDL
MODEL      152
REMARK 921   NORMALIZED FREE ENERGY PREDICTED BY IDOCK:   -2.95 KCAL/MOL
REMARK 922        TOTAL FREE ENERGY PREDICTED BY IDOCK:   -3.80 KCAL/MOL
REMARK 923 INTER-LIGAND FREE ENERGY PREDICTED BY IDOCK:   -3.50 KCAL/MOL
REMARK 924 INTRA-LIGAND FREE ENERGY PREDICTED BY IDOCK:   -0.30 KCAL/MOL
REMARK 927      BINDING AFFINITY PREDICTED BY RF-SCORE:    0.00 PKD
ROOT
HETATM    1  C   UNL     1     -10.414   8.685  67.842  1.00  0.00    -0.269 C  
HETATM    2  C   UNL     1     -10.726   8.645  69.315  1.00  0.00    -0.151 A  
HETATM    3  C   UNL     1     -10.385   7.471  70.015  1.00  0.00    -0.222 A  
HETATM    4  C   UNL     1     -10.701   7.250  71.371  1.00  0.00    -0.247 A  
HETATM    5  C   UNL     1     -11.322   8.329  72.025  1.00  0.00    -0.325 A  
HETATM    6  C   UNL     1     -11.396   9.689  69.981  1.00  0.00    -0.239 A  
HETATM    7  C   UNL     1     -12.353  10.648  72.133  1.00  0.00     0.411 C  
HETATM    8  H   UNL     1     -12.038   9.001  73.802  1.00  0.00     0.000 HD 
HETATM    9  C   UNL     1     -11.670   9.538  71.365  1.00  0.00    -0.465 A  
HETATM   10  O   UNL     1     -11.618   8.272  73.360  1.00  0.00     0.087 OA 
ENDROOT
BRANCH   4  11
HETATM   11  C   UNL     1     -10.306   5.891  72.008  1.00  0.00    -0.250 C  
HETATM   12  C   UNL     1      -9.217   5.966  73.105  1.00  0.00    -0.133 C  
HETATM   13  C   UNL     1     -11.507   5.184  72.699  1.00  0.00    -0.221 C  
HETATM   14  C   UNL     1      -9.808   4.972  70.875  1.00  0.00    -0.274 C  
ENDBRANCH   4  11
BRANCH   6  15
HETATM   15  C   UNL     1     -11.883  10.905  69.208  1.00  0.00    -0.395 C  
BRANCH  15  16
HETATM   16  C   UNL     1     -10.974  12.115  69.142  1.00  0.00    -0.161 A  
HETATM   17  N   UNL     1      -9.715  11.963  68.812  1.00  0.00    -0.394 NA 
HETATM   18  C   UNL     1      -9.140  13.332  68.824  1.00  0.00     0.142 A  
HETATM   19  H   UNL     1      -9.234  11.090  68.593  1.00  0.00     0.000 HD 
HETATM   20  C   UNL     1     -10.293  14.304  69.101  1.00  0.00    -0.125 A  
HETATM   21  N   UNL     1     -11.402  13.403  69.311  1.00  0.00    -0.267 NA 
ENDBRANCH  15  16
ENDBRANCH   6  15
TORSDOF 3
ENDMDL
MODEL      153
REMARK 921   NORMALIZED FREE ENERGY PREDICTED BY IDOCK:   -2.94 KCAL/MOL
REMARK 922        TOTAL FREE ENERGY PREDICTED BY IDOCK:   -3.78 KCAL/MOL
REMARK 923 INTER-LIGAND FREE ENERGY PREDICTED BY IDOCK:   -3.89 KCAL/MOL
REMARK 924 INTRA-LIGAND FREE ENERGY PREDICTED BY IDOCK:    0.11 KCAL/MOL
REMARK 927      BINDING AFFINITY PREDICTED BY RF-SCORE:    0.00 PKD
ROOT
HETATM    1  C   UNL     1      -8.966  14.149  65.803  1.00  0.00     0.645 C  
HETATM    2  C   UNL     1      -9.375  15.192  66.810  1.00  0.00    -0.268 A  
HETATM    3  C   UNL     1      -9.037  16.530  66.528  1.00  0.00    -0.307 A  
HETATM    4  C   UNL     1      -9.268  17.599  67.416  1.00  0.00    -0.247 A  
HETATM    5  C   UNL     1      -9.946  17.258  68.600  1.00  0.00    -0.327 A  
HETATM    6  C   UNL     1     -10.005  14.871  68.027  1.00  0.00    -0.220 A  
HETATM    7  C   UNL     1     -11.033  15.636  70.223  1.00  0.00    -0.363 C  
HETATM    8  H   UNL     1     -10.753  17.983  70.316  1.00  0.00     0.000 HD 
HETATM    9  C   UNL     1     -10.321  15.926  68.921  1.00  0.00    -0.228 A  
HETATM   10  O   UNL     1     -10.295  18.214  69.516  1.00  0.00    -0.059 OA 
ENDROOT
BRANCH   4  11
HETATM   11  C   UNL     1      -8.804  19.020  66.997  1.00  0.00    -0.309 C  
HETATM   12  C   UNL     1      -8.274  19.909  68.147  1.00  0.00    -0.279 C  
HETATM   13  C   UNL     1      -7.641  18.987  65.963  1.00  0.00    -0.273 C  
HETATM   14  C   UNL     1     -10.003  19.726  66.334  1.00  0.00    -0.578 C  
ENDBRANCH   4  11
BRANCH   6  15
HETATM   15  C   UNL     1     -10.259  13.418  68.400  1.00  0.00    -0.251 C  
BRANCH  15  16
HETATM   16  C   UNL     1      -9.074  12.475  68.428  1.00  0.00    -0.135 A  
HETATM   17  N   UNL     1      -7.962  12.848  69.010  1.00  0.00    -0.319 NA 
HETATM   18  C   UNL     1      -7.041  11.691  68.872  1.00  0.00    -0.115 A  
HETATM   19  H   UNL     1      -7.769  13.743  69.462  1.00  0.00     0.000 HD 
HETATM   20  C   UNL     1      -7.839  10.555  68.221  1.00  0.00    -0.111 A  
HETATM   21  N   UNL     1      -9.110  11.190  67.963  1.00  0.00    -0.147 NA 
ENDBRANCH  15  16
ENDBRANCH   6  15
TORSDOF 3
ENDMDL
MODEL      154
REMARK 921   NORMALIZED FREE ENERGY PREDICTED BY IDOCK:   -2.92 KCAL/MOL
REMARK 922        TOTAL FREE ENERGY PREDICTED BY IDOCK:   -3.76 KCAL/MOL
REMARK 923 INTER-LIGAND FREE ENERGY PREDICTED BY IDOCK:   -3.45 KCAL/MOL
REMARK 924 INTRA-LIGAND FREE ENERGY PREDICTED BY IDOCK:   -0.30 KCAL/MOL
REMARK 927      BINDING AFFINITY PREDICTED BY RF-SCORE:    0.00 PKD
ROOT
HETATM    1  C   UNL     1      -6.154   9.405  70.305  1.00  0.00    -0.049 C  
HETATM    2  C   UNL     1      -7.655   9.475  70.199  1.00  0.00    -0.146 A  
HETATM    3  C   UNL     1      -8.195  10.186  69.109  1.00  0.00    -0.145 A  
HETATM    4  C   UNL     1      -9.573  10.418  68.931  1.00  0.00    -0.197 A  
HETATM    5  C   UNL     1     -10.410   9.815  69.887  1.00  0.00    -0.254 A  
HETATM    6  C   UNL     1      -8.514   8.928  71.172  1.00  0.00    -0.250 A  
HETATM    7  C   UNL     1     -10.878   8.472  71.991  1.00  0.00    -0.405 C  
HETATM    8  H   UNL     1     -12.338   9.496  70.437  1.00  0.00     0.000 HD 
HETATM    9  C   UNL     1      -9.914   9.076  70.994  1.00  0.00    -0.349 A  
HETATM   10  O   UNL     1     -11.772   9.903  69.791  1.00  0.00    -0.152 OA 
ENDROOT
BRANCH   4  11
HETATM   11  C   UNL     1     -10.027  11.256  67.707  1.00  0.00    -0.193 C  
HETATM   12  C   UNL     1     -10.648  10.447  66.544  1.00  0.00    -0.220 C  
HETATM   13  C   UNL     1     -11.116  12.307  68.074  1.00  0.00    -0.285 C  
HETATM   14  C   UNL     1      -8.796  12.020  67.181  1.00  0.00    -0.188 C  
ENDBRANCH   4  11
BRANCH   6  15
HETATM   15  C   UNL     1      -7.942   8.270  72.419  1.00  0.00    -0.194 C  
BRANCH  15  16
HETATM   16  C   UNL     1      -7.720   6.772  72.393  1.00  0.00    -0.093 A  
HETATM   17  N   UNL     1      -8.357   6.007  73.245  1.00  0.00    -0.115 NA 
HETATM   18  C   UNL     1      -7.926   4.622  72.924  1.00  0.00    -0.096 A  
HETATM   19  H   UNL     1      -9.009   6.300  73.973  1.00  0.00     0.000 HD 
HETATM   20  C   UNL     1      -7.032   4.704  71.682  1.00  0.00    -0.047 A  
HETATM   21  N   UNL     1      -6.957   6.129  71.458  1.00  0.00    -0.074 NA 
ENDBRANCH  15  16
ENDBRANCH   6  15
TORSDOF 3
ENDMDL
MODEL      155
REMARK 921   NORMALIZED FREE ENERGY PREDICTED BY IDOCK:   -2.88 KCAL/MOL
REMARK 922        TOTAL FREE ENERGY PREDICTED BY IDOCK:   -3.71 KCAL/MOL
REMARK 923 INTER-LIGAND FREE ENERGY PREDICTED BY IDOCK:   -3.42 KCAL/MOL
REMARK 924 INTRA-LIGAND FREE ENERGY PREDICTED BY IDOCK:   -0.30 KCAL/MOL
REMARK 927      BINDING AFFINITY PREDICTED BY RF-SCORE:    0.00 PKD
ROOT
HETATM    1  C   UNL     1      -6.486   8.088  63.584  1.00  0.00    -0.071 C  
HETATM    2  C   UNL     1      -7.535   7.457  64.462  1.00  0.00    -0.095 A  
HETATM    3  C   UNL     1      -7.839   6.101  64.232  1.00  0.00    -0.114 A  
HETATM    4  C   UNL     1      -8.861   5.403  64.907  1.00  0.00    -0.054 A  
HETATM    5  C   UNL     1      -9.526   6.135  65.906  1.00  0.00     0.063 A  
HETATM    6  C   UNL     1      -8.254   8.181  65.433  1.00  0.00    -0.147 A  
HETATM    7  C   UNL     1     -10.015   8.224  67.266  1.00  0.00    -0.289 C  
HETATM    8  H   UNL     1     -10.941   6.049  67.360  1.00  0.00     0.000 HD 
HETATM    9  C   UNL     1      -9.243   7.498  66.186  1.00  0.00    -0.156 A  
HETATM   10  O   UNL     1     -10.491   5.555  66.684  1.00  0.00    -0.243 OA 
ENDROOT
BRANCH   4  11
HETATM   11  C   UNL     1      -9.120   3.922  64.523  1.00  0.00    -0.137 C  
HETATM   12  C   UNL     1     -10.515   3.628  63.921  1.00  0.00    -0.276 C  
HETATM   13  C   UNL     1      -8.117   3.398  63.455  1.00  0.00    -0.084 C  
HETATM   14  C   UNL     1      -8.938   3.071  65.796  1.00  0.00    -0.144 C  
ENDBRANCH   4  11
BRANCH   6  15
HETATM   15  C   UNL     1      -8.024   9.676  65.601  1.00  0.00    -0.113 C  
BRANCH  15  16
HETATM   16  C   UNL     1      -8.988  10.623  64.916  1.00  0.00    -0.199 A  
HETATM   17  N   UNL     1      -9.333  11.738  65.511  1.00  0.00    -0.381 NA 
HETATM   18  C   UNL     1     -10.251  12.419  64.561  1.00  0.00    -0.299 A  
HETATM   19  H   UNL     1      -9.036  12.068  66.429  1.00  0.00     0.000 HD 
HETATM   20  C   UNL     1     -10.286  11.573  63.283  1.00  0.00    -0.391 A  
HETATM   21  N   UNL     1      -9.462  10.444  63.646  1.00  0.00    -0.287 NA 
ENDBRANCH  15  16
ENDBRANCH   6  15
TORSDOF 3
ENDMDL
MODEL      156
REMARK 921   NORMALIZED FREE ENERGY PREDICTED BY IDOCK:   -2.86 KCAL/MOL
REMARK 922        TOTAL FREE ENERGY PREDICTED BY IDOCK:   -3.69 KCAL/MOL
REMARK 923 INTER-LIGAND FREE ENERGY PREDICTED BY IDOCK:   -3.54 KCAL/MOL
REMARK 924 INTRA-LIGAND FREE ENERGY PREDICTED BY IDOCK:   -0.15 KCAL/MOL
REMARK 927      BINDING AFFINITY PREDICTED BY RF-SCORE:    0.00 PKD
ROOT
HETATM    1  C   UNL     1      -6.781   9.196  67.393  1.00  0.00    -0.069 C  
HETATM    2  C   UNL     1      -7.686   9.906  66.420  1.00  0.00    -0.104 A  
HETATM    3  C   UNL     1      -8.496  10.941  66.928  1.00  0.00    -0.135 A  
HETATM    4  C   UNL     1      -9.458  11.629  66.162  1.00  0.00    -0.240 A  
HETATM    5  C   UNL     1      -9.511  11.269  64.804  1.00  0.00    -0.194 A  
HETATM    6  C   UNL     1      -7.797   9.529  65.068  1.00  0.00    -0.117 A  
HETATM    7  C   UNL     1      -8.830   9.901  62.775  1.00  0.00    -0.242 C  
HETATM    8  H   UNL     1     -10.388  11.666  63.016  1.00  0.00     0.000 HD 
HETATM    9  C   UNL     1      -8.703  10.244  64.243  1.00  0.00    -0.217 A  
HETATM   10  O   UNL     1     -10.352  11.909  63.934  1.00  0.00    -0.317 OA 
ENDROOT
BRANCH   4  11
HETATM   11  C   UNL     1     -10.315  12.718  66.860  1.00  0.00    -0.245 C  
HETATM   12  C   UNL     1     -11.711  12.961  66.239  1.00  0.00    -0.457 C  
HETATM   13  C   UNL     1     -10.606  12.383  68.352  1.00  0.00    -0.251 C  
HETATM   14  C   UNL     1      -9.517  14.036  66.821  1.00  0.00    -0.292 C  
ENDBRANCH   4  11
BRANCH   6  15
HETATM   15  C   UNL     1      -7.024   8.331  64.539  1.00  0.00    -0.073 C  
BRANCH  15  16
HETATM   16  C   UNL     1      -7.737   6.996  64.480  1.00  0.00    -0.113 A  
HETATM   17  N   UNL     1      -7.870   6.382  63.330  1.00  0.00    -0.109 NA 
HETATM   18  C   UNL     1      -8.582   5.116  63.643  1.00  0.00    -0.082 A  
HETATM   19  H   UNL     1      -7.553   6.705  62.416  1.00  0.00     0.000 HD 
HETATM   20  C   UNL     1      -8.732   5.049  65.167  1.00  0.00    -0.150 A  
HETATM   21  N   UNL     1      -8.179   6.317  65.581  1.00  0.00    -0.136 NA 
ENDBRANCH  15  16
ENDBRANCH   6  15
TORSDOF 3
ENDMDL
MODEL      157
REMARK 921   NORMALIZED FREE ENERGY PREDICTED BY IDOCK:   -2.85 KCAL/MOL
REMARK 922        TOTAL FREE ENERGY PREDICTED BY IDOCK:   -3.67 KCAL/MOL
REMARK 923 INTER-LIGAND FREE ENERGY PREDICTED BY IDOCK:   -3.34 KCAL/MOL
REMARK 924 INTRA-LIGAND FREE ENERGY PREDICTED BY IDOCK:   -0.33 KCAL/MOL
REMARK 927      BINDING AFFINITY PREDICTED BY RF-SCORE:    0.00 PKD
ROOT
HETATM    1  C   UNL     1      -7.701   9.336  68.642  1.00  0.00    -0.085 C  
HETATM    2  C   UNL     1      -8.237   9.495  67.243  1.00  0.00    -0.114 A  
HETATM    3  C   UNL     1      -7.608   8.756  66.222  1.00  0.00    -0.091 A  
HETATM    4  C   UNL     1      -7.935   8.874  64.857  1.00  0.00    -0.129 A  
HETATM    5  C   UNL     1      -9.008   9.736  64.570  1.00  0.00    -0.238 A  
HETATM    6  C   UNL     1      -9.274  10.393  66.922  1.00  0.00    -0.170 A  
HETATM    7  C   UNL     1     -10.819  11.411  65.178  1.00  0.00    -0.302 C  
HETATM    8  H   UNL     1     -10.198  10.470  63.098  1.00  0.00     0.000 HD 
HETATM    9  C   UNL     1      -9.683  10.490  65.567  1.00  0.00    -0.298 A  
HETATM   10  O   UNL     1      -9.473   9.887  63.292  1.00  0.00    -0.268 OA 
ENDROOT
BRANCH   4  11
HETATM   11  C   UNL     1      -7.131   8.032  63.831  1.00  0.00    -0.083 C  
HETATM   12  C   UNL     1      -7.933   6.919  63.114  1.00  0.00    -0.069 C  
HETATM   13  C   UNL     1      -6.548   8.896  62.675  1.00  0.00    -0.094 C  
HETATM   14  C   UNL     1      -5.948   7.389  64.580  1.00  0.00    -0.038 C  
ENDBRANCH   4  11
BRANCH   6  15
HETATM   15  C   UNL     1      -9.873  11.290  67.994  1.00  0.00    -0.186 C  
BRANCH  15  16
HETATM   16  C   UNL     1      -9.382  12.721  68.078  1.00  0.00    -0.213 A  
HETATM   17  N   UNL     1      -9.976  13.564  68.886  1.00  0.00    -0.429 NA 
HETATM   18  C   UNL     1      -9.234  14.841  68.732  1.00  0.00    -0.196 A  
HETATM   19  H   UNL     1     -10.776  13.381  69.492  1.00  0.00     0.000 HD 
HETATM   20  C   UNL     1      -8.052  14.566  67.795  1.00  0.00    -0.158 A  
HETATM   21  N   UNL     1      -8.274  13.188  67.427  1.00  0.00    -0.181 NA 
ENDBRANCH  15  16
ENDBRANCH   6  15
TORSDOF 3
ENDMDL
MODEL      158
REMARK 921   NORMALIZED FREE ENERGY PREDICTED BY IDOCK:   -2.85 KCAL/MOL
REMARK 922        TOTAL FREE ENERGY PREDICTED BY IDOCK:   -3.67 KCAL/MOL
REMARK 923 INTER-LIGAND FREE ENERGY PREDICTED BY IDOCK:   -3.60 KCAL/MOL
REMARK 924 INTRA-LIGAND FREE ENERGY PREDICTED BY IDOCK:   -0.07 KCAL/MOL
REMARK 927      BINDING AFFINITY PREDICTED BY RF-SCORE:    0.00 PKD
ROOT
HETATM    1  C   UNL     1      -7.887   9.217  71.321  1.00  0.00    -0.067 C  
HETATM    2  C   UNL     1      -8.723   8.625  70.217  1.00  0.00    -0.151 A  
HETATM    3  C   UNL     1      -8.400   8.991  68.895  1.00  0.00    -0.125 A  
HETATM    4  C   UNL     1      -9.148   8.595  67.769  1.00  0.00    -0.143 A  
HETATM    5  C   UNL     1     -10.219   7.725  68.038  1.00  0.00    -0.201 A  
HETATM    6  C   UNL     1      -9.833   7.795  70.462  1.00  0.00    -0.182 A  
HETATM    7  C   UNL     1     -11.751   6.389  69.561  1.00  0.00    -0.127 C  
HETATM    8  H   UNL     1     -11.707   6.621  67.207  1.00  0.00     0.000 HD 
HETATM    9  C   UNL     1     -10.573   7.315  69.351  1.00  0.00    -0.238 A  
HETATM   10  O   UNL     1     -10.983   7.209  67.026  1.00  0.00    -0.369 OA 
ENDROOT
BRANCH   4  11
HETATM   11  C   UNL     1      -8.706   9.108  66.373  1.00  0.00    -0.147 C  
HETATM   12  C   UNL     1      -9.793   9.863  65.570  1.00  0.00    -0.381 C  
HETATM   13  C   UNL     1      -7.517  10.108  66.453  1.00  0.00    -0.108 C  
HETATM   14  C   UNL     1      -8.240   7.889  65.553  1.00  0.00    -0.140 C  
ENDBRANCH   4  11
BRANCH   6  15
HETATM   15  C   UNL     1     -10.269   7.497  71.889  1.00  0.00    -0.221 C  
BRANCH  15  16
HETATM   16  C   UNL     1     -10.258   6.053  72.348  1.00  0.00    -0.189 A  
HETATM   17  N   UNL     1      -9.239   5.286  72.050  1.00  0.00    -0.137 NA 
HETATM   18  C   UNL     1      -9.547   3.971  72.667  1.00  0.00    -0.136 A  
HETATM   19  H   UNL     1      -8.411   5.539  71.510  1.00  0.00     0.000 HD 
HETATM   20  C   UNL     1     -10.847   4.138  73.461  1.00  0.00    -0.254 A  
HETATM   21  N   UNL     1     -11.213   5.501  73.155  1.00  0.00    -0.287 NA 
ENDBRANCH  15  16
ENDBRANCH   6  15
TORSDOF 3
ENDMDL
MODEL      159
REMARK 921   NORMALIZED FREE ENERGY PREDICTED BY IDOCK:   -2.80 KCAL/MOL
REMARK 922        TOTAL FREE ENERGY PREDICTED BY IDOCK:   -3.62 KCAL/MOL
REMARK 923 INTER-LIGAND FREE ENERGY PREDICTED BY IDOCK:   -3.27 KCAL/MOL
REMARK 924 INTRA-LIGAND FREE ENERGY PREDICTED BY IDOCK:   -0.35 KCAL/MOL
REMARK 927      BINDING AFFINITY PREDICTED BY RF-SCORE:    0.00 PKD
ROOT
HETATM    1  C   UNL     1      -6.288   6.086  68.908  1.00  0.00    -0.041 C  
HETATM    2  C   UNL     1      -7.559   6.114  69.716  1.00  0.00    -0.085 A  
HETATM    3  C   UNL     1      -7.443   5.939  71.109  1.00  0.00    -0.091 A  
HETATM    4  C   UNL     1      -8.547   5.847  71.980  1.00  0.00    -0.137 A  
HETATM    5  C   UNL     1      -9.803   6.024  71.375  1.00  0.00    -0.173 A  
HETATM    6  C   UNL     1      -8.833   6.236  69.129  1.00  0.00    -0.128 A  
HETATM    7  C   UNL     1     -11.356   6.387  69.399  1.00  0.00    -0.443 C  
HETATM    8  H   UNL     1     -11.802   6.149  71.710  1.00  0.00     0.000 HD 
HETATM    9  C   UNL     1      -9.969   6.221  69.978  1.00  0.00    -0.208 A  
HETATM   10  O   UNL     1     -10.952   6.029  72.119  1.00  0.00    -0.242 OA 
ENDROOT
BRANCH   4  11
HETATM   11  C   UNL     1      -8.276   5.607  73.489  1.00  0.00    -0.112 C  
HETATM   12  C   UNL     1      -8.664   6.777  74.425  1.00  0.00    -0.195 C  
HETATM   13  C   UNL     1      -9.060   4.385  74.049  1.00  0.00    -0.110 C  
HETATM   14  C   UNL     1      -6.772   5.316  73.654  1.00  0.00    -0.075 C  
ENDBRANCH   4  11
BRANCH   6  15
HETATM   15  C   UNL     1      -8.978   6.298  67.616  1.00  0.00    -0.115 C  
BRANCH  15  16
HETATM   16  C   UNL     1      -8.969   7.662  66.957  1.00  0.00    -0.133 A  
HETATM   17  N   UNL     1     -10.012   8.057  66.270  1.00  0.00    -0.476 NA 
HETATM   18  C   UNL     1      -9.672   9.423  65.796  1.00  0.00    -0.284 A  
HETATM   19  H   UNL     1     -10.874   7.538  66.099  1.00  0.00     0.000 HD 
HETATM   20  C   UNL     1      -8.319   9.792  66.414  1.00  0.00    -0.120 A  
HETATM   21  N   UNL     1      -7.964   8.576  67.109  1.00  0.00    -0.100 NA 
ENDBRANCH  15  16
ENDBRANCH   6  15
TORSDOF 3
ENDMDL
MODEL      160
REMARK 921   NORMALIZED FREE ENERGY PREDICTED BY IDOCK:   -2.79 KCAL/MOL
REMARK 922        TOTAL FREE ENERGY PREDICTED BY IDOCK:   -3.60 KCAL/MOL
REMARK 923 INTER-LIGAND FREE ENERGY PREDICTED BY IDOCK:   -5.25 KCAL/MOL
REMARK 924 INTRA-LIGAND FREE ENERGY PREDICTED BY IDOCK:    1.65 KCAL/MOL
REMARK 927      BINDING AFFINITY PREDICTED BY RF-SCORE:    0.00 PKD
ROOT
HETATM    1  C   UNL     1      -9.111   9.968  67.801  1.00  0.00    -0.137 C  
HETATM    2  C   UNL     1     -10.086  10.971  68.359  1.00  0.00    -0.194 A  
HETATM    3  C   UNL     1     -10.251  12.176  67.648  1.00  0.00    -0.206 A  
HETATM    4  C   UNL     1     -11.052  13.245  68.097  1.00  0.00    -0.286 A  
HETATM    5  C   UNL     1     -11.761  13.004  69.286  1.00  0.00    -0.320 A  
HETATM    6  C   UNL     1     -10.766  10.777  69.576  1.00  0.00    -0.268 A  
HETATM    7  C   UNL     1     -12.423  11.620  71.311  1.00  0.00    -0.371 C  
HETATM    8  H   UNL     1     -13.109  13.769  70.598  1.00  0.00     0.000 HD 
HETATM    9  C   UNL     1     -11.640  11.799  70.029  1.00  0.00    -0.318 A  
HETATM   10  O   UNL     1     -12.630  13.932  69.794  1.00  0.00    -0.262 OA 
ENDROOT
BRANCH   4  11
HETATM   11  C   UNL     1     -11.109  14.535  67.236  1.00  0.00    -0.317 C  
HETATM   12  C   UNL     1     -12.111  14.501  66.057  1.00  0.00    -0.298 C  
HETATM   13  C   UNL     1     -11.524  15.787  68.063  1.00  0.00    -0.264 C  
HETATM   14  C   UNL     1      -9.694  14.788  66.680  1.00  0.00    -0.281 C  
ENDBRANCH   4  11
BRANCH   6  15
HETATM   15  C   UNL     1     -10.499   9.537  70.416  1.00  0.00    -0.336 C  
BRANCH  15  16
HETATM   16  C   UNL     1     -11.692   8.781  70.966  1.00  0.00    -0.282 A  
HETATM   17  N   UNL     1     -12.081   7.674  70.385  1.00  0.00    -0.489 NA 
HETATM   18  C   UNL     1     -13.238   7.198  71.187  1.00  0.00    -0.191 A  
HETATM   19  H   UNL     1     -11.676   7.232  69.560  1.00  0.00     0.000 HD 
HETATM   20  C   UNL     1     -13.377   8.146  72.384  1.00  0.00    -0.066 A  
HETATM   21  N   UNL     1     -12.351   9.126  72.112  1.00  0.00    -0.368 NA 
ENDBRANCH  15  16
ENDBRANCH   6  15
TORSDOF 3
ENDMDL
MODEL      161
REMARK 921   NORMALIZED FREE ENERGY PREDICTED BY IDOCK:   -2.76 KCAL/MOL
REMARK 922        TOTAL FREE ENERGY PREDICTED BY IDOCK:   -3.57 KCAL/MOL
REMARK 923 INTER-LIGAND FREE ENERGY PREDICTED BY IDOCK:   -3.29 KCAL/MOL
REMARK 924 INTRA-LIGAND FREE ENERGY PREDICTED BY IDOCK:   -0.28 KCAL/MOL
REMARK 927      BINDING AFFINITY PREDICTED BY RF-SCORE:    0.00 PKD
ROOT
HETATM    1  C   UNL     1     -11.543  12.902  67.916  1.00  0.00    -0.391 C  
HETATM    2  C   UNL     1     -10.316  12.166  68.387  1.00  0.00    -0.236 A  
HETATM    3  C   UNL     1      -9.069  12.787  68.177  1.00  0.00    -0.203 A  
HETATM    4  C   UNL     1      -7.833  12.180  68.476  1.00  0.00    -0.122 A  
HETATM    5  C   UNL     1      -7.918  10.917  69.086  1.00  0.00    -0.112 A  
HETATM    6  C   UNL     1     -10.370  10.876  68.950  1.00  0.00    -0.222 A  
HETATM    7  C   UNL     1      -9.161   8.889  69.977  1.00  0.00    -0.183 C  
HETATM    8  H   UNL     1      -6.851   9.395  69.903  1.00  0.00     0.000 HD 
HETATM    9  C   UNL     1      -9.152  10.257  69.332  1.00  0.00    -0.203 A  
HETATM   10  O   UNL     1      -6.794  10.249  69.491  1.00  0.00    -0.061 OA 
ENDROOT
BRANCH   4  11
HETATM   11  C   UNL     1      -6.531  12.961  68.152  1.00  0.00    -0.096 C  
HETATM   12  C   UNL     1      -5.609  13.242  69.363  1.00  0.00    -0.083 C  
HETATM   13  C   UNL     1      -5.622  12.211  67.137  1.00  0.00    -0.115 C  
HETATM   14  C   UNL     1      -6.939  14.304  67.515  1.00  0.00    -0.177 C  
ENDBRANCH   4  11
BRANCH   6  15
HETATM   15  C   UNL     1     -11.698  10.142  69.063  1.00  0.00     0.003 C  
BRANCH  15  16
HETATM   16  C   UNL     1     -12.307   9.986  70.441  1.00  0.00    -0.135 A  
HETATM   17  N   UNL     1     -12.668  11.049  71.116  1.00  0.00    -0.402 NA 
HETATM   18  C   UNL     1     -13.236  10.531  72.387  1.00  0.00     0.063 A  
HETATM   19  H   UNL     1     -12.578  12.024  70.828  1.00  0.00     0.000 HD 
HETATM   20  C   UNL     1     -13.248   9.002  72.285  1.00  0.00    -0.460 A  
HETATM   21  N   UNL     1     -12.606   8.780  71.011  1.00  0.00    -0.156 NA 
ENDBRANCH  15  16
ENDBRANCH   6  15
TORSDOF 3
ENDMDL
MODEL      162
REMARK 921   NORMALIZED FREE ENERGY PREDICTED BY IDOCK:   -2.69 KCAL/MOL
REMARK 922        TOTAL FREE ENERGY PREDICTED BY IDOCK:   -3.49 KCAL/MOL
REMARK 923 INTER-LIGAND FREE ENERGY PREDICTED BY IDOCK:   -3.13 KCAL/MOL
REMARK 924 INTRA-LIGAND FREE ENERGY PREDICTED BY IDOCK:   -0.36 KCAL/MOL
REMARK 927      BINDING AFFINITY PREDICTED BY RF-SCORE:    0.00 PKD
ROOT
HETATM    1  C   UNL     1      -6.793   8.628  68.568  1.00  0.00    -0.064 C  
HETATM    2  C   UNL     1      -7.729   7.498  68.227  1.00  0.00    -0.120 A  
HETATM    3  C   UNL     1      -7.279   6.546  67.291  1.00  0.00    -0.078 A  
HETATM    4  C   UNL     1      -8.077   5.492  66.803  1.00  0.00    -0.105 A  
HETATM    5  C   UNL     1      -9.355   5.392  67.379  1.00  0.00    -0.113 A  
HETATM    6  C   UNL     1      -9.034   7.406  68.748  1.00  0.00    -0.129 A  
HETATM    7  C   UNL     1     -11.242   6.154  68.900  1.00  0.00    -0.338 C  
HETATM    8  H   UNL     1     -11.068   4.304  67.436  1.00  0.00     0.000 HD 
HETATM    9  C   UNL     1      -9.846   6.317  68.339  1.00  0.00    -0.141 A  
HETATM   10  O   UNL     1     -10.204   4.371  67.046  1.00  0.00    -0.158 OA 
ENDROOT
BRANCH   4  11
HETATM   11  C   UNL     1      -7.470   4.540  65.738  1.00  0.00    -0.081 C  
HETATM   12  C   UNL     1      -8.273   4.423  64.421  1.00  0.00    -0.104 C  
HETATM   13  C   UNL     1      -6.046   4.979  65.287  1.00  0.00    -0.030 C  
HETATM   14  C   UNL     1      -7.351   3.142  66.375  1.00  0.00    -0.075 C  
ENDBRANCH   4  11
BRANCH   6  15
HETATM   15  C   UNL     1      -9.575   8.496  69.660  1.00  0.00    -0.170 C  
BRANCH  15  16
HETATM   16  C   UNL     1     -10.155   9.738  69.014  1.00  0.00    -0.187 A  
HETATM   17  N   UNL     1      -9.862  10.919  69.499  1.00  0.00    -0.437 NA 
HETATM   18  C   UNL     1     -10.570  11.888  68.624  1.00  0.00    -0.234 A  
HETATM   19  H   UNL     1      -9.272  11.128  70.306  1.00  0.00     0.000 HD 
HETATM   20  C   UNL     1     -11.221  11.082  67.494  1.00  0.00    -0.302 A  
HETATM   21  N   UNL     1     -10.906   9.725  67.872  1.00  0.00    -0.264 NA 
ENDBRANCH  15  16
ENDBRANCH   6  15
TORSDOF 3
ENDMDL
MODEL      163
REMARK 921   NORMALIZED FREE ENERGY PREDICTED BY IDOCK:   -2.63 KCAL/MOL
REMARK 922        TOTAL FREE ENERGY PREDICTED BY IDOCK:   -3.42 KCAL/MOL
REMARK 923 INTER-LIGAND FREE ENERGY PREDICTED BY IDOCK:   -3.03 KCAL/MOL
REMARK 924 INTRA-LIGAND FREE ENERGY PREDICTED BY IDOCK:   -0.39 KCAL/MOL
REMARK 927      BINDING AFFINITY PREDICTED BY RF-SCORE:    0.00 PKD
ROOT
HETATM    1  C   UNL     1      -7.643   8.823  71.712  1.00  0.00    -0.082 C  
HETATM    2  C   UNL     1      -8.493   8.570  70.494  1.00  0.00    -0.143 A  
HETATM    3  C   UNL     1      -8.645   9.631  69.580  1.00  0.00    -0.196 A  
HETATM    4  C   UNL     1      -9.483   9.575  68.449  1.00  0.00    -0.144 A  
HETATM    5  C   UNL     1     -10.115   8.338  68.233  1.00  0.00    -0.198 A  
HETATM    6  C   UNL     1      -9.180   7.359  70.283  1.00  0.00    -0.154 A  
HETATM    7  C   UNL     1     -10.706   5.940  68.826  1.00  0.00    -0.354 C  
HETATM    8  H   UNL     1     -11.328   7.291  66.986  1.00  0.00     0.000 HD 
HETATM    9  C   UNL     1      -9.979   7.234  69.117  1.00  0.00    -0.170 A  
HETATM   10  O   UNL     1     -10.900   8.127  67.132  1.00  0.00    -0.261 OA 
ENDROOT
BRANCH   4  11
HETATM   11  C   UNL     1      -9.592  10.835  67.549  1.00  0.00    -0.176 C  
HETATM   12  C   UNL     1      -9.068  10.663  66.103  1.00  0.00    -0.190 C  
HETATM   13  C   UNL     1     -11.061  11.319  67.375  1.00  0.00    -0.358 C  
HETATM   14  C   UNL     1      -8.801  11.967  68.233  1.00  0.00    -0.182 C  
ENDBRANCH   4  11
BRANCH   6  15
HETATM   15  C   UNL     1      -9.127   6.254  71.326  1.00  0.00    -0.148 C  
BRANCH  15  16
HETATM   16  C   UNL     1      -8.082   5.169  71.158  1.00  0.00    -0.108 A  
HETATM   17  N   UNL     1      -8.431   3.911  71.265  1.00  0.00    -0.072 NA 
HETATM   18  C   UNL     1      -7.185   3.138  71.024  1.00  0.00    -0.033 A  
HETATM   19  H   UNL     1      -9.359   3.541  71.471  1.00  0.00     0.000 HD 
HETATM   20  C   UNL     1      -6.095   4.148  70.648  1.00  0.00    -0.018 A  
HETATM   21  N   UNL     1      -6.786   5.407  70.796  1.00  0.00    -0.045 NA 
ENDBRANCH  15  16
ENDBRANCH   6  15
TORSDOF 3
ENDMDL
MODEL      164
REMARK 921   NORMALIZED FREE ENERGY PREDICTED BY IDOCK:   -2.52 KCAL/MOL
REMARK 922        TOTAL FREE ENERGY PREDICTED BY IDOCK:   -3.29 KCAL/MOL
REMARK 923 INTER-LIGAND FREE ENERGY PREDICTED BY IDOCK:   -3.06 KCAL/MOL
REMARK 924 INTRA-LIGAND FREE ENERGY PREDICTED BY IDOCK:   -0.23 KCAL/MOL
REMARK 927      BINDING AFFINITY PREDICTED BY RF-SCORE:    0.00 PKD
ROOT
HETATM    1  C   UNL     1      -6.804   7.789  70.494  1.00  0.00    -0.042 C  
HETATM    2  C   UNL     1      -7.703   7.310  69.385  1.00  0.00    -0.107 A  
HETATM    3  C   UNL     1      -7.397   6.068  68.796  1.00  0.00    -0.085 A  
HETATM    4  C   UNL     1      -8.087   5.536  67.688  1.00  0.00    -0.101 A  
HETATM    5  C   UNL     1      -9.180   6.299  67.241  1.00  0.00    -0.118 A  
HETATM    6  C   UNL     1      -8.771   8.080  68.883  1.00  0.00    -0.131 A  
HETATM    7  C   UNL     1     -10.718   8.321  67.266  1.00  0.00    -0.241 C  
HETATM    8  H   UNL     1     -10.717   6.377  65.916  1.00  0.00     0.000 HD 
HETATM    9  C   UNL     1      -9.538   7.549  67.814  1.00  0.00    -0.166 A  
HETATM   10  O   UNL     1      -9.978   5.862  66.219  1.00  0.00    -0.141 OA 
ENDROOT
BRANCH   4  11
HETATM   11  C   UNL     1      -7.616   4.176  67.109  1.00  0.00    -0.077 C  
HETATM   12  C   UNL     1      -7.458   4.130  65.571  1.00  0.00    -0.077 C  
HETATM   13  C   UNL     1      -6.223   3.745  67.656  1.00  0.00    -0.036 C  
HETATM   14  C   UNL     1      -8.640   3.106  67.537  1.00  0.00    -0.121 C  
ENDBRANCH   4  11
BRANCH   6  15
HETATM   15  C   UNL     1      -9.031   9.477  69.424  1.00  0.00    -0.174 C  
BRANCH  15  16
HETATM   16  C   UNL     1     -10.255   9.685  70.293  1.00  0.00    -0.277 A  
HETATM   17  N   UNL     1     -10.389   8.996  71.399  1.00  0.00    -0.299 NA 
HETATM   18  C   UNL     1     -11.666   9.464  71.998  1.00  0.00    -0.199 A  
HETATM   19  H   UNL     1      -9.753   8.290  71.770  1.00  0.00     0.000 HD 
HETATM   20  C   UNL     1     -12.183  10.609  71.120  1.00  0.00    -0.374 A  
HETATM   21  N   UNL     1     -11.210  10.633  70.053  1.00  0.00    -0.297 NA 
ENDBRANCH  15  16
ENDBRANCH   6  15
TORSDOF 3
ENDMDL
MODEL      165
REMARK 921   NORMALIZED FREE ENERGY PREDICTED BY IDOCK:   -2.52 KCAL/MOL
REMARK 922        TOTAL FREE ENERGY PREDICTED BY IDOCK:   -3.29 KCAL/MOL
REMARK 923 INTER-LIGAND FREE ENERGY PREDICTED BY IDOCK:   -2.94 KCAL/MOL
REMARK 924 INTRA-LIGAND FREE ENERGY PREDICTED BY IDOCK:   -0.34 KCAL/MOL
REMARK 927      BINDING AFFINITY PREDICTED BY RF-SCORE:    0.00 PKD
ROOT
HETATM    1  C   UNL     1      -8.204   7.392  69.373  1.00  0.00    -0.131 C  
HETATM    2  C   UNL     1      -8.451   6.237  68.439  1.00  0.00    -0.115 A  
HETATM    3  C   UNL     1      -7.477   5.220  68.398  1.00  0.00    -0.075 A  
HETATM    4  C   UNL     1      -7.523   4.129  67.507  1.00  0.00    -0.069 A  
HETATM    5  C   UNL     1      -8.667   4.069  66.692  1.00  0.00    -0.116 A  
HETATM    6  C   UNL     1      -9.560   6.180  67.573  1.00  0.00    -0.117 A  
HETATM    7  C   UNL     1     -10.877   4.936  65.789  1.00  0.00    -0.121 C  
HETATM    8  H   UNL     1      -9.642   2.982  65.281  1.00  0.00     0.000 HD 
HETATM    9  C   UNL     1      -9.683   5.062  66.709  1.00  0.00    -0.188 A  
HETATM   10  O   UNL     1      -8.869   3.023  65.832  1.00  0.00    -0.129 OA 
ENDROOT
BRANCH   4  11
HETATM   11  C   UNL     1      -6.359   3.103  67.538  1.00  0.00    -0.036 C  
HETATM   12  C   UNL     1      -6.782   1.628  67.735  1.00  0.00    -0.032 C  
HETATM   13  C   UNL     1      -5.533   3.097  66.218  1.00  0.00    -0.017 C  
HETATM   14  C   UNL     1      -5.411   3.507  68.684  1.00  0.00    -0.013 C  
ENDBRANCH   4  11
BRANCH   6  15
HETATM   15  C   UNL     1     -10.550   7.334  67.517  1.00  0.00    -0.344 C  
BRANCH  15  16
HETATM   16  C   UNL     1     -10.125   8.599  66.799  1.00  0.00    -0.296 A  
HETATM   17  N   UNL     1      -9.643   8.524  65.583  1.00  0.00    -0.444 NA 
HETATM   18  C   UNL     1      -9.359   9.928  65.189  1.00  0.00    -0.258 A  
HETATM   19  H   UNL     1      -9.496   7.682  65.027  1.00  0.00     0.000 HD 
HETATM   20  C   UNL     1      -9.860  10.826  66.325  1.00  0.00    -0.215 A  
HETATM   21  N   UNL     1     -10.300   9.858  67.302  1.00  0.00    -0.229 NA 
ENDBRANCH  15  16
ENDBRANCH   6  15
TORSDOF 3
ENDMDL
MODEL      166
REMARK 921   NORMALIZED FREE ENERGY PREDICTED BY IDOCK:   -2.39 KCAL/MOL
REMARK 922        TOTAL FREE ENERGY PREDICTED BY IDOCK:   -3.14 KCAL/MOL
REMARK 923 INTER-LIGAND FREE ENERGY PREDICTED BY IDOCK:   -2.75 KCAL/MOL
REMARK 924 INTRA-LIGAND FREE ENERGY PREDICTED BY IDOCK:   -0.39 KCAL/MOL
REMARK 927      BINDING AFFINITY PREDICTED BY RF-SCORE:    0.00 PKD
ROOT
HETATM    1  C   UNL     1      -9.898   4.425  69.501  1.00  0.00    -0.258 C  
HETATM    2  C   UNL     1      -9.431   5.656  68.771  1.00  0.00    -0.155 A  
HETATM    3  C   UNL     1      -9.376   6.859  69.501  1.00  0.00    -0.147 A  
HETATM    4  C   UNL     1      -9.051   8.106  68.930  1.00  0.00    -0.147 A  
HETATM    5  C   UNL     1      -8.698   8.069  67.570  1.00  0.00    -0.125 A  
HETATM    6  C   UNL     1      -9.124   5.656  67.396  1.00  0.00    -0.110 A  
HETATM    7  C   UNL     1      -8.346   6.921  65.332  1.00  0.00    -0.122 C  
HETATM    8  H   UNL     1      -8.056   9.174  65.993  1.00  0.00     0.000 HD 
HETATM    9  C   UNL     1      -8.722   6.878  66.797  1.00  0.00    -0.122 A  
HETATM   10  O   UNL     1      -8.294   9.199  66.912  1.00  0.00    -0.117 OA 
ENDROOT
BRANCH   4  11
HETATM   11  C   UNL     1      -9.073   9.362  69.842  1.00  0.00    -0.221 C  
HETATM   12  C   UNL     1      -7.749  10.161  69.899  1.00  0.00    -0.171 C  
HETATM   13  C   UNL     1     -10.138  10.405  69.397  1.00  0.00    -0.251 C  
HETATM   14  C   UNL     1      -9.435   8.898  71.267  1.00  0.00    -0.343 C  
ENDBRANCH   4  11
BRANCH   6  15
HETATM   15  C   UNL     1      -9.303   4.392  66.569  1.00  0.00    -0.165 C  
BRANCH  15  16
HETATM   16  C   UNL     1      -8.113   3.465  66.423  1.00  0.00    -0.092 A  
HETATM   17  N   UNL     1      -8.085   2.596  65.443  1.00  0.00    -0.085 NA 
HETATM   18  C   UNL     1      -6.788   1.886  65.588  1.00  0.00    -0.035 A  
HETATM   19  H   UNL     1      -8.801   2.440  64.733  1.00  0.00     0.000 HD 
HETATM   20  C   UNL     1      -6.029   2.564  66.734  1.00  0.00    -0.023 A  
HETATM   21  N   UNL     1      -6.990   3.535  67.200  1.00  0.00    -0.057 NA 
ENDBRANCH  15  16
ENDBRANCH   6  15
TORSDOF 3
ENDMDL
MODEL      167
REMARK 921   NORMALIZED FREE ENERGY PREDICTED BY IDOCK:   -2.38 KCAL/MOL
REMARK 922        TOTAL FREE ENERGY PREDICTED BY IDOCK:   -3.13 KCAL/MOL
REMARK 923 INTER-LIGAND FREE ENERGY PREDICTED BY IDOCK:   -2.79 KCAL/MOL
REMARK 924 INTRA-LIGAND FREE ENERGY PREDICTED BY IDOCK:   -0.34 KCAL/MOL
REMARK 927      BINDING AFFINITY PREDICTED BY RF-SCORE:    0.00 PKD
ROOT
HETATM    1  C   UNL     1      -6.900   8.596  64.370  1.00  0.00    -0.077 C  
HETATM    2  C   UNL     1      -8.105   8.644  65.272  1.00  0.00    -0.136 A  
HETATM    3  C   UNL     1      -8.511   9.909  65.742  1.00  0.00    -0.142 A  
HETATM    4  C   UNL     1      -9.557  10.100  66.666  1.00  0.00    -0.230 A  
HETATM    5  C   UNL     1     -10.245   8.934  67.042  1.00  0.00    -0.275 A  
HETATM    6  C   UNL     1      -8.778   7.486  65.707  1.00  0.00    -0.142 A  
HETATM    7  C   UNL     1     -10.663   6.428  67.046  1.00  0.00    -0.434 C  
HETATM    8  H   UNL     1     -11.793   8.200  68.133  1.00  0.00     0.000 HD 
HETATM    9  C   UNL     1      -9.884   7.639  66.582  1.00  0.00    -0.283 A  
HETATM   10  O   UNL     1     -11.327   8.989  67.878  1.00  0.00     0.280 OA 
ENDROOT
BRANCH   4  11
HETATM   11  C   UNL     1      -9.871  11.546  67.135  1.00  0.00    -0.210 C  
HETATM   12  C   UNL     1     -11.168  12.162  66.559  1.00  0.00    -0.378 C  
HETATM   13  C   UNL     1     -10.042  11.649  68.678  1.00  0.00    -0.206 C  
HETATM   14  C   UNL     1      -8.677  12.436  66.734  1.00  0.00    -0.160 C  
ENDBRANCH   4  11
BRANCH   6  15
HETATM   15  C   UNL     1      -8.271   6.108  65.309  1.00  0.00    -0.142 C  
BRANCH  15  16
HETATM   16  C   UNL     1      -7.335   5.394  66.263  1.00  0.00    -0.082 A  
HETATM   17  N   UNL     1      -7.046   4.132  66.064  1.00  0.00    -0.066 NA 
HETATM   18  C   UNL     1      -6.103   3.770  67.154  1.00  0.00    -0.025 A  
HETATM   19  H   UNL     1      -7.394   3.526  65.320  1.00  0.00     0.000 HD 
HETATM   20  C   UNL     1      -5.809   5.054  67.939  1.00  0.00    -0.021 A  
HETATM   21  N   UNL     1      -6.675   6.009  67.289  1.00  0.00    -0.059 NA 
ENDBRANCH  15  16
ENDBRANCH   6  15
TORSDOF 3
ENDMDL
MODEL      168
REMARK 921   NORMALIZED FREE ENERGY PREDICTED BY IDOCK:   -2.35 KCAL/MOL
REMARK 922        TOTAL FREE ENERGY PREDICTED BY IDOCK:   -3.08 KCAL/MOL
REMARK 923 INTER-LIGAND FREE ENERGY PREDICTED BY IDOCK:   -2.77 KCAL/MOL
REMARK 924 INTRA-LIGAND FREE ENERGY PREDICTED BY IDOCK:   -0.31 KCAL/MOL
REMARK 927      BINDING AFFINITY PREDICTED BY RF-SCORE:    0.00 PKD
ROOT
HETATM    1  C   UNL     1      -6.413   8.304  67.974  1.00  0.00    -0.057 C  
HETATM    2  C   UNL     1      -7.510   7.335  67.616  1.00  0.00    -0.101 A  
HETATM    3  C   UNL     1      -7.269   6.453  66.545  1.00  0.00    -0.073 A  
HETATM    4  C   UNL     1      -8.232   5.560  66.036  1.00  0.00    -0.114 A  
HETATM    5  C   UNL     1      -9.457   5.541  66.726  1.00  0.00    -0.140 A  
HETATM    6  C   UNL     1      -8.765   7.334  68.256  1.00  0.00    -0.125 A  
HETATM    7  C   UNL     1     -11.089   6.334  68.503  1.00  0.00    -0.397 C  
HETATM    8  H   UNL     1     -11.281   4.657  66.845  1.00  0.00     0.000 HD 
HETATM    9  C   UNL     1      -9.740   6.400  67.822  1.00  0.00    -0.127 A  
HETATM   10  O   UNL     1     -10.453   4.670  66.378  1.00  0.00    -0.268 OA 
ENDROOT
BRANCH   4  11
HETATM   11  C   UNL     1      -7.847   4.674  64.821  1.00  0.00    -0.087 C  
HETATM   12  C   UNL     1      -8.892   4.624  63.680  1.00  0.00    -0.129 C  
HETATM   13  C   UNL     1      -6.537   5.150  64.127  1.00  0.00    -0.038 C  
HETATM   14  C   UNL     1      -7.610   3.243  65.342  1.00  0.00    -0.077 C  
ENDBRANCH   4  11
BRANCH   6  15
HETATM   15  C   UNL     1      -9.082   8.367  69.327  1.00  0.00    -0.150 C  
BRANCH  15  16
HETATM   16  C   UNL     1      -8.960   7.946  70.777  1.00  0.00    -0.140 A  
HETATM   17  N   UNL     1      -8.181   6.943  71.098  1.00  0.00    -0.117 NA 
HETATM   18  C   UNL     1      -8.282   6.827  72.576  1.00  0.00    -0.104 A  
HETATM   19  H   UNL     1      -7.623   6.366  70.468  1.00  0.00     0.000 HD 
HETATM   20  C   UNL     1      -9.151   7.993  73.061  1.00  0.00    -0.265 A  
HETATM   21  N   UNL     1      -9.542   8.615  71.818  1.00  0.00    -0.264 NA 
ENDBRANCH  15  16
ENDBRANCH   6  15
TORSDOF 3
ENDMDL
MODEL      169
REMARK 921   NORMALIZED FREE ENERGY PREDICTED BY IDOCK:   -2.30 KCAL/MOL
REMARK 922        TOTAL FREE ENERGY PREDICTED BY IDOCK:   -3.03 KCAL/MOL
REMARK 923 INTER-LIGAND FREE ENERGY PREDICTED BY IDOCK:   -2.75 KCAL/MOL
REMARK 924 INTRA-LIGAND FREE ENERGY PREDICTED BY IDOCK:   -0.29 KCAL/MOL
REMARK 927      BINDING AFFINITY PREDICTED BY RF-SCORE:    0.00 PKD
ROOT
HETATM    1  C   UNL     1      -7.420   8.591  72.035  1.00  0.00    -0.120 C  
HETATM    2  C   UNL     1      -7.878   9.261  70.766  1.00  0.00    -0.174 A  
HETATM    3  C   UNL     1      -7.091  10.321  70.275  1.00  0.00    -0.114 A  
HETATM    4  C   UNL     1      -7.443  11.103  69.156  1.00  0.00    -0.109 A  
HETATM    5  C   UNL     1      -8.616  10.704  68.492  1.00  0.00    -0.137 A  
HETATM    6  C   UNL     1      -9.077   8.917  70.112  1.00  0.00    -0.189 A  
HETATM    7  C   UNL     1     -10.691   9.273  68.181  1.00  0.00    -0.205 C  
HETATM    8  H   UNL     1      -9.825  11.065  66.901  1.00  0.00     0.000 HD 
HETATM    9  C   UNL     1      -9.433   9.632  68.940  1.00  0.00    -0.157 A  
HETATM   10  O   UNL     1      -9.032  11.334  67.350  1.00  0.00    -0.142 OA 
ENDROOT
BRANCH   4  11
HETATM   11  C   UNL     1      -6.506  12.271  68.749  1.00  0.00    -0.082 C  
HETATM   12  C   UNL     1      -7.125  13.685  68.856  1.00  0.00    -0.102 C  
HETATM   13  C   UNL     1      -5.223  12.341  69.628  1.00  0.00    -0.074 C  
HETATM   14  C   UNL     1      -6.065  12.029  67.292  1.00  0.00    -0.147 C  
ENDBRANCH   4  11
BRANCH   6  15
HETATM   15  C   UNL     1      -9.999   7.862  70.705  1.00  0.00    -0.188 C  
BRANCH  15  16
HETATM   16  C   UNL     1      -9.768   6.417  70.314  1.00  0.00    -0.167 A  
HETATM   17  N   UNL     1      -8.970   6.136  69.313  1.00  0.00    -0.124 NA 
HETATM   18  C   UNL     1      -8.959   4.653  69.228  1.00  0.00    -0.097 A  
HETATM   19  H   UNL     1      -8.465   6.794  68.720  1.00  0.00     0.000 HD 
HETATM   20  C   UNL     1      -9.784   4.127  70.408  1.00  0.00    -0.201 A  
HETATM   21  N   UNL     1     -10.267   5.349  71.006  1.00  0.00    -0.217 NA 
ENDBRANCH  15  16
ENDBRANCH   6  15
TORSDOF 3
ENDMDL
MODEL      170
REMARK 921   NORMALIZED FREE ENERGY PREDICTED BY IDOCK:   -2.27 KCAL/MOL
REMARK 922        TOTAL FREE ENERGY PREDICTED BY IDOCK:   -2.99 KCAL/MOL
REMARK 923 INTER-LIGAND FREE ENERGY PREDICTED BY IDOCK:   -2.74 KCAL/MOL
REMARK 924 INTRA-LIGAND FREE ENERGY PREDICTED BY IDOCK:   -0.25 KCAL/MOL
REMARK 927      BINDING AFFINITY PREDICTED BY RF-SCORE:    0.00 PKD
ROOT
HETATM    1  C   UNL     1      -6.089   5.195  67.546  1.00  0.00    -0.030 C  
HETATM    2  C   UNL     1      -7.303   6.050  67.797  1.00  0.00    -0.077 A  
HETATM    3  C   UNL     1      -7.170   7.107  68.719  1.00  0.00    -0.094 A  
HETATM    4  C   UNL     1      -8.239   7.929  69.127  1.00  0.00    -0.132 A  
HETATM    5  C   UNL     1      -9.464   7.680  68.483  1.00  0.00    -0.147 A  
HETATM    6  C   UNL     1      -8.555   5.789  67.207  1.00  0.00    -0.109 A  
HETATM    7  C   UNL     1     -10.998   6.421  66.898  1.00  0.00    -0.413 C  
HETATM    8  H   UNL     1     -11.394   8.285  68.301  1.00  0.00     0.000 HD 
HETATM    9  C   UNL     1      -9.643   6.638  67.535  1.00  0.00    -0.142 A  
HETATM   10  O   UNL     1     -10.566   8.453  68.735  1.00  0.00    -0.203 OA 
ENDROOT
BRANCH   4  11
HETATM   11  C   UNL     1      -7.962   9.029  70.186  1.00  0.00    -0.115 C  
HETATM   12  C   UNL     1      -6.545   9.007  70.807  1.00  0.00    -0.063 C  
HETATM   13  C   UNL     1      -8.110  10.466  69.607  1.00  0.00    -0.116 C  
HETATM   14  C   UNL     1      -9.001   8.865  71.312  1.00  0.00    -0.312 C  
ENDBRANCH   4  11
BRANCH   6  15
HETATM   15  C   UNL     1      -8.743   4.575  66.310  1.00  0.00    -0.113 C  
BRANCH  15  16
HETATM   16  C   UNL     1      -8.651   4.779  64.812  1.00  0.00    -0.146 A  
HETATM   17  N   UNL     1      -9.588   4.297  64.033  1.00  0.00    -0.261 NA 
HETATM   18  C   UNL     1      -9.195   4.696  62.657  1.00  0.00    -0.092 A  
HETATM   19  H   UNL     1     -10.411   3.762  64.312  1.00  0.00     0.000 HD 
HETATM   20  C   UNL     1      -7.949   5.580  62.782  1.00  0.00    -0.096 A  
HETATM   21  N   UNL     1      -7.687   5.532  64.201  1.00  0.00    -0.082 NA 
ENDBRANCH  15  16
ENDBRANCH   6  15
TORSDOF 3
ENDMDL
MODEL      171
REMARK 921   NORMALIZED FREE ENERGY PREDICTED BY IDOCK:   -2.23 KCAL/MOL
REMARK 922        TOTAL FREE ENERGY PREDICTED BY IDOCK:   -2.94 KCAL/MOL
REMARK 923 INTER-LIGAND FREE ENERGY PREDICTED BY IDOCK:   -2.64 KCAL/MOL
REMARK 924 INTRA-LIGAND FREE ENERGY PREDICTED BY IDOCK:   -0.31 KCAL/MOL
REMARK 927      BINDING AFFINITY PREDICTED BY RF-SCORE:    0.00 PKD
ROOT
HETATM    1  C   UNL     1      -6.606   7.159  69.412  1.00  0.00    -0.044 C  
HETATM    2  C   UNL     1      -7.335   5.847  69.288  1.00  0.00    -0.083 A  
HETATM    3  C   UNL     1      -7.136   5.106  68.106  1.00  0.00    -0.062 A  
HETATM    4  C   UNL     1      -7.821   3.912  67.807  1.00  0.00    -0.078 A  
HETATM    5  C   UNL     1      -8.680   3.445  68.817  1.00  0.00    -0.100 A  
HETATM    6  C   UNL     1      -8.243   5.383  70.260  1.00  0.00    -0.101 A  
HETATM    7  C   UNL     1      -9.855   3.590  71.064  1.00  0.00    -0.156 C  
HETATM    8  H   UNL     1      -9.933   1.944  69.365  1.00  0.00     0.000 HD 
HETATM    9  C   UNL     1      -8.901   4.148  70.031  1.00  0.00    -0.130 A  
HETATM   10  O   UNL     1      -9.352   2.260  68.683  1.00  0.00    -0.162 OA 
ENDROOT
BRANCH   4  11
HETATM   11  C   UNL     1      -7.538   3.221  66.446  1.00  0.00    -0.077 C  
HETATM   12  C   UNL     1      -6.857   1.835  66.537  1.00  0.00    -0.038 C  
HETATM   13  C   UNL     1      -8.835   2.964  65.626  1.00  0.00    -0.136 C  
HETATM   14  C   UNL     1      -6.639   4.164  65.622  1.00  0.00    -0.044 C  
ENDBRANCH   4  11
BRANCH   6  15
HETATM   15  C   UNL     1      -8.563   6.235  71.479  1.00  0.00    -0.131 C  
BRANCH  15  16
HETATM   16  C   UNL     1      -9.667   7.265  71.355  1.00  0.00    -0.164 A  
HETATM   17  N   UNL     1     -10.807   6.930  70.803  1.00  0.00    -0.236 NA 
HETATM   18  C   UNL     1     -11.647   8.154  70.869  1.00  0.00    -0.267 A  
HETATM   19  H   UNL     1     -11.063   6.023  70.412  1.00  0.00     0.000 HD 
HETATM   20  C   UNL     1     -10.850   9.207  71.648  1.00  0.00    -0.372 A  
HETATM   21  N   UNL     1      -9.597   8.527  71.877  1.00  0.00    -0.256 NA 
ENDBRANCH  15  16
ENDBRANCH   6  15
TORSDOF 3
ENDMDL
MODEL      172
REMARK 921   NORMALIZED FREE ENERGY PREDICTED BY IDOCK:   -2.22 KCAL/MOL
REMARK 922        TOTAL FREE ENERGY PREDICTED BY IDOCK:   -2.93 KCAL/MOL
REMARK 923 INTER-LIGAND FREE ENERGY PREDICTED BY IDOCK:   -2.86 KCAL/MOL
REMARK 924 INTRA-LIGAND FREE ENERGY PREDICTED BY IDOCK:   -0.07 KCAL/MOL
REMARK 927      BINDING AFFINITY PREDICTED BY RF-SCORE:    0.00 PKD
ROOT
HETATM    1  C   UNL     1      -6.797   5.651  69.943  1.00  0.00    -0.060 C  
HETATM    2  C   UNL     1      -8.044   5.348  70.733  1.00  0.00    -0.111 A  
HETATM    3  C   UNL     1      -9.033   6.350  70.789  1.00  0.00    -0.144 A  
HETATM    4  C   UNL     1     -10.205   6.249  71.565  1.00  0.00    -0.233 A  
HETATM    5  C   UNL     1     -10.375   5.025  72.235  1.00  0.00    -0.209 A  
HETATM    6  C   UNL     1      -8.215   4.153  71.457  1.00  0.00    -0.087 A  
HETATM    7  C   UNL     1      -9.662   2.697  72.958  1.00  0.00    -0.163 C  
HETATM    8  H   UNL     1     -11.620   3.942  73.419  1.00  0.00     0.000 HD 
HETATM    9  C   UNL     1      -9.415   3.979  72.195  1.00  0.00    -0.192 A  
HETATM   10  O   UNL     1     -11.504   4.769  72.966  1.00  0.00    -0.270 OA 
ENDROOT
BRANCH   4  11
HETATM   11  C   UNL     1     -11.190   7.448  71.571  1.00  0.00    -0.271 C  
HETATM   12  C   UNL     1     -12.668   7.091  71.281  1.00  0.00    -0.400 C  
HETATM   13  C   UNL     1     -11.229   8.181  72.943  1.00  0.00    -0.312 C  
HETATM   14  C   UNL     1     -10.705   8.456  70.511  1.00  0.00    -0.247 C  
ENDBRANCH   4  11
BRANCH   6  15
HETATM   15  C   UNL     1      -7.100   3.119  71.508  1.00  0.00    -0.032 C  
BRANCH  15  16
HETATM   16  C   UNL     1      -6.662   2.483  70.205  1.00  0.00    -0.033 A  
HETATM   17  N   UNL     1      -5.407   2.150  70.036  1.00  0.00    -0.011 NA 
HETATM   18  C   UNL     1      -5.343   1.543  68.681  1.00  0.00    -0.013 A  
HETATM   19  H   UNL     1      -4.638   2.279  70.694  1.00  0.00     0.000 HD 
HETATM   20  C   UNL     1      -6.779   1.477  68.149  1.00  0.00    -0.032 A  
HETATM   21  N   UNL     1      -7.521   2.131  69.201  1.00  0.00    -0.043 NA 
ENDBRANCH  15  16
ENDBRANCH   6  15
TORSDOF 3
ENDMDL
MODEL      173
REMARK 921   NORMALIZED FREE ENERGY PREDICTED BY IDOCK:   -2.21 KCAL/MOL
REMARK 922        TOTAL FREE ENERGY PREDICTED BY IDOCK:   -2.93 KCAL/MOL
REMARK 923 INTER-LIGAND FREE ENERGY PREDICTED BY IDOCK:   -2.95 KCAL/MOL
REMARK 924 INTRA-LIGAND FREE ENERGY PREDICTED BY IDOCK:    0.02 KCAL/MOL
REMARK 927      BINDING AFFINITY PREDICTED BY RF-SCORE:    0.00 PKD
ROOT
HETATM    1  C   UNL     1      -7.305   8.773  64.384  1.00  0.00    -0.103 C  
HETATM    2  C   UNL     1      -8.544   9.201  65.126  1.00  0.00    -0.200 A  
HETATM    3  C   UNL     1      -9.001  10.517  64.915  1.00  0.00    -0.222 A  
HETATM    4  C   UNL     1     -10.086  11.088  65.609  1.00  0.00    -0.310 A  
HETATM    5  C   UNL     1     -10.756  10.222  66.491  1.00  0.00    -0.078 A  
HETATM    6  C   UNL     1      -9.201   8.371  66.055  1.00  0.00    -0.247 A  
HETATM    7  C   UNL     1     -11.105   8.017  67.702  1.00  0.00     0.266 C  
HETATM    8  H   UNL     1     -12.323  10.044  67.770  1.00  0.00     0.000 HD 
HETATM    9  C   UNL     1     -10.343   8.883  66.724  1.00  0.00    -0.317 A  
HETATM   10  O   UNL     1     -11.870  10.630  67.174  1.00  0.00    -0.082 OA 
ENDROOT
BRANCH   4  11
HETATM   11  C   UNL     1     -10.456  12.565  65.311  1.00  0.00    -0.313 C  
HETATM   12  C   UNL     1     -11.871  12.998  65.763  1.00  0.00    -0.453 C  
HETATM   13  C   UNL     1      -9.499  13.573  66.013  1.00  0.00    -0.109 C  
HETATM   14  C   UNL     1     -10.331  12.780  63.790  1.00  0.00    -0.269 C  
ENDBRANCH   4  11
BRANCH   6  15
HETATM   15  C   UNL     1      -8.642   6.996  66.386  1.00  0.00    -0.136 C  
BRANCH  15  16
HETATM   16  C   UNL     1      -7.796   6.855  67.635  1.00  0.00    -0.112 A  
HETATM   17  N   UNL     1      -7.951   5.809  68.409  1.00  0.00    -0.103 NA 
HETATM   18  C   UNL     1      -6.963   5.984  69.504  1.00  0.00    -0.067 A  
HETATM   19  H   UNL     1      -8.609   5.039  68.285  1.00  0.00     0.000 HD 
HETATM   20  C   UNL     1      -6.141   7.236  69.175  1.00  0.00    -0.030 A  
HETATM   21  N   UNL     1      -6.788   7.713  67.975  1.00  0.00    -0.065 NA 
ENDBRANCH  15  16
ENDBRANCH   6  15
TORSDOF 3
ENDMDL
MODEL      174
REMARK 921   NORMALIZED FREE ENERGY PREDICTED BY IDOCK:   -2.10 KCAL/MOL
REMARK 922        TOTAL FREE ENERGY PREDICTED BY IDOCK:   -2.79 KCAL/MOL
REMARK 923 INTER-LIGAND FREE ENERGY PREDICTED BY IDOCK:   -2.47 KCAL/MOL
REMARK 924 INTRA-LIGAND FREE ENERGY PREDICTED BY IDOCK:   -0.32 KCAL/MOL
REMARK 927      BINDING AFFINITY PREDICTED BY RF-SCORE:    0.00 PKD
ROOT
HETATM    1  C   UNL     1     -10.814   5.489  66.701  1.00  0.00    -0.257 C  
HETATM    2  C   UNL     1      -9.626   6.409  66.800  1.00  0.00    -0.189 A  
HETATM    3  C   UNL     1      -9.863   7.790  66.650  1.00  0.00    -0.295 A  
HETATM    4  C   UNL     1      -8.842   8.760  66.622  1.00  0.00    -0.153 A  
HETATM    5  C   UNL     1      -7.542   8.268  66.839  1.00  0.00    -0.092 A  
HETATM    6  C   UNL     1      -8.308   5.938  66.962  1.00  0.00    -0.105 A  
HETATM    7  C   UNL     1      -5.828   6.434  67.223  1.00  0.00    -0.017 C  
HETATM    8  H   UNL     1      -5.590   8.782  67.053  1.00  0.00     0.000 HD 
HETATM    9  C   UNL     1      -7.256   6.888  67.012  1.00  0.00    -0.084 A  
HETATM   10  O   UNL     1      -6.468   9.114  66.907  1.00  0.00    -0.065 OA 
ENDROOT
BRANCH   4  11
HETATM   11  C   UNL     1      -9.240  10.244  66.404  1.00  0.00    -0.186 C  
HETATM   12  C   UNL     1      -8.639  11.247  67.417  1.00  0.00    -0.136 C  
HETATM   13  C   UNL     1      -8.797  10.783  65.013  1.00  0.00    -0.190 C  
HETATM   14  C   UNL     1     -10.778  10.329  66.473  1.00  0.00    -0.148 C  
ENDBRANCH   4  11
BRANCH   6  15
HETATM   15  C   UNL     1      -8.026   4.444  66.996  1.00  0.00    -0.101 C  
BRANCH  15  16
HETATM   16  C   UNL     1      -8.208   3.717  68.313  1.00  0.00    -0.082 A  
HETATM   17  N   UNL     1      -9.211   2.889  68.463  1.00  0.00    -0.166 NA 
HETATM   18  C   UNL     1      -9.069   2.349  69.840  1.00  0.00    -0.109 A  
HETATM   19  H   UNL     1      -9.935   2.663  67.781  1.00  0.00     0.000 HD 
HETATM   20  C   UNL     1      -7.763   2.911  70.412  1.00  0.00    -0.043 A  
HETATM   21  N   UNL     1      -7.324   3.789  69.353  1.00  0.00    -0.052 NA 
ENDBRANCH  15  16
ENDBRANCH   6  15
TORSDOF 3
ENDMDL
MODEL      175
REMARK 921   NORMALIZED FREE ENERGY PREDICTED BY IDOCK:   -2.09 KCAL/MOL
REMARK 922        TOTAL FREE ENERGY PREDICTED BY IDOCK:   -2.78 KCAL/MOL
REMARK 923 INTER-LIGAND FREE ENERGY PREDICTED BY IDOCK:   -3.46 KCAL/MOL
REMARK 924 INTRA-LIGAND FREE ENERGY PREDICTED BY IDOCK:    0.68 KCAL/MOL
REMARK 927      BINDING AFFINITY PREDICTED BY RF-SCORE:    0.00 PKD
ROOT
HETATM    1  C   UNL     1      -8.540  15.154  65.741  1.00  0.00     0.994 C  
HETATM    2  C   UNL     1      -8.751  16.593  66.132  1.00  0.00    -0.322 A  
HETATM    3  C   UNL     1      -7.697  17.492  65.879  1.00  0.00    -0.119 A  
HETATM    4  C   UNL     1      -7.711  18.844  66.275  1.00  0.00    -0.297 A  
HETATM    5  C   UNL     1      -8.901  19.278  66.885  1.00  0.00    -0.303 A  
HETATM    6  C   UNL     1      -9.911  17.041  66.793  1.00  0.00    -0.283 A  
HETATM    7  C   UNL     1     -11.238  18.949  67.823  1.00  0.00     0.186 C  
HETATM    8  H   UNL     1      -9.877  20.878  67.667  1.00  0.00     0.000 HD 
HETATM    9  C   UNL     1      -9.996  18.412  67.147  1.00  0.00    -0.350 A  
HETATM   10  O   UNL     1      -9.072  20.585  67.254  1.00  0.00    -0.378 OA 
ENDROOT
BRANCH   4  11
HETATM   11  C   UNL     1      -6.462  19.714  65.971  1.00  0.00    -0.220 C  
HETATM   12  C   UNL     1      -6.196  20.864  66.973  1.00  0.00    -0.348 C  
HETATM   13  C   UNL     1      -5.144  18.887  65.971  1.00  0.00    -0.169 C  
HETATM   14  C   UNL     1      -6.642  20.313  64.563  1.00  0.00    -0.223 C  
ENDBRANCH   4  11
BRANCH   6  15
HETATM   15  C   UNL     1     -11.000  16.054  67.187  1.00  0.00    -0.183 C  
BRANCH  15  16
HETATM   16  C   UNL     1     -11.447  15.041  66.154  1.00  0.00    -0.222 A  
HETATM   17  N   UNL     1     -11.817  15.447  64.965  1.00  0.00    -0.098 NA 
HETATM   18  C   UNL     1     -12.161  14.210  64.219  1.00  0.00    -0.444 A  
HETATM   19  H   UNL     1     -11.859  16.408  64.625  1.00  0.00     0.000 HD 
HETATM   20  C   UNL     1     -11.820  13.025  65.129  1.00  0.00    -0.369 A  
HETATM   21  N   UNL     1     -11.401  13.687  66.342  1.00  0.00    -0.309 NA 
ENDBRANCH  15  16
ENDBRANCH   6  15
TORSDOF 3
ENDMDL
MODEL      176
REMARK 921   NORMALIZED FREE ENERGY PREDICTED BY IDOCK:   -2.04 KCAL/MOL
REMARK 922        TOTAL FREE ENERGY PREDICTED BY IDOCK:   -2.72 KCAL/MOL
REMARK 923 INTER-LIGAND FREE ENERGY PREDICTED BY IDOCK:   -5.20 KCAL/MOL
REMARK 924 INTRA-LIGAND FREE ENERGY PREDICTED BY IDOCK:    2.48 KCAL/MOL
REMARK 927      BINDING AFFINITY PREDICTED BY RF-SCORE:    0.00 PKD
ROOT
HETATM    1  C   UNL     1      -9.486  14.075  65.581  1.00  0.00     0.027 C  
HETATM    2  C   UNL     1      -9.199  15.445  66.137  1.00  0.00    -0.362 A  
HETATM    3  C   UNL     1      -8.127  15.563  67.043  1.00  0.00    -0.272 A  
HETATM    4  C   UNL     1      -7.800  16.757  67.717  1.00  0.00    -0.187 A  
HETATM    5  C   UNL     1      -8.575  17.875  67.364  1.00  0.00    -0.239 A  
HETATM    6  C   UNL     1      -9.993  16.570  65.842  1.00  0.00    -0.342 A  
HETATM    7  C   UNL     1     -10.455  19.054  66.127  1.00  0.00    -0.541 C  
HETATM    8  H   UNL     1      -8.840  19.867  67.653  1.00  0.00     0.000 HD 
HETATM    9  C   UNL     1      -9.655  17.809  66.443  1.00  0.00    -0.293 A  
HETATM   10  O   UNL     1      -8.316  19.111  67.891  1.00  0.00    -0.283 OA 
ENDROOT
BRANCH   4  11
HETATM   11  C   UNL     1      -6.620  16.735  68.725  1.00  0.00    -0.180 C  
HETATM   12  C   UNL     1      -6.329  18.080  69.432  1.00  0.00    -0.243 C  
HETATM   13  C   UNL     1      -6.847  15.725  69.887  1.00  0.00    -0.045 C  
HETATM   14  C   UNL     1      -5.359  16.293  67.957  1.00  0.00    -0.119 C  
ENDBRANCH   4  11
BRANCH   6  15
HETATM   15  C   UNL     1     -11.229  16.428  64.966  1.00  0.00    -0.138 C  
BRANCH  15  16
HETATM   16  C   UNL     1     -11.836  15.048  64.812  1.00  0.00    -0.341 A  
HETATM   17  N   UNL     1     -11.894  14.494  63.627  1.00  0.00    -0.641 NA 
HETATM   18  C   UNL     1     -12.514  13.162  63.848  1.00  0.00    -0.278 A  
HETATM   19  H   UNL     1     -11.581  14.892  62.741  1.00  0.00     0.000 HD 
HETATM   20  C   UNL     1     -12.695  12.996  65.361  1.00  0.00    -0.307 A  
HETATM   21  N   UNL     1     -12.251  14.275  65.861  1.00  0.00    -0.420 NA 
ENDBRANCH  15  16
ENDBRANCH   6  15
TORSDOF 3
ENDMDL
MODEL      177
REMARK 921   NORMALIZED FREE ENERGY PREDICTED BY IDOCK:   -2.00 KCAL/MOL
REMARK 922        TOTAL FREE ENERGY PREDICTED BY IDOCK:   -2.68 KCAL/MOL
REMARK 923 INTER-LIGAND FREE ENERGY PREDICTED BY IDOCK:   -2.95 KCAL/MOL
REMARK 924 INTRA-LIGAND FREE ENERGY PREDICTED BY IDOCK:    0.27 KCAL/MOL
REMARK 927      BINDING AFFINITY PREDICTED BY RF-SCORE:    0.00 PKD
ROOT
HETATM    1  C   UNL     1      -7.933  15.435  66.527  1.00  0.00     0.074 C  
HETATM    2  C   UNL     1      -7.335  14.627  67.649  1.00  0.00    -0.204 A  
HETATM    3  C   UNL     1      -7.533  13.233  67.618  1.00  0.00    -0.173 A  
HETATM    4  C   UNL     1      -7.117  12.361  68.644  1.00  0.00    -0.103 A  
HETATM    5  C   UNL     1      -6.402  12.967  69.692  1.00  0.00    -0.089 A  
HETATM    6  C   UNL     1      -6.662  15.215  68.737  1.00  0.00    -0.099 A  
HETATM    7  C   UNL     1      -5.401  14.947  70.929  1.00  0.00    -0.139 C  
HETATM    8  H   UNL     1      -5.398  12.633  71.424  1.00  0.00     0.000 HD 
HETATM    9  C   UNL     1      -6.163  14.366  69.758  1.00  0.00    -0.139 A  
HETATM   10  O   UNL     1      -5.881  12.224  70.716  1.00  0.00    -0.284 OA 
ENDROOT
BRANCH   4  11
HETATM   11  C   UNL     1      -7.440  10.850  68.503  1.00  0.00    -0.103 C  
HETATM   12  C   UNL     1      -6.213   9.906  68.512  1.00  0.00    -0.049 C  
HETATM   13  C   UNL     1      -8.344  10.322  69.655  1.00  0.00    -0.139 C  
HETATM   14  C   UNL     1      -8.206  10.657  67.179  1.00  0.00    -0.121 C  
ENDBRANCH   4  11
BRANCH   6  15
HETATM   15  C   UNL     1      -6.554  16.729  68.846  1.00  0.00    -0.189 C  
BRANCH  15  16
HETATM   16  C   UNL     1      -7.819  17.545  68.675  1.00  0.00    -0.272 A  
HETATM   17  N   UNL     1      -8.931  17.144  69.240  1.00  0.00     0.022 NA 
HETATM   18  C   UNL     1      -9.941  18.175  68.890  1.00  0.00    -0.338 A  
HETATM   19  H   UNL     1      -9.072  16.303  69.801  1.00  0.00     0.000 HD 
HETATM   20  C   UNL     1      -9.206  19.287  68.132  1.00  0.00    -0.334 A  
HETATM   21  N   UNL     1      -7.868  18.753  68.038  1.00  0.00    -0.265 NA 
ENDBRANCH  15  16
ENDBRANCH   6  15
TORSDOF 3
ENDMDL
MODEL      178
REMARK 921   NORMALIZED FREE ENERGY PREDICTED BY IDOCK:   -1.97 KCAL/MOL
REMARK 922        TOTAL FREE ENERGY PREDICTED BY IDOCK:   -2.65 KCAL/MOL
REMARK 923 INTER-LIGAND FREE ENERGY PREDICTED BY IDOCK:   -2.46 KCAL/MOL
REMARK 924 INTRA-LIGAND FREE ENERGY PREDICTED BY IDOCK:   -0.19 KCAL/MOL
REMARK 927      BINDING AFFINITY PREDICTED BY RF-SCORE:    0.00 PKD
ROOT
HETATM    1  C   UNL     1      -8.200   5.520  64.970  1.00  0.00    -0.139 C  
HETATM    2  C   UNL     1      -8.359   6.347  66.219  1.00  0.00    -0.123 A  
HETATM    3  C   UNL     1      -8.471   5.656  67.441  1.00  0.00    -0.106 A  
HETATM    4  C   UNL     1      -8.719   6.287  68.676  1.00  0.00    -0.120 A  
HETATM    5  C   UNL     1      -8.772   7.691  68.631  1.00  0.00    -0.128 A  
HETATM    6  C   UNL     1      -8.470   7.751  66.195  1.00  0.00    -0.143 A  
HETATM    7  C   UNL     1      -8.734   9.943  67.456  1.00  0.00    -0.121 C  
HETATM    8  H   UNL     1      -8.973   9.380  69.741  1.00  0.00     0.000 HD 
HETATM    9  C   UNL     1      -8.649   8.433  67.426  1.00  0.00    -0.124 A  
HETATM   10  O   UNL     1      -8.937   8.430  69.772  1.00  0.00    -0.143 OA 
ENDROOT
BRANCH   4  11
HETATM   11  C   UNL     1      -8.864   5.400  69.941  1.00  0.00    -0.140 C  
HETATM   12  C   UNL     1      -8.215   5.968  71.226  1.00  0.00    -0.123 C  
HETATM   13  C   UNL     1     -10.351   5.156  70.332  1.00  0.00    -0.326 C  
HETATM   14  C   UNL     1      -8.230   4.031  69.627  1.00  0.00    -0.069 C  
ENDBRANCH   4  11
BRANCH   6  15
HETATM   15  C   UNL     1      -8.480   8.498  64.870  1.00  0.00    -0.166 C  
BRANCH  15  16
HETATM   16  C   UNL     1      -7.155   8.988  64.321  1.00  0.00    -0.090 A  
HETATM   17  N   UNL     1      -6.354   8.148  63.714  1.00  0.00    -0.070 NA 
HETATM   18  C   UNL     1      -5.183   8.960  63.294  1.00  0.00    -0.067 A  
HETATM   19  H   UNL     1      -6.502   7.150  63.563  1.00  0.00     0.000 HD 
HETATM   20  C   UNL     1      -5.492  10.417  63.654  1.00  0.00    -0.156 A  
HETATM   21  N   UNL     1      -6.764  10.298  64.326  1.00  0.00    -0.101 NA 
ENDBRANCH  15  16
ENDBRANCH   6  15
TORSDOF 3
ENDMDL
MODEL      179
REMARK 921   NORMALIZED FREE ENERGY PREDICTED BY IDOCK:   -1.93 KCAL/MOL
REMARK 922        TOTAL FREE ENERGY PREDICTED BY IDOCK:   -2.59 KCAL/MOL
REMARK 923 INTER-LIGAND FREE ENERGY PREDICTED BY IDOCK:   -2.30 KCAL/MOL
REMARK 924 INTRA-LIGAND FREE ENERGY PREDICTED BY IDOCK:   -0.29 KCAL/MOL
REMARK 927      BINDING AFFINITY PREDICTED BY RF-SCORE:    0.00 PKD
ROOT
HETATM    1  C   UNL     1      -5.821   9.565  64.439  1.00  0.00    -0.079 C  
HETATM    2  C   UNL     1      -6.850  10.201  65.337  1.00  0.00    -0.128 A  
HETATM    3  C   UNL     1      -6.428  11.277  66.143  1.00  0.00     0.027 A  
HETATM    4  C   UNL     1      -7.250  11.907  67.098  1.00  0.00    -0.144 A  
HETATM    5  C   UNL     1      -8.576  11.442  67.148  1.00  0.00    -0.151 A  
HETATM    6  C   UNL     1      -8.169   9.719  65.445  1.00  0.00    -0.131 A  
HETATM    7  C   UNL     1     -10.489   9.916  66.467  1.00  0.00    -0.213 C  
HETATM    8  H   UNL     1     -10.393  11.702  68.016  1.00  0.00     0.000 HD 
HETATM    9  C   UNL     1      -9.052  10.372  66.344  1.00  0.00    -0.177 A  
HETATM   10  O   UNL     1      -9.497  12.016  67.982  1.00  0.00    -0.186 OA 
ENDROOT
BRANCH   4  11
HETATM   11  C   UNL     1      -6.643  13.052  67.952  1.00  0.00    -0.131 C  
HETATM   12  C   UNL     1      -5.164  13.391  67.649  1.00  0.00    -0.004 C  
HETATM   13  C   UNL     1      -7.397  14.401  67.764  1.00  0.00    -0.186 C  
HETATM   14  C   UNL     1      -6.767  12.646  69.434  1.00  0.00    -0.022 C  
ENDBRANCH   4  11
BRANCH   6  15
HETATM   15  C   UNL     1      -8.599   8.480  64.676  1.00  0.00    -0.082 C  
BRANCH  15  16
HETATM   16  C   UNL     1      -8.355   7.128  65.315  1.00  0.00    -0.096 A  
HETATM   17  N   UNL     1      -8.405   6.045  64.580  1.00  0.00    -0.280 NA 
HETATM   18  C   UNL     1      -8.100   4.927  65.510  1.00  0.00    -0.113 A  
HETATM   19  H   UNL     1      -8.610   5.982  63.582  1.00  0.00     0.000 HD 
HETATM   20  C   UNL     1      -7.754   5.551  66.866  1.00  0.00    -0.100 A  
HETATM   21  N   UNL     1      -7.981   6.956  66.618  1.00  0.00    -0.106 NA 
ENDBRANCH  15  16
ENDBRANCH   6  15
TORSDOF 3
ENDMDL
MODEL      180
REMARK 921   NORMALIZED FREE ENERGY PREDICTED BY IDOCK:   -1.79 KCAL/MOL
REMARK 922        TOTAL FREE ENERGY PREDICTED BY IDOCK:   -2.43 KCAL/MOL
REMARK 923 INTER-LIGAND FREE ENERGY PREDICTED BY IDOCK:   -2.36 KCAL/MOL
REMARK 924 INTRA-LIGAND FREE ENERGY PREDICTED BY IDOCK:   -0.07 KCAL/MOL
REMARK 927      BINDING AFFINITY PREDICTED BY RF-SCORE:    0.00 PKD
ROOT
HETATM    1  C   UNL     1      -5.769  17.164  71.216  1.00  0.00     0.663 C  
HETATM    2  C   UNL     1      -6.495  16.535  70.056  1.00  0.00     0.070 A  
HETATM    3  C   UNL     1      -6.397  15.137  69.914  1.00  0.00    -0.164 A  
HETATM    4  C   UNL     1      -6.941  14.421  68.828  1.00  0.00    -0.100 A  
HETATM    5  C   UNL     1      -7.676  15.192  67.911  1.00  0.00    -0.135 A  
HETATM    6  C   UNL     1      -7.193  17.290  69.093  1.00  0.00    -0.182 A  
HETATM    7  C   UNL     1      -8.609  17.365  66.984  1.00  0.00    -0.250 C  
HETATM    8  H   UNL     1      -8.812  15.131  66.229  1.00  0.00     0.000 HD 
HETATM    9  C   UNL     1      -7.817  16.601  68.022  1.00  0.00    -0.173 A  
HETATM   10  O   UNL     1      -8.315  14.610  66.849  1.00  0.00    -0.203 OA 
ENDROOT
BRANCH   4  11
HETATM   11  C   UNL     1      -6.719  12.886  68.772  1.00  0.00    -0.093 C  
HETATM   12  C   UNL     1      -8.008  12.034  68.695  1.00  0.00    -0.082 C  
HETATM   13  C   UNL     1      -5.888  12.448  67.532  1.00  0.00    -0.142 C  
HETATM   14  C   UNL     1      -5.931  12.482  70.033  1.00  0.00    -0.145 C  
ENDBRANCH   4  11
BRANCH   6  15
HETATM   15  C   UNL     1      -7.198  18.809  69.165  1.00  0.00    -0.253 C  
BRANCH  15  16
HETATM   16  C   UNL     1      -6.605  19.577  68.002  1.00  0.00    -0.237 A  
HETATM   17  N   UNL     1      -7.107  20.741  67.670  1.00  0.00    -0.325 NA 
HETATM   18  C   UNL     1      -6.283  21.209  66.526  1.00  0.00    -0.287 A  
HETATM   19  H   UNL     1      -7.894  21.222  68.104  1.00  0.00     0.000 HD 
HETATM   20  C   UNL     1      -5.160  20.184  66.329  1.00  0.00    -0.163 A  
HETATM   21  N   UNL     1      -5.493  19.181  67.313  1.00  0.00    -0.158 NA 
ENDBRANCH  15  16
ENDBRANCH   6  15
TORSDOF 3
ENDMDL
MODEL      181
REMARK 921   NORMALIZED FREE ENERGY PREDICTED BY IDOCK:   -1.47 KCAL/MOL
REMARK 922        TOTAL FREE ENERGY PREDICTED BY IDOCK:   -2.05 KCAL/MOL
REMARK 923 INTER-LIGAND FREE ENERGY PREDICTED BY IDOCK:   -2.47 KCAL/MOL
REMARK 924 INTRA-LIGAND FREE ENERGY PREDICTED BY IDOCK:    0.41 KCAL/MOL
REMARK 927      BINDING AFFINITY PREDICTED BY RF-SCORE:    0.00 PKD
ROOT
HETATM    1  C   UNL     1      -6.217   7.258  63.192  1.00  0.00    -0.053 C  
HETATM    2  C   UNL     1      -7.270   7.305  64.268  1.00  0.00    -0.075 A  
HETATM    3  C   UNL     1      -7.799   8.568  64.599  1.00  0.00    -0.131 A  
HETATM    4  C   UNL     1      -8.717   8.781  65.647  1.00  0.00    -0.215 A  
HETATM    5  C   UNL     1      -9.148   7.619  66.310  1.00  0.00    -0.162 A  
HETATM    6  C   UNL     1      -7.680   6.164  64.984  1.00  0.00    -0.099 A  
HETATM    7  C   UNL     1      -9.157   5.121  66.771  1.00  0.00    -0.118 C  
HETATM    8  H   UNL     1     -10.384   6.893  67.749  1.00  0.00     0.000 HD 
HETATM    9  C   UNL     1      -8.657   6.323  66.000  1.00  0.00    -0.146 A  
HETATM   10  O   UNL     1     -10.092   7.678  67.300  1.00  0.00    -0.188 OA 
ENDROOT
BRANCH   4  11
HETATM   11  C   UNL     1      -9.184  10.233  65.934  1.00  0.00    -0.205 C  
HETATM   12  C   UNL     1      -8.057  11.292  65.993  1.00  0.00    -0.009 C  
HETATM   13  C   UNL     1     -10.165  10.769  64.851  1.00  0.00    -0.388 C  
HETATM   14  C   UNL     1      -9.931  10.225  67.282  1.00  0.00    -0.233 C  
ENDBRANCH   4  11
BRANCH   6  15
HETATM   15  C   UNL     1      -7.023   4.817  64.723  1.00  0.00    -0.050 C  
BRANCH  15  16
HETATM   16  C   UNL     1      -7.796   3.796  63.912  1.00  0.00    -0.084 A  
HETATM   17  N   UNL     1      -8.651   4.201  63.006  1.00  0.00    -0.093 NA 
HETATM   18  C   UNL     1      -9.196   2.958  62.402  1.00  0.00    -0.083 A  
HETATM   19  H   UNL     1      -8.890   5.163  62.766  1.00  0.00     0.000 HD 
HETATM   20  C   UNL     1      -8.435   1.782  63.024  1.00  0.00    -0.072 A  
HETATM   21  N   UNL     1      -7.592   2.447  63.990  1.00  0.00    -0.063 NA 
ENDBRANCH  15  16
ENDBRANCH   6  15
TORSDOF 3
ENDMDL
MODEL      182
REMARK 921   NORMALIZED FREE ENERGY PREDICTED BY IDOCK:   -1.39 KCAL/MOL
REMARK 922        TOTAL FREE ENERGY PREDICTED BY IDOCK:   -1.96 KCAL/MOL
REMARK 923 INTER-LIGAND FREE ENERGY PREDICTED BY IDOCK:   -1.90 KCAL/MOL
REMARK 924 INTRA-LIGAND FREE ENERGY PREDICTED BY IDOCK:   -0.06 KCAL/MOL
REMARK 927      BINDING AFFINITY PREDICTED BY RF-SCORE:    0.00 PKD
ROOT
HETATM    1  C   UNL     1      -6.705   9.800  63.672  1.00  0.00    -0.119 C  
HETATM    2  C   UNL     1      -7.592   9.567  64.866  1.00  0.00    -0.111 A  
HETATM    3  C   UNL     1      -7.527  10.506  65.914  1.00  0.00    -0.147 A  
HETATM    4  C   UNL     1      -8.224  10.370  67.131  1.00  0.00    -0.122 A  
HETATM    5  C   UNL     1      -9.075   9.253  67.212  1.00  0.00    -0.126 A  
HETATM    6  C   UNL     1      -8.412   8.429  64.996  1.00  0.00    -0.160 A  
HETATM    7  C   UNL     1     -10.111   7.103  66.344  1.00  0.00    -0.051 C  
HETATM    8  H   UNL     1     -10.437   8.287  68.367  1.00  0.00     0.000 HD 
HETATM    9  C   UNL     1      -9.187   8.288  66.176  1.00  0.00    -0.250 A  
HETATM   10  O   UNL     1      -9.862   9.042  68.312  1.00  0.00    -0.156 OA 
ENDROOT
BRANCH   4  11
HETATM   11  C   UNL     1      -8.026  11.457  68.220  1.00  0.00    -0.136 C  
HETATM   12  C   UNL     1      -6.799  12.379  68.019  1.00  0.00    -0.089 C  
HETATM   13  C   UNL     1      -9.234  12.434  68.315  1.00  0.00    -0.189 C  
HETATM   14  C   UNL     1      -7.893  10.740  69.578  1.00  0.00    -0.045 C  
ENDBRANCH   4  11
BRANCH   6  15
HETATM   15  C   UNL     1      -8.394   7.344  63.929  1.00  0.00     0.169 C  
BRANCH  15  16
HETATM   16  C   UNL     1      -7.727   6.027  64.268  1.00  0.00    -0.105 A  
HETATM   17  N   UNL     1      -6.584   6.024  64.908  1.00  0.00    -0.041 NA 
HETATM   18  C   UNL     1      -6.241   4.590  65.090  1.00  0.00    -0.034 A  
HETATM   19  H   UNL     1      -6.046   6.834  65.217  1.00  0.00     0.000 HD 
HETATM   20  C   UNL     1      -7.422   3.773  64.555  1.00  0.00    -0.072 A  
HETATM   21  N   UNL     1      -8.290   4.803  64.035  1.00  0.00    -0.118 NA 
ENDBRANCH  15  16
ENDBRANCH   6  15
TORSDOF 3
ENDMDL
MODEL      183
REMARK 921   NORMALIZED FREE ENERGY PREDICTED BY IDOCK:    0.24 KCAL/MOL
REMARK 922        TOTAL FREE ENERGY PREDICTED BY IDOCK:   -0.05 KCAL/MOL
REMARK 923 INTER-LIGAND FREE ENERGY PREDICTED BY IDOCK:   -2.63 KCAL/MOL
REMARK 924 INTRA-LIGAND FREE ENERGY PREDICTED BY IDOCK:    2.58 KCAL/MOL
REMARK 927      BINDING AFFINITY PREDICTED BY RF-SCORE:    0.00 PKD
ROOT
HETATM    1  C   UNL     1      -8.868  17.963  68.173  1.00  0.00    -0.265 C  
HETATM    2  C   UNL     1      -9.445  16.756  67.481  1.00  0.00    -0.237 A  
HETATM    3  C   UNL     1      -9.135  15.492  68.020  1.00  0.00    -0.182 A  
HETATM    4  C   UNL     1      -9.523  14.274  67.428  1.00  0.00    -0.211 A  
HETATM    5  C   UNL     1     -10.326  14.394  66.281  1.00  0.00    -0.295 A  
HETATM    6  C   UNL     1     -10.207  16.847  66.300  1.00  0.00    -0.337 A  
HETATM    7  C   UNL     1     -11.533  15.693  64.463  1.00  0.00    -0.304 C  
HETATM    8  H   UNL     1     -11.372  13.369  64.874  1.00  0.00     0.000 HD 
HETATM    9  C   UNL     1     -10.679  15.646  65.711  1.00  0.00    -0.350 A  
HETATM   10  O   UNL     1     -10.829  13.288  65.650  1.00  0.00    -0.275 OA 
ENDROOT
BRANCH   4  11
HETATM   11  C   UNL     1      -9.074  12.951  68.104  1.00  0.00    -0.207 C  
HETATM   12  C   UNL     1      -8.514  13.097  69.540  1.00  0.00     1.390 C  
HETATM   13  C   UNL     1     -10.238  11.927  68.244  1.00  0.00    -0.207 C  
HETATM   14  C   UNL     1      -7.992  12.313  67.211  1.00  0.00    -0.177 C  
ENDBRANCH   4  11
BRANCH   6  15
HETATM   15  C   UNL     1     -10.440  18.196  65.638  1.00  0.00    -0.103 C  
BRANCH  15  16
HETATM   16  C   UNL     1      -9.659  19.386  66.157  1.00  0.00    -0.328 A  
HETATM   17  N   UNL     1     -10.159  20.120  67.120  1.00  0.00    -0.444 NA 
HETATM   18  C   UNL     1      -9.135  21.162  67.388  1.00  0.00     0.165 A  
HETATM   19  H   UNL     1     -11.059  20.002  67.585  1.00  0.00     0.000 HD 
HETATM   20  C   UNL     1      -7.922  20.840  66.508  1.00  0.00     0.133 A  
HETATM   21  N   UNL     1      -8.392  19.703  65.752  1.00  0.00    -0.394 NA 
ENDBRANCH  15  16
ENDBRANCH   6  15
TORSDOF 3
ENDMDL
MODEL      184
REMARK 921   NORMALIZED FREE ENERGY PREDICTED BY IDOCK:    6.07 KCAL/MOL
REMARK 922        TOTAL FREE ENERGY PREDICTED BY IDOCK:    6.81 KCAL/MOL
REMARK 923 INTER-LIGAND FREE ENERGY PREDICTED BY IDOCK:    6.28 KCAL/MOL
REMARK 924 INTRA-LIGAND FREE ENERGY PREDICTED BY IDOCK:    0.52 KCAL/MOL
REMARK 927      BINDING AFFINITY PREDICTED BY RF-SCORE:    0.00 PKD
ROOT
HETATM    1  C   UNL     1      -6.992  15.204  68.137  1.00  0.00    -0.132 C  
HETATM    2  C   UNL     1      -8.085  16.143  68.573  1.00  0.00    -0.181 A  
HETATM    3  C   UNL     1      -8.872  15.752  69.674  1.00  0.00    -0.062 A  
HETATM    4  C   UNL     1      -9.988  16.480  70.136  1.00  0.00     0.601 A  
HETATM    5  C   UNL     1     -10.230  17.692  69.467  1.00  0.00     0.085 A  
HETATM    6  C   UNL     1      -8.383  17.337  67.888  1.00  0.00    -0.220 A  
HETATM    7  C   UNL     1      -9.788  19.446  67.684  1.00  0.00    -0.450 C  
HETATM    8  H   UNL     1     -11.404  19.348  69.410  1.00  0.00     0.000 HD 
HETATM    9  C   UNL     1      -9.454  18.136  68.363  1.00  0.00    -0.327 A  
HETATM   10  O   UNL     1     -11.240  18.528  69.862  1.00  0.00     2.288 OA 
ENDROOT
BRANCH   4  11
HETATM   11  C   UNL     1     -10.795  15.910  71.332  1.00  0.00     0.213 C  
HETATM   12  C   UNL     1     -11.635  14.648  71.024  1.00  0.00    -0.277 C  
HETATM   13  C   UNL     1      -9.883  15.489  72.521  1.00  0.00     5.171 C  
HETATM   14  C   UNL     1     -11.736  17.024  71.833  1.00  0.00     0.771 C  
ENDBRANCH   4  11
BRANCH   6  15
HETATM   15  C   UNL     1      -7.624  17.706  66.622  1.00  0.00    -0.273 C  
BRANCH  15  16
HETATM   16  C   UNL     1      -6.619  18.836  66.701  1.00  0.00    -0.191 A  
HETATM   17  N   UNL     1      -6.093  19.157  67.858  1.00  0.00    -0.205 NA 
HETATM   18  C   UNL     1      -5.152  20.268  67.564  1.00  0.00    -0.173 A  
HETATM   19  H   UNL     1      -6.289  18.734  68.765  1.00  0.00     0.000 HD 
HETATM   20  C   UNL     1      -5.136  20.456  66.043  1.00  0.00    -0.166 A  
HETATM   21  N   UNL     1      -6.132  19.503  65.612  1.00  0.00    -0.188 NA 
ENDBRANCH  15  16
ENDBRANCH   6  15
TORSDOF 3
ENDMDL
MODEL      185
REMARK 921   NORMALIZED FREE ENERGY PREDICTED BY IDOCK:   18.68 KCAL/MOL
REMARK 922        TOTAL FREE ENERGY PREDICTED BY IDOCK:   21.63 KCAL/MOL
REMARK 923 INTER-LIGAND FREE ENERGY PREDICTED BY IDOCK:   19.81 KCAL/MOL
REMARK 924 INTRA-LIGAND FREE ENERGY PREDICTED BY IDOCK:    1.83 KCAL/MOL
REMARK 927      BINDING AFFINITY PREDICTED BY RF-SCORE:    0.00 PKD
ROOT
HETATM    1  C   UNL     1      -6.635   8.966  62.600  1.00  0.00    -0.094 C  
HETATM    2  C   UNL     1      -7.722   9.485  63.504  1.00  0.00    -0.123 A  
HETATM    3  C   UNL     1      -7.877  10.882  63.592  1.00  0.00     0.343 A  
HETATM    4  C   UNL     1      -8.783  11.515  64.466  1.00  0.00     0.515 A  
HETATM    5  C   UNL     1      -9.605  10.648  65.208  1.00  0.00    -0.241 A  
HETATM    6  C   UNL     1      -8.522   8.640  64.298  1.00  0.00    -0.101 A  
HETATM    7  C   UNL     1     -10.406   8.366  65.982  1.00  0.00     0.627 C  
HETATM    8  H   UNL     1     -11.131  10.547  66.542  1.00  0.00     0.000 HD 
HETATM    9  C   UNL     1      -9.498   9.233  65.139  1.00  0.00    -0.184 A  
HETATM   10  O   UNL     1     -10.576  11.133  66.041  1.00  0.00    -0.256 OA 
ENDROOT
BRANCH   4  11
HETATM   11  C   UNL     1      -8.819  13.066  64.495  1.00  0.00     2.605 C  
HETATM   12  C   UNL     1      -7.734  13.737  65.371  1.00  0.00     6.542 C  
HETATM   13  C   UNL     1      -8.622  13.694  63.084  1.00  0.00    10.922 C  
HETATM   14  C   UNL     1     -10.207  13.492  65.010  1.00  0.00    -0.345 C  
ENDBRANCH   4  11
BRANCH   6  15
HETATM   15  C   UNL     1      -8.278   7.138  64.307  1.00  0.00     0.036 C  
BRANCH  15  16
HETATM   16  C   UNL     1      -7.848   6.497  65.611  1.00  0.00    -0.100 A  
HETATM   17  N   UNL     1      -8.159   7.068  66.748  1.00  0.00    -0.108 NA 
HETATM   18  C   UNL     1      -7.611   6.172  67.798  1.00  0.00    -0.097 A  
HETATM   19  H   UNL     1      -8.670   7.941  66.883  1.00  0.00     0.000 HD 
HETATM   20  C   UNL     1      -7.038   4.941  67.086  1.00  0.00    -0.066 A  
HETATM   21  N   UNL     1      -7.226   5.283  65.696  1.00  0.00    -0.067 NA 
ENDBRANCH  15  16
ENDBRANCH   6  15
TORSDOF 3
ENDMDL
MODEL      186
REMARK 921   NORMALIZED FREE ENERGY PREDICTED BY IDOCK:   36.69 KCAL/MOL
REMARK 922        TOTAL FREE ENERGY PREDICTED BY IDOCK:   42.80 KCAL/MOL
REMARK 923 INTER-LIGAND FREE ENERGY PREDICTED BY IDOCK:   42.80 KCAL/MOL
REMARK 924 INTRA-LIGAND FREE ENERGY PREDICTED BY IDOCK:    0.01 KCAL/MOL
REMARK 927      BINDING AFFINITY PREDICTED BY RF-SCORE:    0.00 PKD
ROOT
HETATM    1  C   UNL     1      -8.024  19.990  67.621  1.00  0.00    -0.338 C  
HETATM    2  C   UNL     1      -8.451  18.567  67.874  1.00  0.00    -0.292 A  
HETATM    3  C   UNL     1      -8.485  18.131  69.213  1.00  0.00     0.265 A  
HETATM    4  C   UNL     1      -8.771  16.806  69.596  1.00  0.00     0.646 A  
HETATM    5  C   UNL     1      -9.108  15.937  68.544  1.00  0.00    -0.200 A  
HETATM    6  C   UNL     1      -8.741  17.662  66.835  1.00  0.00    -0.262 A  
HETATM    7  C   UNL     1      -9.461  15.337  66.101  1.00  0.00    -0.361 C  
HETATM    8  H   UNL     1      -9.703  14.054  68.074  1.00  0.00     0.000 HD 
HETATM    9  C   UNL     1      -9.104  16.335  67.180  1.00  0.00    -0.217 A  
HETATM   10  O   UNL     1      -9.475  14.641  68.786  1.00  0.00    -0.204 OA 
ENDROOT
BRANCH   4  11
HETATM   11  C   UNL     1      -8.730  16.450  71.107  1.00  0.00     5.524 C  
HETATM   12  C   UNL     1      -8.774  17.659  72.073  1.00  0.00    14.327 C  
HETATM   13  C   UNL     1      -9.930  15.561  71.543  1.00  0.00     2.060 C  
HETATM   14  C   UNL     1      -7.436  15.654  71.364  1.00  0.00     3.588 C  
ENDBRANCH   4  11
BRANCH   6  15
HETATM   15  C   UNL     1      -8.583  18.085  65.382  1.00  0.00     1.431 C  
BRANCH  15  16
HETATM   16  C   UNL     1      -7.249  17.832  64.710  1.00  0.00     3.275 A  
HETATM   17  N   UNL     1      -6.680  16.657  64.820  1.00  0.00     4.488 NA 
HETATM   18  C   UNL     1      -5.424  16.755  64.033  1.00  0.00     6.726 A  
HETATM   19  H   UNL     1      -7.026  15.847  65.336  1.00  0.00     0.000 HD 
HETATM   20  C   UNL     1      -5.420  18.133  63.362  1.00  0.00     1.160 A  
HETATM   21  N   UNL     1      -6.621  18.731  63.894  1.00  0.00     1.179 NA 
ENDBRANCH  15  16
ENDBRANCH   6  15
TORSDOF 3
ENDMDL
