MODEL        1
REMARK 921   NORMALIZED FREE ENERGY PREDICTED BY IDOCK:   -6.40 KCAL/MOL
REMARK 922        TOTAL FREE ENERGY PREDICTED BY IDOCK:   -9.56 KCAL/MOL
REMARK 923 INTER-LIGAND FREE ENERGY PREDICTED BY IDOCK:   -8.65 KCAL/MOL
REMARK 924 INTRA-LIGAND FREE ENERGY PREDICTED BY IDOCK:   -0.90 KCAL/MOL
REMARK 927      BINDING AFFINITY PREDICTED BY RF-SCORE:    0.00 PKD
ROOT
HETATM    1  C   UNL     1      -6.691  20.928  67.574  1.00  0.00    -0.422 C  
HETATM    2  C   UNL     1      -7.315  19.855  68.449  1.00  0.00    -0.283 C  
ENDROOT
BRANCH   2   3
HETATM    3  N   UNL     1      -8.503  19.097  67.795  1.00  0.00    -0.294 N  
HETATM    4  C   UNL     1      -9.708  19.141  68.753  1.00  0.00    -0.430 C  
BRANCH   3   5
HETATM    5  C   UNL     1      -8.931  19.704  66.445  1.00  0.00    -0.378 C  
HETATM    6  C   UNL     1     -10.438  19.828  66.280  1.00  0.00    -0.614 C  
ENDBRANCH   3   5
BRANCH   3   7
HETATM    7  C   UNL     1      -8.038  17.633  67.646  1.00  0.00    -0.216 C  
BRANCH   7   8
HETATM    8  C   UNL     1      -7.841  17.132  66.212  1.00  0.00    -0.316 C  
BRANCH   8   9
HETATM    9  O   UNL     1      -8.327  15.782  66.212  1.00  0.00    -0.281 OA 
BRANCH   9  10
HETATM   10  C   UNL     1      -9.651  15.618  65.901  1.00  0.00    -0.350 C  
HETATM   11  O   UNL     1     -10.299  16.422  65.248  1.00  0.00    -0.581 OA 
HETATM   12  C   UNL     1     -10.205  14.348  66.624  1.00  0.00    -0.277 C  
HETATM   13  C   UNL     1     -10.287  13.214  65.598  1.00  0.00    -0.291 A  
HETATM   14  O   UNL     1      -9.292  13.950  67.657  1.00  0.00    -0.193 OA 
HETATM   15  C   UNL     1     -11.587  14.710  67.277  1.00  0.00    -0.404 C  
HETATM   16  H   UNL     1      -9.629  13.178  68.097  1.00  0.00     0.000 HD 
HETATM   17  C   UNL     1      -9.582  12.008  65.784  1.00  0.00    -0.227 A  
HETATM   18  C   UNL     1     -12.280  13.532  67.991  1.00  0.00    -0.158 C  
HETATM   19  C   UNL     1      -9.630  10.990  64.831  1.00  0.00    -0.289 A  
HETATM   20  C   UNL     1     -11.666  13.174  69.341  1.00  0.00    -0.386 C  
HETATM   21  C   UNL     1     -11.589  14.376  70.277  1.00  0.00    -0.311 C  
HETATM   22  C   UNL     1     -10.381  11.155  63.675  1.00  0.00    -0.449 A  
HETATM   23  C   UNL     1     -11.089  12.336  63.470  1.00  0.00    -0.533 A  
HETATM   24  C   UNL     1     -10.959  15.603  69.634  1.00  0.00    -0.288 C  
HETATM   25  C   UNL     1     -11.540  15.912  68.256  1.00  0.00    -0.274 C  
HETATM   26  C   UNL     1     -11.046  13.355  64.423  1.00  0.00    -0.408 A  
ENDBRANCH   9  10
ENDBRANCH   8   9
ENDBRANCH   7   8
ENDBRANCH   3   7
ENDBRANCH   2   3
TORSDOF 6
ENDMDL
MODEL        2
REMARK 921   NORMALIZED FREE ENERGY PREDICTED BY IDOCK:   -5.94 KCAL/MOL
REMARK 922        TOTAL FREE ENERGY PREDICTED BY IDOCK:   -8.93 KCAL/MOL
REMARK 923 INTER-LIGAND FREE ENERGY PREDICTED BY IDOCK:   -8.16 KCAL/MOL
REMARK 924 INTRA-LIGAND FREE ENERGY PREDICTED BY IDOCK:   -0.77 KCAL/MOL
REMARK 927      BINDING AFFINITY PREDICTED BY RF-SCORE:    0.00 PKD
ROOT
HETATM    1  C   UNL     1      -7.548  17.844  66.334  1.00  0.00    -0.308 C  
HETATM    2  C   UNL     1      -9.030  17.622  66.585  1.00  0.00    -0.265 C  
ENDROOT
BRANCH   2   3
HETATM    3  N   UNL     1      -9.628  18.482  67.732  1.00  0.00    -0.284 N  
HETATM    4  C   UNL     1      -8.489  19.268  68.408  1.00  0.00    -0.351 C  
BRANCH   3   5
HETATM    5  C   UNL     1     -10.688  19.485  67.239  1.00  0.00    -0.484 C  
HETATM    6  C   UNL     1     -10.754  19.610  65.724  1.00  0.00    -0.493 C  
ENDBRANCH   3   5
BRANCH   3   7
HETATM    7  C   UNL     1     -10.213  17.479  68.749  1.00  0.00    -0.373 C  
BRANCH   7   8
HETATM    8  C   UNL     1      -9.278  16.352  69.197  1.00  0.00    -0.216 C  
BRANCH   8   9
HETATM    9  O   UNL     1     -10.057  15.151  69.097  1.00  0.00    -0.226 OA 
BRANCH   9  10
HETATM   10  C   UNL     1      -9.490  14.122  68.391  1.00  0.00    -0.214 C  
HETATM   11  O   UNL     1      -8.286  14.001  68.217  1.00  0.00    -0.149 OA 
HETATM   12  C   UNL     1     -10.613  13.249  67.745  1.00  0.00    -0.241 C  
HETATM   13  C   UNL     1     -10.777  11.982  68.591  1.00  0.00    -0.266 A  
HETATM   14  O   UNL     1     -11.855  13.968  67.775  1.00  0.00    -0.349 OA 
HETATM   15  C   UNL     1     -10.225  12.964  66.250  1.00  0.00    -0.285 C  
HETATM   16  H   UNL     1     -12.538  13.438  67.383  1.00  0.00     0.000 HD 
HETATM   17  C   UNL     1     -12.008  11.661  69.195  1.00  0.00    -0.378 A  
HETATM   18  C   UNL     1     -11.226  12.067  65.494  1.00  0.00    -0.372 C  
HETATM   19  C   UNL     1     -12.146  10.525  69.994  1.00  0.00    -0.351 A  
HETATM   20  C   UNL     1     -12.516  12.776  65.089  1.00  0.00    -0.565 C  
HETATM   21  C   UNL     1     -12.249  14.046  64.289  1.00  0.00    -0.453 C  
HETATM   22  C   UNL     1     -11.057   9.689  70.205  1.00  0.00    -0.327 A  
HETATM   23  C   UNL     1      -9.830   9.984  69.617  1.00  0.00    -0.261 A  
HETATM   24  C   UNL     1     -11.232  14.971  64.943  1.00  0.00    -0.423 C  
HETATM   25  C   UNL     1      -9.973  14.236  65.399  1.00  0.00    -0.334 C  
HETATM   26  C   UNL     1      -9.691  11.117  68.815  1.00  0.00    -0.194 A  
ENDBRANCH   9  10
ENDBRANCH   8   9
ENDBRANCH   7   8
ENDBRANCH   3   7
ENDBRANCH   2   3
TORSDOF 6
ENDMDL
MODEL        3
REMARK 921   NORMALIZED FREE ENERGY PREDICTED BY IDOCK:   -5.86 KCAL/MOL
REMARK 922        TOTAL FREE ENERGY PREDICTED BY IDOCK:   -8.82 KCAL/MOL
REMARK 923 INTER-LIGAND FREE ENERGY PREDICTED BY IDOCK:   -8.17 KCAL/MOL
REMARK 924 INTRA-LIGAND FREE ENERGY PREDICTED BY IDOCK:   -0.64 KCAL/MOL
REMARK 927      BINDING AFFINITY PREDICTED BY RF-SCORE:    0.00 PKD
ROOT
HETATM    1  C   UNL     1     -10.539   5.836  72.810  1.00  0.00    -0.262 C  
HETATM    2  C   UNL     1     -10.985   7.239  73.185  1.00  0.00    -0.340 C  
ENDROOT
BRANCH   2   3
HETATM    3  N   UNL     1     -11.624   8.048  72.023  1.00  0.00    -0.295 N  
HETATM    4  C   UNL     1     -11.852   7.104  70.828  1.00  0.00    -0.325 C  
BRANCH   3   5
HETATM    5  C   UNL     1     -12.974   8.683  72.407  1.00  0.00    -0.351 C  
HETATM    6  C   UNL     1     -14.165   8.077  71.679  1.00  0.00    -0.549 C  
ENDBRANCH   3   5
BRANCH   3   7
HETATM    7  C   UNL     1     -10.579   9.112  71.626  1.00  0.00    -0.357 C  
BRANCH   7   8
HETATM    8  C   UNL     1     -10.558   9.516  70.149  1.00  0.00    -0.254 C  
BRANCH   8   9
HETATM    9  O   UNL     1     -10.591  10.951  70.148  1.00  0.00    -0.051 OA 
BRANCH   9  10
HETATM   10  C   UNL     1     -11.726  11.527  69.641  1.00  0.00    -0.351 C  
HETATM   11  O   UNL     1     -12.752  10.908  69.401  1.00  0.00    -0.284 OA 
HETATM   12  C   UNL     1     -11.443  13.025  69.296  1.00  0.00    -0.289 C  
HETATM   13  C   UNL     1     -12.041  13.890  70.408  1.00  0.00    -0.421 A  
HETATM   14  O   UNL     1     -10.026  13.250  69.268  1.00  0.00    -0.342 OA 
HETATM   15  C   UNL     1     -12.035  13.328  67.873  1.00  0.00    -0.349 C  
HETATM   16  H   UNL     1      -9.853  14.160  69.058  1.00  0.00     0.000 HD 
HETATM   17  C   UNL     1     -11.237  14.764  71.167  1.00  0.00    -0.099 A  
HETATM   18  C   UNL     1     -11.870  14.792  67.415  1.00  0.00    -0.320 C  
HETATM   19  C   UNL     1     -11.777  15.526  72.203  1.00  0.00    -0.566 A  
HETATM   20  C   UNL     1     -10.455  15.150  66.972  1.00  0.00    -0.282 C  
HETATM   21  C   UNL     1      -9.933  14.207  65.893  1.00  0.00    -0.331 C  
HETATM   22  C   UNL     1     -13.129  15.430  72.504  1.00  0.00    -0.518 A  
HETATM   23  C   UNL     1     -13.945  14.576  71.768  1.00  0.00    -0.556 A  
HETATM   24  C   UNL     1     -10.100  12.735  66.244  1.00  0.00    -0.267 C  
HETATM   25  C   UNL     1     -11.503  12.404  66.746  1.00  0.00    -0.423 C  
HETATM   26  C   UNL     1     -13.408  13.816  70.728  1.00  0.00     0.010 A  
ENDBRANCH   9  10
ENDBRANCH   8   9
ENDBRANCH   7   8
ENDBRANCH   3   7
ENDBRANCH   2   3
TORSDOF 6
ENDMDL
MODEL        4
REMARK 921   NORMALIZED FREE ENERGY PREDICTED BY IDOCK:   -5.78 KCAL/MOL
REMARK 922        TOTAL FREE ENERGY PREDICTED BY IDOCK:   -8.71 KCAL/MOL
REMARK 923 INTER-LIGAND FREE ENERGY PREDICTED BY IDOCK:   -8.16 KCAL/MOL
REMARK 924 INTRA-LIGAND FREE ENERGY PREDICTED BY IDOCK:   -0.55 KCAL/MOL
REMARK 927      BINDING AFFINITY PREDICTED BY RF-SCORE:    0.00 PKD
ROOT
HETATM    1  C   UNL     1     -13.595   8.799  71.902  1.00  0.00    -0.467 C  
HETATM    2  C   UNL     1     -12.745   7.607  71.496  1.00  0.00    -0.345 C  
ENDROOT
BRANCH   2   3
HETATM    3  N   UNL     1     -11.220   7.790  71.731  1.00  0.00    -0.249 N  
HETATM    4  C   UNL     1     -10.900   7.449  73.198  1.00  0.00    -0.386 C  
BRANCH   3   5
HETATM    5  C   UNL     1     -10.362   6.888  70.823  1.00  0.00    -0.203 C  
HETATM    6  C   UNL     1     -11.170   6.103  69.800  1.00  0.00    -0.494 C  
ENDBRANCH   3   5
BRANCH   3   7
HETATM    7  C   UNL     1     -10.933   9.287  71.492  1.00  0.00    -0.375 C  
BRANCH   7   8
HETATM    8  C   UNL     1     -10.618   9.689  70.049  1.00  0.00    -0.260 C  
BRANCH   8   9
HETATM    9  O   UNL     1     -10.628  11.124  70.044  1.00  0.00     0.036 OA 
BRANCH   9  10
HETATM   10  C   UNL     1     -11.750  11.717  69.528  1.00  0.00    -0.343 C  
HETATM   11  O   UNL     1     -12.784  11.114  69.283  1.00  0.00    -0.252 OA 
HETATM   12  C   UNL     1     -11.440  13.209  69.179  1.00  0.00    -0.305 C  
HETATM   13  C   UNL     1     -12.030  14.088  70.285  1.00  0.00    -0.409 A  
HETATM   14  O   UNL     1     -10.019  13.410  69.160  1.00  0.00    -0.416 OA 
HETATM   15  C   UNL     1     -12.018  13.517  67.752  1.00  0.00    -0.369 C  
HETATM   16  H   UNL     1      -9.831  14.317  68.948  1.00  0.00     0.000 HD 
HETATM   17  C   UNL     1     -11.217  14.952  71.045  1.00  0.00    -0.198 A  
HETATM   18  C   UNL     1     -11.827  14.976  67.290  1.00  0.00    -0.163 C  
HETATM   19  C   UNL     1     -11.751  15.726  72.076  1.00  0.00    -0.572 A  
HETATM   20  C   UNL     1     -10.403  15.310  66.854  1.00  0.00    -0.278 C  
HETATM   21  C   UNL     1      -9.889  14.354  65.782  1.00  0.00    -0.330 C  
HETATM   22  C   UNL     1     -13.107  15.653  72.368  1.00  0.00    -0.544 A  
HETATM   23  C   UNL     1     -13.932  14.810  71.630  1.00  0.00    -0.559 A  
HETATM   24  C   UNL     1     -10.083  12.887  66.137  1.00  0.00    -0.281 C  
HETATM   25  C   UNL     1     -11.495  12.580  66.631  1.00  0.00    -0.417 C  
HETATM   26  C   UNL     1     -13.401  14.037  70.596  1.00  0.00     0.024 A  
ENDBRANCH   9  10
ENDBRANCH   8   9
ENDBRANCH   7   8
ENDBRANCH   3   7
ENDBRANCH   2   3
TORSDOF 6
ENDMDL
MODEL        5
REMARK 921   NORMALIZED FREE ENERGY PREDICTED BY IDOCK:   -5.73 KCAL/MOL
REMARK 922        TOTAL FREE ENERGY PREDICTED BY IDOCK:   -8.64 KCAL/MOL
REMARK 923 INTER-LIGAND FREE ENERGY PREDICTED BY IDOCK:   -7.59 KCAL/MOL
REMARK 924 INTRA-LIGAND FREE ENERGY PREDICTED BY IDOCK:   -1.05 KCAL/MOL
REMARK 927      BINDING AFFINITY PREDICTED BY RF-SCORE:    0.00 PKD
ROOT
HETATM    1  C   UNL     1     -11.295  12.262  68.191  1.00  0.00    -0.349 C  
HETATM    2  C   UNL     1     -11.593  12.234  66.702  1.00  0.00    -0.375 C  
ENDROOT
BRANCH   2   3
HETATM    3  N   UNL     1     -10.337  12.280  65.790  1.00  0.00    -0.252 N  
HETATM    4  C   UNL     1      -9.099  12.554  66.663  1.00  0.00    -0.203 C  
BRANCH   3   5
HETATM    5  C   UNL     1     -10.108  10.966  65.018  1.00  0.00    -0.300 C  
HETATM    6  C   UNL     1     -10.223  11.114  63.508  1.00  0.00    -0.446 C  
ENDBRANCH   3   5
BRANCH   3   7
HETATM    7  C   UNL     1     -10.551  13.477  64.838  1.00  0.00    -0.397 C  
BRANCH   7   8
HETATM    8  C   UNL     1     -11.474  14.586  65.350  1.00  0.00    -0.348 C  
BRANCH   8   9
HETATM    9  O   UNL     1     -10.607  15.680  65.680  1.00  0.00    -0.334 OA 
BRANCH   9  10
HETATM   10  C   UNL     1     -10.520  16.001  67.008  1.00  0.00    -0.307 C  
HETATM   11  O   UNL     1     -11.375  15.715  67.833  1.00  0.00    -0.344 OA 
HETATM   12  C   UNL     1      -9.259  16.894  67.250  1.00  0.00    -0.226 C  
HETATM   13  C   UNL     1      -8.161  16.013  67.852  1.00  0.00    -0.154 A  
HETATM   14  O   UNL     1      -8.785  17.401  65.994  1.00  0.00    -0.499 OA 
HETATM   15  C   UNL     1      -9.673  18.102  68.165  1.00  0.00    -0.331 C  
HETATM   16  H   UNL     1      -8.019  17.944  66.140  1.00  0.00     0.000 HD 
HETATM   17  C   UNL     1      -6.916  15.856  67.212  1.00  0.00    -0.241 A  
HETATM   18  C   UNL     1      -8.512  19.050  68.528  1.00  0.00    -0.387 C  
HETATM   19  C   UNL     1      -5.930  15.025  67.744  1.00  0.00    -0.138 A  
HETATM   20  C   UNL     1      -8.084  19.974  67.393  1.00  0.00    -0.358 C  
HETATM   21  C   UNL     1      -9.252  20.777  66.831  1.00  0.00    -0.240 C  
HETATM   22  C   UNL     1      -6.167  14.335  68.926  1.00  0.00    -0.089 A  
HETATM   23  C   UNL     1      -7.388  14.475  69.579  1.00  0.00    -0.063 A  
HETATM   24  C   UNL     1     -10.464  19.922  66.488  1.00  0.00    -0.589 C  
HETATM   25  C   UNL     1     -10.842  18.957  67.610  1.00  0.00    -0.407 C  
HETATM   26  C   UNL     1      -8.375  15.308  69.050  1.00  0.00    -0.215 A  
ENDBRANCH   9  10
ENDBRANCH   8   9
ENDBRANCH   7   8
ENDBRANCH   3   7
ENDBRANCH   2   3
TORSDOF 6
ENDMDL
MODEL        6
REMARK 921   NORMALIZED FREE ENERGY PREDICTED BY IDOCK:   -5.72 KCAL/MOL
REMARK 922        TOTAL FREE ENERGY PREDICTED BY IDOCK:   -8.63 KCAL/MOL
REMARK 923 INTER-LIGAND FREE ENERGY PREDICTED BY IDOCK:   -8.09 KCAL/MOL
REMARK 924 INTRA-LIGAND FREE ENERGY PREDICTED BY IDOCK:   -0.55 KCAL/MOL
REMARK 927      BINDING AFFINITY PREDICTED BY RF-SCORE:    0.00 PKD
ROOT
HETATM    1  C   UNL     1     -13.354   9.777  72.095  1.00  0.00    -0.527 C  
HETATM    2  C   UNL     1     -12.370   8.620  72.043  1.00  0.00    -0.371 C  
ENDROOT
BRANCH   2   3
HETATM    3  N   UNL     1     -11.111   8.881  71.172  1.00  0.00    -0.263 N  
HETATM    4  C   UNL     1      -9.859   8.750  72.058  1.00  0.00    -0.306 C  
BRANCH   3   5
HETATM    5  C   UNL     1     -10.981   7.893  69.996  1.00  0.00    -0.207 C  
HETATM    6  C   UNL     1     -11.592   6.527  70.274  1.00  0.00    -0.473 C  
ENDBRANCH   3   5
BRANCH   3   7
HETATM    7  C   UNL     1     -11.229  10.341  70.686  1.00  0.00    -0.325 C  
BRANCH   7   8
HETATM    8  C   UNL     1     -10.641  10.639  69.304  1.00  0.00    -0.233 C  
BRANCH   8   9
HETATM    9  O   UNL     1     -10.326  12.039  69.320  1.00  0.00     0.001 OA 
BRANCH   9  10
HETATM   10  C   UNL     1     -11.283  12.878  68.812  1.00  0.00    -0.279 C  
HETATM   11  O   UNL     1     -12.215  12.502  68.118  1.00  0.00    -0.270 OA 
HETATM   12  C   UNL     1     -10.906  14.360  69.136  1.00  0.00    -0.257 C  
HETATM   13  C   UNL     1     -11.767  14.823  70.315  1.00  0.00    -0.351 A  
HETATM   14  O   UNL     1      -9.529  14.426  69.536  1.00  0.00    -0.389 OA 
HETATM   15  C   UNL     1     -11.101  15.219  67.836  1.00  0.00    -0.321 C  
HETATM   16  H   UNL     1      -9.299  15.327  69.733  1.00  0.00     0.000 HD 
HETATM   17  C   UNL     1     -11.182  15.272  71.515  1.00  0.00    -0.369 A  
HETATM   18  C   UNL     1     -10.809  16.722  68.018  1.00  0.00    -0.341 C  
HETATM   19  C   UNL     1     -11.968  15.660  72.601  1.00  0.00    -0.578 A  
HETATM   20  C   UNL     1      -9.324  17.063  68.096  1.00  0.00    -0.254 C  
HETATM   21  C   UNL     1      -8.545  16.524  66.900  1.00  0.00    -0.237 C  
HETATM   22  C   UNL     1     -13.353  15.607  72.509  1.00  0.00    -0.604 A  
HETATM   23  C   UNL     1     -13.955  15.170  71.333  1.00  0.00    -0.595 A  
HETATM   24  C   UNL     1      -8.811  15.052  66.619  1.00  0.00    -0.307 C  
HETATM   25  C   UNL     1     -10.301  14.714  66.607  1.00  0.00    -0.273 C  
HETATM   26  C   UNL     1     -13.171  14.785  70.244  1.00  0.00     0.040 A  
ENDBRANCH   9  10
ENDBRANCH   8   9
ENDBRANCH   7   8
ENDBRANCH   3   7
ENDBRANCH   2   3
TORSDOF 6
ENDMDL
MODEL        7
REMARK 921   NORMALIZED FREE ENERGY PREDICTED BY IDOCK:   -5.72 KCAL/MOL
REMARK 922        TOTAL FREE ENERGY PREDICTED BY IDOCK:   -8.63 KCAL/MOL
REMARK 923 INTER-LIGAND FREE ENERGY PREDICTED BY IDOCK:   -7.94 KCAL/MOL
REMARK 924 INTRA-LIGAND FREE ENERGY PREDICTED BY IDOCK:   -0.69 KCAL/MOL
REMARK 927      BINDING AFFINITY PREDICTED BY RF-SCORE:    0.00 PKD
ROOT
HETATM    1  C   UNL     1      -8.851  12.538  66.600  1.00  0.00    -0.142 C  
HETATM    2  C   UNL     1      -9.904  11.903  65.708  1.00  0.00    -0.238 C  
ENDROOT
BRANCH   2   3
HETATM    3  N   UNL     1     -10.798  12.915  64.940  1.00  0.00    -0.295 N  
HETATM    4  C   UNL     1     -10.059  14.263  64.854  1.00  0.00    -0.232 C  
BRANCH   3   5
HETATM    5  C   UNL     1     -11.134  12.451  63.509  1.00  0.00    -0.458 C  
HETATM    6  C   UNL     1     -12.530  11.862  63.369  1.00  0.00    -0.582 C  
ENDBRANCH   3   5
BRANCH   3   7
HETATM    7  C   UNL     1     -12.066  13.094  65.800  1.00  0.00    -0.447 C  
BRANCH   7   8
HETATM    8  C   UNL     1     -12.168  14.407  66.583  1.00  0.00    -0.311 C  
BRANCH   8   9
HETATM    9  O   UNL     1     -12.649  14.037  67.883  1.00  0.00     0.065 OA 
BRANCH   9  10
HETATM   10  C   UNL     1     -11.692  13.795  68.833  1.00  0.00    -0.336 C  
HETATM   11  O   UNL     1     -11.092  12.736  68.938  1.00  0.00    -0.252 OA 
HETATM   12  C   UNL     1     -11.613  15.008  69.817  1.00  0.00    -0.304 C  
HETATM   13  C   UNL     1     -10.388  15.845  69.441  1.00  0.00    -0.265 A  
HETATM   14  O   UNL     1     -12.780  15.829  69.658  1.00  0.00    -0.515 OA 
HETATM   15  C   UNL     1     -11.575  14.456  71.287  1.00  0.00    -0.061 C  
HETATM   16  H   UNL     1     -12.732  16.566  70.255  1.00  0.00     0.000 HD 
HETATM   17  C   UNL     1     -10.512  17.200  69.076  1.00  0.00    -0.321 A  
HETATM   18  C   UNL     1     -11.449  15.545  72.371  1.00  0.00    -0.469 C  
HETATM   19  C   UNL     1      -9.398  17.952  68.701  1.00  0.00    -0.282 A  
HETATM   20  C   UNL     1     -12.738  16.319  72.629  1.00  0.00    -0.324 C  
HETATM   21  C   UNL     1     -13.909  15.397  72.953  1.00  0.00    -0.493 C  
HETATM   22  C   UNL     1      -8.139  17.366  68.681  1.00  0.00    -0.264 A  
HETATM   23  C   UNL     1      -7.990  16.030  69.040  1.00  0.00    -0.224 A  
HETATM   24  C   UNL     1     -14.078  14.261  71.955  1.00  0.00    -0.586 C  
HETATM   25  C   UNL     1     -12.767  13.536  71.658  1.00  0.00    -0.380 C  
HETATM   26  C   UNL     1      -9.102  15.277  69.420  1.00  0.00    -0.228 A  
ENDBRANCH   9  10
ENDBRANCH   8   9
ENDBRANCH   7   8
ENDBRANCH   3   7
ENDBRANCH   2   3
TORSDOF 6
ENDMDL
MODEL        8
REMARK 921   NORMALIZED FREE ENERGY PREDICTED BY IDOCK:   -5.68 KCAL/MOL
REMARK 922        TOTAL FREE ENERGY PREDICTED BY IDOCK:   -8.58 KCAL/MOL
REMARK 923 INTER-LIGAND FREE ENERGY PREDICTED BY IDOCK:   -7.98 KCAL/MOL
REMARK 924 INTRA-LIGAND FREE ENERGY PREDICTED BY IDOCK:   -0.60 KCAL/MOL
REMARK 927      BINDING AFFINITY PREDICTED BY RF-SCORE:    0.00 PKD
ROOT
HETATM    1  C   UNL     1     -13.562   8.898  72.430  1.00  0.00    -0.500 C  
HETATM    2  C   UNL     1     -12.742   8.101  71.430  1.00  0.00    -0.268 C  
ENDROOT
BRANCH   2   3
HETATM    3  N   UNL     1     -11.455   8.815  70.934  1.00  0.00    -0.280 N  
HETATM    4  C   UNL     1     -10.388   8.742  72.042  1.00  0.00    -0.340 C  
BRANCH   3   5
HETATM    5  C   UNL     1     -10.873   8.181  69.655  1.00  0.00    -0.158 C  
HETATM    6  C   UNL     1     -11.106   6.681  69.555  1.00  0.00    -0.378 C  
ENDBRANCH   3   5
BRANCH   3   7
HETATM    7  C   UNL     1     -11.848  10.291  70.717  1.00  0.00    -0.365 C  
BRANCH   7   8
HETATM    8  C   UNL     1     -12.068  10.722  69.264  1.00  0.00    -0.207 C  
BRANCH   8   9
HETATM    9  O   UNL     1     -11.634  12.089  69.204  1.00  0.00    -0.264 OA 
BRANCH   9  10
HETATM   10  C   UNL     1     -10.557  12.344  68.398  1.00  0.00    -0.236 C  
HETATM   11  O   UNL     1      -9.480  11.777  68.505  1.00  0.00    -0.200 OA 
HETATM   12  C   UNL     1     -10.883  13.546  67.453  1.00  0.00    -0.269 C  
HETATM   13  C   UNL     1     -11.217  12.985  66.068  1.00  0.00    -0.320 A  
HETATM   14  O   UNL     1     -12.040  14.240  67.944  1.00  0.00    -0.509 OA 
HETATM   15  C   UNL     1      -9.658  14.530  67.457  1.00  0.00    -0.210 C  
HETATM   16  H   UNL     1     -12.238  14.971  67.370  1.00  0.00     0.000 HD 
HETATM   17  C   UNL     1     -12.465  13.231  65.462  1.00  0.00    -0.531 A  
HETATM   18  C   UNL     1      -9.819  15.749  66.526  1.00  0.00    -0.286 C  
HETATM   19  C   UNL     1     -12.781  12.689  64.215  1.00  0.00    -0.394 A  
HETATM   20  C   UNL     1     -10.763  16.821  67.062  1.00  0.00    -0.161 C  
HETATM   21  C   UNL     1     -10.373  17.285  68.462  1.00  0.00    -0.371 C  
HETATM   22  C   UNL     1     -11.858  11.893  63.550  1.00  0.00    -0.560 A  
HETATM   23  C   UNL     1     -10.617  11.638  64.126  1.00  0.00    -0.411 A  
HETATM   24  C   UNL     1     -10.147  16.139  69.438  1.00  0.00    -0.256 C  
HETATM   25  C   UNL     1      -9.252  15.043  68.863  1.00  0.00    -0.206 C  
HETATM   26  C   UNL     1     -10.298  12.181  65.372  1.00  0.00    -0.301 A  
ENDBRANCH   9  10
ENDBRANCH   8   9
ENDBRANCH   7   8
ENDBRANCH   3   7
ENDBRANCH   2   3
TORSDOF 6
ENDMDL
MODEL        9
REMARK 921   NORMALIZED FREE ENERGY PREDICTED BY IDOCK:   -5.62 KCAL/MOL
REMARK 922        TOTAL FREE ENERGY PREDICTED BY IDOCK:   -8.49 KCAL/MOL
REMARK 923 INTER-LIGAND FREE ENERGY PREDICTED BY IDOCK:   -7.93 KCAL/MOL
REMARK 924 INTRA-LIGAND FREE ENERGY PREDICTED BY IDOCK:   -0.56 KCAL/MOL
REMARK 927      BINDING AFFINITY PREDICTED BY RF-SCORE:    0.00 PKD
ROOT
HETATM    1  C   UNL     1     -11.122   5.979  69.824  1.00  0.00    -0.476 C  
HETATM    2  C   UNL     1     -10.172   6.756  70.720  1.00  0.00    -0.195 C  
ENDROOT
BRANCH   2   3
HETATM    3  N   UNL     1     -10.857   7.822  71.618  1.00  0.00    -0.226 N  
HETATM    4  C   UNL     1     -12.356   7.875  71.271  1.00  0.00    -0.281 C  
BRANCH   3   5
HETATM    5  C   UNL     1     -10.715   7.519  73.122  1.00  0.00    -0.398 C  
HETATM    6  C   UNL     1      -9.272   7.476  73.604  1.00  0.00    -0.320 C  
ENDBRANCH   3   5
BRANCH   3   7
HETATM    7  C   UNL     1     -10.209   9.171  71.238  1.00  0.00    -0.329 C  
BRANCH   7   8
HETATM    8  C   UNL     1     -10.369   9.606  69.779  1.00  0.00    -0.241 C  
BRANCH   8   9
HETATM    9  O   UNL     1     -10.457  11.038  69.818  1.00  0.00    -0.115 OA 
BRANCH   9  10
HETATM   10  C   UNL     1     -11.629  11.582  69.363  1.00  0.00    -0.321 C  
HETATM   11  O   UNL     1     -12.657  10.942  69.204  1.00  0.00    -0.361 OA 
HETATM   12  C   UNL     1     -11.391  13.072  68.955  1.00  0.00    -0.287 C  
HETATM   13  C   UNL     1     -11.934  13.965  70.074  1.00  0.00    -0.404 A  
HETATM   14  O   UNL     1      -9.981  13.316  68.835  1.00  0.00    -0.420 OA 
HETATM   15  C   UNL     1     -12.071  13.322  67.562  1.00  0.00    -0.312 C  
HETATM   16  H   UNL     1      -9.836  14.221  68.587  1.00  0.00     0.000 HD 
HETATM   17  C   UNL     1     -11.100  14.873  70.755  1.00  0.00    -0.157 A  
HETATM   18  C   UNL     1     -11.957  14.772  67.050  1.00  0.00    -0.225 C  
HETATM   19  C   UNL     1     -11.589  15.660  71.799  1.00  0.00    -0.531 A  
HETATM   20  C   UNL     1     -10.577  15.136  66.511  1.00  0.00    -0.304 C  
HETATM   21  C   UNL     1     -10.105  14.167  65.433  1.00  0.00    -0.359 C  
HETATM   22  C   UNL     1     -12.920  15.555  72.183  1.00  0.00    -0.506 A  
HETATM   23  C   UNL     1     -13.764  14.667  71.524  1.00  0.00    -0.495 A  
HETATM   24  C   UNL     1     -10.228  12.705  65.838  1.00  0.00    -0.290 C  
HETATM   25  C   UNL     1     -11.594  12.370  66.434  1.00  0.00    -0.442 C  
HETATM   26  C   UNL     1     -13.279  13.881  70.477  1.00  0.00     0.066 A  
ENDBRANCH   9  10
ENDBRANCH   8   9
ENDBRANCH   7   8
ENDBRANCH   3   7
ENDBRANCH   2   3
TORSDOF 6
ENDMDL
MODEL       10
REMARK 921   NORMALIZED FREE ENERGY PREDICTED BY IDOCK:   -5.59 KCAL/MOL
REMARK 922        TOTAL FREE ENERGY PREDICTED BY IDOCK:   -8.46 KCAL/MOL
REMARK 923 INTER-LIGAND FREE ENERGY PREDICTED BY IDOCK:   -7.72 KCAL/MOL
REMARK 924 INTRA-LIGAND FREE ENERGY PREDICTED BY IDOCK:   -0.74 KCAL/MOL
REMARK 927      BINDING AFFINITY PREDICTED BY RF-SCORE:    0.00 PKD
ROOT
HETATM    1  C   UNL     1      -8.302   9.247  70.363  1.00  0.00    -0.224 C  
HETATM    2  C   UNL     1      -9.566   9.091  71.191  1.00  0.00    -0.286 C  
ENDROOT
BRANCH   2   3
HETATM    3  N   UNL     1     -10.879   9.030  70.363  1.00  0.00    -0.237 N  
HETATM    4  C   UNL     1     -10.525   8.751  68.891  1.00  0.00    -0.197 C  
BRANCH   3   5
HETATM    5  C   UNL     1     -11.843   7.931  70.850  1.00  0.00    -0.229 C  
HETATM    6  C   UNL     1     -11.485   6.539  70.352  1.00  0.00    -0.465 C  
ENDBRANCH   3   5
BRANCH   3   7
HETATM    7  C   UNL     1     -11.508  10.436  70.467  1.00  0.00    -0.345 C  
BRANCH   7   8
HETATM    8  C   UNL     1     -11.932  11.082  69.145  1.00  0.00    -0.324 C  
BRANCH   8   9
HETATM    9  O   UNL     1     -11.379  12.406  69.176  1.00  0.00    -0.249 OA 
BRANCH   9  10
HETATM   10  C   UNL     1     -10.324  12.638  68.333  1.00  0.00    -0.235 C  
HETATM   11  O   UNL     1      -9.233  12.100  68.446  1.00  0.00    -0.192 OA 
HETATM   12  C   UNL     1     -10.696  13.779  67.331  1.00  0.00    -0.275 C  
HETATM   13  C   UNL     1     -11.048  13.137  65.987  1.00  0.00    -0.299 A  
HETATM   14  O   UNL     1     -11.856  14.476  67.810  1.00  0.00    -0.379 OA 
HETATM   15  C   UNL     1      -9.493  14.786  67.255  1.00  0.00    -0.217 C  
HETATM   16  H   UNL     1     -12.083  15.170  67.202  1.00  0.00     0.000 HD 
HETATM   17  C   UNL     1     -12.313  13.323  65.396  1.00  0.00    -0.528 A  
HETATM   18  C   UNL     1      -9.700  15.949  66.263  1.00  0.00    -0.332 C  
HETATM   19  C   UNL     1     -12.644  12.708  64.188  1.00  0.00    -0.442 A  
HETATM   20  C   UNL     1     -10.654  17.030  66.760  1.00  0.00    -0.191 C  
HETATM   21  C   UNL     1     -10.244  17.578  68.124  1.00  0.00    -0.359 C  
HETATM   22  C   UNL     1     -11.719  11.895  63.547  1.00  0.00    -0.550 A  
HETATM   23  C   UNL     1     -10.461  11.697  64.109  1.00  0.00    -0.402 A  
HETATM   24  C   UNL     1      -9.973  16.492  69.155  1.00  0.00    -0.275 C  
HETATM   25  C   UNL     1      -9.067  15.384  68.621  1.00  0.00    -0.195 C  
HETATM   26  C   UNL     1     -10.126  12.314  65.315  1.00  0.00    -0.295 A  
ENDBRANCH   9  10
ENDBRANCH   8   9
ENDBRANCH   7   8
ENDBRANCH   3   7
ENDBRANCH   2   3
TORSDOF 6
ENDMDL
MODEL       11
REMARK 921   NORMALIZED FREE ENERGY PREDICTED BY IDOCK:   -5.57 KCAL/MOL
REMARK 922        TOTAL FREE ENERGY PREDICTED BY IDOCK:   -8.43 KCAL/MOL
REMARK 923 INTER-LIGAND FREE ENERGY PREDICTED BY IDOCK:   -7.24 KCAL/MOL
REMARK 924 INTRA-LIGAND FREE ENERGY PREDICTED BY IDOCK:   -1.19 KCAL/MOL
REMARK 927      BINDING AFFINITY PREDICTED BY RF-SCORE:    0.00 PKD
ROOT
HETATM    1  C   UNL     1     -10.157  19.024  67.272  1.00  0.00    -0.436 C  
HETATM    2  C   UNL     1      -9.252  17.976  66.648  1.00  0.00    -0.284 C  
ENDROOT
BRANCH   2   3
HETATM    3  N   UNL     1      -9.664  16.507  66.941  1.00  0.00    -0.243 N  
HETATM    4  C   UNL     1     -10.992  16.511  67.720  1.00  0.00    -0.252 C  
BRANCH   3   5
HETATM    5  C   UNL     1      -9.852  15.671  65.661  1.00  0.00    -0.333 C  
HETATM    6  C   UNL     1     -11.123  16.005  64.893  1.00  0.00    -0.381 C  
ENDBRANCH   3   5
BRANCH   3   7
HETATM    7  C   UNL     1      -8.555  15.931  67.847  1.00  0.00    -0.163 C  
BRANCH   7   8
HETATM    8  C   UNL     1      -9.013  14.948  68.928  1.00  0.00    -0.184 C  
BRANCH   8   9
HETATM    9  O   UNL     1      -8.984  13.656  68.303  1.00  0.00    -0.185 OA 
BRANCH   9  10
HETATM   10  C   UNL     1     -10.172  12.976  68.268  1.00  0.00    -0.246 C  
HETATM   11  O   UNL     1     -11.148  13.280  68.939  1.00  0.00    -0.250 OA 
HETATM   12  C   UNL     1     -10.022  11.704  67.372  1.00  0.00    -0.183 C  
HETATM   13  C   UNL     1     -10.668  11.999  66.015  1.00  0.00    -0.317 A  
HETATM   14  O   UNL     1      -8.629  11.435  67.154  1.00  0.00    -0.142 OA 
HETATM   15  C   UNL     1     -10.665  10.485  68.125  1.00  0.00    -0.273 C  
HETATM   16  H   UNL     1      -8.537  10.662  66.609  1.00  0.00     0.000 HD 
HETATM   17  C   UNL     1      -9.925  11.927  64.821  1.00  0.00    -0.262 A  
HETATM   18  C   UNL     1     -10.631   9.161  67.336  1.00  0.00    -0.315 C  
HETATM   19  C   UNL     1     -10.506  12.230  63.589  1.00  0.00    -0.483 A  
HETATM   20  C   UNL     1      -9.260   8.493  67.296  1.00  0.00    -0.168 C  
HETATM   21  C   UNL     1      -8.682   8.280  68.691  1.00  0.00    -0.133 C  
HETATM   22  C   UNL     1     -11.840  12.613  63.526  1.00  0.00    -0.619 A  
HETATM   23  C   UNL     1     -12.596  12.689  64.692  1.00  0.00    -0.517 A  
HETATM   24  C   UNL     1      -8.719   9.530  69.558  1.00  0.00    -0.178 C  
HETATM   25  C   UNL     1     -10.080  10.223  69.538  1.00  0.00    -0.260 C  
HETATM   26  C   UNL     1     -12.018  12.382  65.925  1.00  0.00    -0.434 A  
ENDBRANCH   9  10
ENDBRANCH   8   9
ENDBRANCH   7   8
ENDBRANCH   3   7
ENDBRANCH   2   3
TORSDOF 6
ENDMDL
MODEL       12
REMARK 921   NORMALIZED FREE ENERGY PREDICTED BY IDOCK:   -5.53 KCAL/MOL
REMARK 922        TOTAL FREE ENERGY PREDICTED BY IDOCK:   -8.38 KCAL/MOL
REMARK 923 INTER-LIGAND FREE ENERGY PREDICTED BY IDOCK:   -7.46 KCAL/MOL
REMARK 924 INTRA-LIGAND FREE ENERGY PREDICTED BY IDOCK:   -0.92 KCAL/MOL
REMARK 927      BINDING AFFINITY PREDICTED BY RF-SCORE:    0.00 PKD
ROOT
HETATM    1  C   UNL     1     -10.250   8.225  68.506  1.00  0.00    -0.234 C  
HETATM    2  C   UNL     1     -11.002   7.833  69.766  1.00  0.00    -0.158 C  
ENDROOT
BRANCH   2   3
HETATM    3  N   UNL     1     -11.064   8.940  70.854  1.00  0.00    -0.257 N  
HETATM    4  C   UNL     1     -12.465   8.932  71.493  1.00  0.00    -0.324 C  
BRANCH   3   5
HETATM    5  C   UNL     1     -10.019   8.743  71.969  1.00  0.00    -0.321 C  
HETATM    6  C   UNL     1     -10.457   7.771  73.054  1.00  0.00    -0.432 C  
ENDBRANCH   3   5
BRANCH   3   7
HETATM    7  C   UNL     1     -10.864  10.276  70.107  1.00  0.00    -0.302 C  
BRANCH   7   8
HETATM    8  C   UNL     1     -12.108  11.157  69.960  1.00  0.00    -0.359 C  
BRANCH   8   9
HETATM    9  O   UNL     1     -12.201  11.450  68.559  1.00  0.00    -0.557 OA 
BRANCH   9  10
HETATM   10  C   UNL     1     -11.747  12.682  68.169  1.00  0.00    -0.347 C  
HETATM   11  O   UNL     1     -12.136  13.734  68.657  1.00  0.00    -0.359 OA 
HETATM   12  C   UNL     1     -10.798  12.525  66.938  1.00  0.00    -0.248 C  
HETATM   13  C   UNL     1      -9.354  12.648  67.432  1.00  0.00    -0.189 A  
HETATM   14  O   UNL     1     -10.965  11.218  66.369  1.00  0.00    -0.279 OA 
HETATM   15  C   UNL     1     -11.191  13.603  65.865  1.00  0.00    -0.311 C  
HETATM   16  H   UNL     1     -10.388  11.122  65.620  1.00  0.00     0.000 HD 
HETATM   17  C   UNL     1      -8.426  11.604  67.246  1.00  0.00    -0.156 A  
HETATM   18  C   UNL     1     -10.302  13.598  64.604  1.00  0.00    -0.407 C  
HETATM   19  C   UNL     1      -7.120  11.703  67.729  1.00  0.00    -0.092 A  
HETATM   20  C   UNL     1     -10.588  12.446  63.645  1.00  0.00    -0.481 C  
HETATM   21  C   UNL     1     -12.058  12.382  63.243  1.00  0.00    -0.519 C  
HETATM   22  C   UNL     1      -6.716  12.845  68.407  1.00  0.00    -0.092 A  
HETATM   23  C   UNL     1      -7.613  13.892  68.601  1.00  0.00    -0.130 A  
HETATM   24  C   UNL     1     -13.012  12.429  64.429  1.00  0.00    -0.219 C  
HETATM   25  C   UNL     1     -12.674  13.548  65.413  1.00  0.00    -0.495 C  
HETATM   26  C   UNL     1      -8.918  13.796  68.116  1.00  0.00    -0.190 A  
ENDBRANCH   9  10
ENDBRANCH   8   9
ENDBRANCH   7   8
ENDBRANCH   3   7
ENDBRANCH   2   3
TORSDOF 6
ENDMDL
MODEL       13
REMARK 921   NORMALIZED FREE ENERGY PREDICTED BY IDOCK:   -5.50 KCAL/MOL
REMARK 922        TOTAL FREE ENERGY PREDICTED BY IDOCK:   -8.34 KCAL/MOL
REMARK 923 INTER-LIGAND FREE ENERGY PREDICTED BY IDOCK:   -7.60 KCAL/MOL
REMARK 924 INTRA-LIGAND FREE ENERGY PREDICTED BY IDOCK:   -0.73 KCAL/MOL
REMARK 927      BINDING AFFINITY PREDICTED BY RF-SCORE:    0.00 PKD
ROOT
HETATM    1  C   UNL     1     -12.479  15.587  74.112  1.00  0.00    -0.805 C  
HETATM    2  C   UNL     1     -11.937  15.636  72.694  1.00  0.00    -0.473 C  
ENDROOT
BRANCH   2   3
HETATM    3  N   UNL     1     -12.865  14.998  71.624  1.00  0.00    -0.321 N  
HETATM    4  C   UNL     1     -14.327  15.341  71.966  1.00  0.00    -0.589 C  
BRANCH   3   5
HETATM    5  C   UNL     1     -12.568  15.501  70.198  1.00  0.00    -0.267 C  
HETATM    6  C   UNL     1     -11.132  15.961  69.998  1.00  0.00    -0.356 C  
ENDBRANCH   3   5
BRANCH   3   7
HETATM    7  C   UNL     1     -12.668  13.473  71.750  1.00  0.00    -0.244 C  
BRANCH   7   8
HETATM    8  C   UNL     1     -12.910  12.656  70.477  1.00  0.00     0.145 C  
BRANCH   8   9
HETATM    9  O   UNL     1     -11.607  12.419  69.925  1.00  0.00    -0.266 OA 
BRANCH   9  10
HETATM   10  C   UNL     1     -11.568  11.694  68.763  1.00  0.00    -0.313 C  
HETATM   11  O   UNL     1     -12.339  10.781  68.507  1.00  0.00    -0.417 OA 
HETATM   12  C   UNL     1     -10.321  12.119  67.922  1.00  0.00    -0.206 C  
HETATM   13  C   UNL     1     -10.797  13.045  66.800  1.00  0.00    -0.285 A  
HETATM   14  O   UNL     1      -9.413  12.856  68.754  1.00  0.00    -0.407 OA 
HETATM   15  C   UNL     1      -9.602  10.821  67.407  1.00  0.00    -0.179 C  
HETATM   16  H   UNL     1      -8.654  13.114  68.243  1.00  0.00     0.000 HD 
HETATM   17  C   UNL     1     -10.305  14.360  66.679  1.00  0.00    -0.275 A  
HETATM   18  C   UNL     1      -8.371  11.087  66.517  1.00  0.00    -0.163 C  
HETATM   19  C   UNL     1     -10.766  15.214  65.676  1.00  0.00    -0.374 A  
HETATM   20  C   UNL     1      -7.134  11.543  67.286  1.00  0.00    -0.128 C  
HETATM   21  C   UNL     1      -6.764  10.579  68.408  1.00  0.00    -0.060 C  
HETATM   22  C   UNL     1     -11.728  14.773  64.776  1.00  0.00    -0.422 A  
HETATM   23  C   UNL     1     -12.227  13.478  64.874  1.00  0.00    -0.447 A  
HETATM   24  C   UNL     1      -7.937  10.223  69.311  1.00  0.00    -0.149 C  
HETATM   25  C   UNL     1      -9.187   9.830  68.526  1.00  0.00    -0.134 C  
HETATM   26  C   UNL     1     -11.765  12.620  65.873  1.00  0.00    -0.470 A  
ENDBRANCH   9  10
ENDBRANCH   8   9
ENDBRANCH   7   8
ENDBRANCH   3   7
ENDBRANCH   2   3
TORSDOF 6
ENDMDL
MODEL       14
REMARK 921   NORMALIZED FREE ENERGY PREDICTED BY IDOCK:   -5.50 KCAL/MOL
REMARK 922        TOTAL FREE ENERGY PREDICTED BY IDOCK:   -8.33 KCAL/MOL
REMARK 923 INTER-LIGAND FREE ENERGY PREDICTED BY IDOCK:   -7.77 KCAL/MOL
REMARK 924 INTRA-LIGAND FREE ENERGY PREDICTED BY IDOCK:   -0.57 KCAL/MOL
REMARK 927      BINDING AFFINITY PREDICTED BY RF-SCORE:    0.00 PKD
ROOT
HETATM    1  C   UNL     1     -11.343   6.569  69.937  1.00  0.00    -0.469 C  
HETATM    2  C   UNL     1     -11.202   8.082  69.937  1.00  0.00    -0.038 C  
ENDROOT
BRANCH   2   3
HETATM    3  N   UNL     1     -11.695   8.777  71.235  1.00  0.00    -0.286 N  
HETATM    4  C   UNL     1     -13.103   8.254  71.575  1.00  0.00    -0.293 C  
BRANCH   3   5
HETATM    5  C   UNL     1     -10.774   8.515  72.442  1.00  0.00    -0.306 C  
HETATM    6  C   UNL     1      -9.292   8.620  72.115  1.00  0.00    -0.343 C  
ENDBRANCH   3   5
BRANCH   3   7
HETATM    7  C   UNL     1     -11.789  10.281  70.899  1.00  0.00    -0.377 C  
BRANCH   7   8
HETATM    8  C   UNL     1     -11.985  10.627  69.420  1.00  0.00    -0.226 C  
BRANCH   8   9
HETATM    9  O   UNL     1     -11.561  11.992  69.291  1.00  0.00    -0.276 OA 
BRANCH   9  10
HETATM   10  C   UNL     1     -10.493  12.216  68.463  1.00  0.00    -0.233 C  
HETATM   11  O   UNL     1      -9.426  11.627  68.558  1.00  0.00    -0.195 OA 
HETATM   12  C   UNL     1     -10.810  13.414  67.511  1.00  0.00    -0.263 C  
HETATM   13  C   UNL     1     -11.181  12.845  66.138  1.00  0.00    -0.326 A  
HETATM   14  O   UNL     1     -11.943  14.138  68.014  1.00  0.00    -0.391 OA 
HETATM   15  C   UNL     1      -9.565  14.371  67.482  1.00  0.00    -0.215 C  
HETATM   16  H   UNL     1     -12.136  14.866  67.436  1.00  0.00     0.000 HD 
HETATM   17  C   UNL     1     -12.434  13.110  65.551  1.00  0.00    -0.516 A  
HETATM   18  C   UNL     1      -9.717  15.583  66.541  1.00  0.00    -0.290 C  
HETATM   19  C   UNL     1     -12.783  12.563  64.316  1.00  0.00    -0.432 A  
HETATM   20  C   UNL     1     -10.628  16.682  67.081  1.00  0.00    -0.264 C  
HETATM   21  C   UNL     1     -10.204  17.152  68.469  1.00  0.00    -0.346 C  
HETATM   22  C   UNL     1     -11.889  11.739  63.644  1.00  0.00    -0.498 A  
HETATM   23  C   UNL     1     -10.644  11.465  64.202  1.00  0.00    -0.430 A  
HETATM   24  C   UNL     1      -9.985  16.012  69.453  1.00  0.00    -0.262 C  
HETATM   25  C   UNL     1      -9.123  14.891  68.876  1.00  0.00    -0.191 C  
HETATM   26  C   UNL     1     -10.290  12.015  65.435  1.00  0.00    -0.301 A  
ENDBRANCH   9  10
ENDBRANCH   8   9
ENDBRANCH   7   8
ENDBRANCH   3   7
ENDBRANCH   2   3
TORSDOF 6
ENDMDL
MODEL       15
REMARK 921   NORMALIZED FREE ENERGY PREDICTED BY IDOCK:   -5.43 KCAL/MOL
REMARK 922        TOTAL FREE ENERGY PREDICTED BY IDOCK:   -8.24 KCAL/MOL
REMARK 923 INTER-LIGAND FREE ENERGY PREDICTED BY IDOCK:   -7.18 KCAL/MOL
REMARK 924 INTRA-LIGAND FREE ENERGY PREDICTED BY IDOCK:   -1.06 KCAL/MOL
REMARK 927      BINDING AFFINITY PREDICTED BY RF-SCORE:    0.00 PKD
ROOT
HETATM    1  C   UNL     1     -10.368   8.442  67.413  1.00  0.00    -0.355 C  
HETATM    2  C   UNL     1      -9.207   9.388  67.668  1.00  0.00    -0.127 C  
ENDROOT
BRANCH   2   3
HETATM    3  N   UNL     1      -8.136   9.416  66.543  1.00  0.00    -0.111 N  
HETATM    4  C   UNL     1      -6.818   8.845  67.099  1.00  0.00    -0.074 C  
BRANCH   3   5
HETATM    5  C   UNL     1      -8.543   8.591  65.308  1.00  0.00    -0.165 C  
HETATM    6  C   UNL     1      -7.967   9.118  64.002  1.00  0.00    -0.141 C  
ENDBRANCH   3   5
BRANCH   3   7
HETATM    7  C   UNL     1      -7.928  10.906  66.197  1.00  0.00    -0.155 C  
BRANCH   7   8
HETATM    8  C   UNL     1      -7.459  11.804  67.345  1.00  0.00    -0.143 C  
BRANCH   8   9
HETATM    9  O   UNL     1      -8.036  13.091  67.081  1.00  0.00    -0.171 OA 
BRANCH   9  10
HETATM   10  C   UNL     1      -9.296  13.299  67.577  1.00  0.00    -0.218 C  
HETATM   11  O   UNL     1      -9.692  12.840  68.639  1.00  0.00    -0.162 OA 
HETATM   12  C   UNL     1     -10.154  14.068  66.522  1.00  0.00    -0.285 C  
HETATM   13  C   UNL     1     -10.230  15.537  66.949  1.00  0.00    -0.279 A  
HETATM   14  O   UNL     1      -9.504  14.009  65.243  1.00  0.00    -0.519 OA 
HETATM   15  C   UNL     1     -11.556  13.369  66.414  1.00  0.00    -0.381 C  
HETATM   16  H   UNL     1     -10.026  14.477  64.601  1.00  0.00     0.000 HD 
HETATM   17  C   UNL     1      -9.760  16.567  66.112  1.00  0.00    -0.344 A  
HETATM   18  C   UNL     1     -12.534  14.052  65.436  1.00  0.00    -0.520 C  
HETATM   19  C   UNL     1      -9.798  17.902  66.518  1.00  0.00    -0.343 A  
HETATM   20  C   UNL     1     -12.223  13.797  63.965  1.00  0.00    -0.429 C  
HETATM   21  C   UNL     1     -12.126  12.308  63.646  1.00  0.00    -0.648 C  
HETATM   22  C   UNL     1     -10.304  18.233  67.768  1.00  0.00    -0.419 A  
HETATM   23  C   UNL     1     -10.777  17.233  68.613  1.00  0.00    -0.280 A  
HETATM   24  C   UNL     1     -11.215  11.544  64.596  1.00  0.00    -0.276 C  
HETATM   25  C   UNL     1     -11.496  11.859  66.064  1.00  0.00    -0.344 C  
HETATM   26  C   UNL     1     -10.744  15.898  68.207  1.00  0.00    -0.291 A  
ENDBRANCH   9  10
ENDBRANCH   8   9
ENDBRANCH   7   8
ENDBRANCH   3   7
ENDBRANCH   2   3
TORSDOF 6
ENDMDL
MODEL       16
REMARK 921   NORMALIZED FREE ENERGY PREDICTED BY IDOCK:   -5.40 KCAL/MOL
REMARK 922        TOTAL FREE ENERGY PREDICTED BY IDOCK:   -8.19 KCAL/MOL
REMARK 923 INTER-LIGAND FREE ENERGY PREDICTED BY IDOCK:   -7.24 KCAL/MOL
REMARK 924 INTRA-LIGAND FREE ENERGY PREDICTED BY IDOCK:   -0.95 KCAL/MOL
REMARK 927      BINDING AFFINITY PREDICTED BY RF-SCORE:    0.00 PKD
ROOT
HETATM    1  C   UNL     1      -9.721  16.070  65.870  1.00  0.00    -0.378 C  
HETATM    2  C   UNL     1     -10.837  15.433  65.060  1.00  0.00    -0.444 C  
ENDROOT
BRANCH   2   3
HETATM    3  N   UNL     1     -11.143  13.956  65.430  1.00  0.00    -0.302 N  
HETATM    4  C   UNL     1     -12.646  13.821  65.734  1.00  0.00    -0.480 C  
BRANCH   3   5
HETATM    5  C   UNL     1     -10.784  12.969  64.302  1.00  0.00    -0.407 C  
HETATM    6  C   UNL     1     -11.961  12.134  63.821  1.00  0.00    -0.607 C  
ENDBRANCH   3   5
BRANCH   3   7
HETATM    7  C   UNL     1     -10.345  13.670  66.720  1.00  0.00    -0.268 C  
BRANCH   7   8
HETATM    8  C   UNL     1     -11.150  13.673  68.023  1.00  0.00    -0.262 C  
BRANCH   8   9
HETATM    9  O   UNL     1     -10.690  12.529  68.756  1.00  0.00    -0.228 OA 
BRANCH   9  10
HETATM   10  C   UNL     1     -11.035  11.306  68.243  1.00  0.00    -0.224 C  
HETATM   11  O   UNL     1     -12.157  11.029  67.847  1.00  0.00    -0.600 OA 
HETATM   12  C   UNL     1      -9.832  10.319  68.388  1.00  0.00    -0.156 C  
HETATM   13  C   UNL     1      -9.149  10.197  67.023  1.00  0.00    -0.155 A  
HETATM   14  O   UNL     1      -8.880  10.860  69.317  1.00  0.00    -0.351 OA 
HETATM   15  C   UNL     1     -10.371   8.955  68.949  1.00  0.00    -0.229 C  
HETATM   16  H   UNL     1      -8.148  10.260  69.405  1.00  0.00     0.000 HD 
HETATM   17  C   UNL     1      -7.792  10.535  66.852  1.00  0.00    -0.117 A  
HETATM   18  C   UNL     1      -9.295   7.860  69.101  1.00  0.00    -0.154 C  
HETATM   19  C   UNL     1      -7.181  10.457  65.599  1.00  0.00    -0.146 A  
HETATM   20  C   UNL     1      -8.371   8.058  70.299  1.00  0.00    -0.125 C  
HETATM   21  C   UNL     1      -9.144   8.212  71.605  1.00  0.00    -0.214 C  
HETATM   22  C   UNL     1      -7.913  10.041  64.495  1.00  0.00    -0.148 A  
HETATM   23  C   UNL     1      -9.254   9.699  64.639  1.00  0.00    -0.293 A  
HETATM   24  C   UNL     1     -10.262   9.243  71.529  1.00  0.00    -0.338 C  
HETATM   25  C   UNL     1     -11.140   9.071  70.291  1.00  0.00    -0.263 C  
HETATM   26  C   UNL     1      -9.867   9.773  65.891  1.00  0.00    -0.352 A  
ENDBRANCH   9  10
ENDBRANCH   8   9
ENDBRANCH   7   8
ENDBRANCH   3   7
ENDBRANCH   2   3
TORSDOF 6
ENDMDL
MODEL       17
REMARK 921   NORMALIZED FREE ENERGY PREDICTED BY IDOCK:   -5.39 KCAL/MOL
REMARK 922        TOTAL FREE ENERGY PREDICTED BY IDOCK:   -8.19 KCAL/MOL
REMARK 923 INTER-LIGAND FREE ENERGY PREDICTED BY IDOCK:   -7.56 KCAL/MOL
REMARK 924 INTRA-LIGAND FREE ENERGY PREDICTED BY IDOCK:   -0.62 KCAL/MOL
REMARK 927      BINDING AFFINITY PREDICTED BY RF-SCORE:    0.00 PKD
ROOT
HETATM    1  C   UNL     1     -10.327   7.518  73.315  1.00  0.00    -0.412 C  
HETATM    2  C   UNL     1     -10.299   8.487  72.145  1.00  0.00    -0.339 C  
ENDROOT
BRANCH   2   3
HETATM    3  N   UNL     1     -11.592   8.501  71.285  1.00  0.00    -0.274 N  
HETATM    4  C   UNL     1     -11.825   7.089  70.715  1.00  0.00    -0.355 C  
BRANCH   3   5
HETATM    5  C   UNL     1     -12.841   8.914  72.087  1.00  0.00    -0.409 C  
HETATM    6  C   UNL     1     -14.073   8.077  71.777  1.00  0.00    -0.517 C  
ENDBRANCH   3   5
BRANCH   3   7
HETATM    7  C   UNL     1     -11.311   9.470  70.117  1.00  0.00    -0.199 C  
BRANCH   7   8
HETATM    8  C   UNL     1     -12.259  10.666  69.993  1.00  0.00    -0.298 C  
BRANCH   8   9
HETATM    9  O   UNL     1     -12.200  11.055  68.613  1.00  0.00    -0.571 OA 
BRANCH   9  10
HETATM   10  C   UNL     1     -11.562  12.237  68.347  1.00  0.00    -0.326 C  
HETATM   11  O   UNL     1     -11.772  13.274  68.959  1.00  0.00    -0.281 OA 
HETATM   12  C   UNL     1     -10.666  12.075  67.076  1.00  0.00    -0.242 C  
HETATM   13  C   UNL     1      -9.215  11.913  67.535  1.00  0.00    -0.177 A  
HETATM   14  O   UNL     1     -11.047  10.883  66.373  1.00  0.00    -0.158 OA 
HETATM   15  C   UNL     1     -10.899  13.315  66.141  1.00  0.00    -0.290 C  
HETATM   16  H   UNL     1     -10.503  10.783  65.600  1.00  0.00     0.000 HD 
HETATM   17  C   UNL     1      -8.467  10.766  67.206  1.00  0.00    -0.124 A  
HETATM   18  C   UNL     1     -10.040  13.314  64.860  1.00  0.00    -0.247 C  
HETATM   19  C   UNL     1      -7.156  10.605  67.655  1.00  0.00    -0.084 A  
HETATM   20  C   UNL     1     -10.518  12.338  63.789  1.00  0.00    -0.476 C  
HETATM   21  C   UNL     1     -11.985  12.549  63.430  1.00  0.00    -0.602 C  
HETATM   22  C   UNL     1      -6.566  11.586  68.442  1.00  0.00    -0.060 A  
HETATM   23  C   UNL     1      -7.282  12.730  68.778  1.00  0.00    -0.077 A  
HETATM   24  C   UNL     1     -12.902  12.610  64.643  1.00  0.00    -0.361 C  
HETATM   25  C   UNL     1     -12.378  13.543  65.733  1.00  0.00    -0.516 C  
HETATM   26  C   UNL     1      -8.593  12.895  68.327  1.00  0.00    -0.170 A  
ENDBRANCH   9  10
ENDBRANCH   8   9
ENDBRANCH   7   8
ENDBRANCH   3   7
ENDBRANCH   2   3
TORSDOF 6
ENDMDL
MODEL       18
REMARK 921   NORMALIZED FREE ENERGY PREDICTED BY IDOCK:   -5.32 KCAL/MOL
REMARK 922        TOTAL FREE ENERGY PREDICTED BY IDOCK:   -8.09 KCAL/MOL
REMARK 923 INTER-LIGAND FREE ENERGY PREDICTED BY IDOCK:   -7.61 KCAL/MOL
REMARK 924 INTRA-LIGAND FREE ENERGY PREDICTED BY IDOCK:   -0.49 KCAL/MOL
REMARK 927      BINDING AFFINITY PREDICTED BY RF-SCORE:    0.00 PKD
ROOT
HETATM    1  C   UNL     1     -10.633  16.549  69.463  1.00  0.00    -0.321 C  
HETATM    2  C   UNL     1     -11.941  15.781  69.385  1.00  0.00    -0.305 C  
ENDROOT
BRANCH   2   3
HETATM    3  N   UNL     1     -12.338  15.043  70.694  1.00  0.00    -0.321 N  
HETATM    4  C   UNL     1     -11.356  15.448  71.809  1.00  0.00    -0.382 C  
BRANCH   3   5
HETATM    5  C   UNL     1     -13.768  15.377  71.159  1.00  0.00    -0.417 C  
HETATM    6  C   UNL     1     -14.373  14.327  72.080  1.00  0.00    -0.629 C  
ENDBRANCH   3   5
BRANCH   3   7
HETATM    7  C   UNL     1     -12.164  13.539  70.398  1.00  0.00    -0.356 C  
BRANCH   7   8
HETATM    8  C   UNL     1     -12.141  13.142  68.919  1.00  0.00    -0.194 C  
BRANCH   8   9
HETATM    9  O   UNL     1     -11.097  12.164  68.805  1.00  0.00    -0.223 OA 
BRANCH   9  10
HETATM   10  C   UNL     1     -10.070  12.476  67.954  1.00  0.00    -0.214 C  
HETATM   11  O   UNL     1      -9.174  13.260  68.230  1.00  0.00    -0.206 OA 
HETATM   12  C   UNL     1     -10.315  11.799  66.566  1.00  0.00    -0.223 C  
HETATM   13  C   UNL     1      -9.418  10.562  66.476  1.00  0.00    -0.200 A  
HETATM   14  O   UNL     1     -11.682  11.367  66.481  1.00  0.00    -0.388 OA 
HETATM   15  C   UNL     1     -10.045  12.859  65.440  1.00  0.00    -0.265 C  
HETATM   16  H   UNL     1     -11.832  10.955  65.638  1.00  0.00     0.000 HD 
HETATM   17  C   UNL     1      -9.962   9.277  66.280  1.00  0.00    -0.357 A  
HETATM   18  C   UNL     1     -10.204  12.316  64.005  1.00  0.00    -0.399 C  
HETATM   19  C   UNL     1      -9.146   8.146  66.233  1.00  0.00    -0.231 A  
HETATM   20  C   UNL     1     -11.654  12.129  63.567  1.00  0.00    -0.562 C  
HETATM   21  C   UNL     1     -12.476  13.402  63.735  1.00  0.00    -0.318 C  
HETATM   22  C   UNL     1      -7.771   8.276  66.380  1.00  0.00    -0.091 A  
HETATM   23  C   UNL     1      -7.209   9.535  66.571  1.00  0.00    -0.089 A  
HETATM   24  C   UNL     1     -12.340  14.034  65.113  1.00  0.00    -0.468 C  
HETATM   25  C   UNL     1     -10.886  14.157  65.564  1.00  0.00    -0.312 C  
HETATM   26  C   UNL     1      -8.023  10.668  66.615  1.00  0.00    -0.134 A  
ENDBRANCH   9  10
ENDBRANCH   8   9
ENDBRANCH   7   8
ENDBRANCH   3   7
ENDBRANCH   2   3
TORSDOF 6
ENDMDL
MODEL       19
REMARK 921   NORMALIZED FREE ENERGY PREDICTED BY IDOCK:   -5.31 KCAL/MOL
REMARK 922        TOTAL FREE ENERGY PREDICTED BY IDOCK:   -8.08 KCAL/MOL
REMARK 923 INTER-LIGAND FREE ENERGY PREDICTED BY IDOCK:   -7.04 KCAL/MOL
REMARK 924 INTRA-LIGAND FREE ENERGY PREDICTED BY IDOCK:   -1.04 KCAL/MOL
REMARK 927      BINDING AFFINITY PREDICTED BY RF-SCORE:    0.00 PKD
ROOT
HETATM    1  C   UNL     1     -12.778  12.721  64.852  1.00  0.00    -0.479 C  
HETATM    2  C   UNL     1     -12.402  13.846  65.801  1.00  0.00    -0.486 C  
ENDROOT
BRANCH   2   3
HETATM    3  N   UNL     1     -10.947  14.366  65.644  1.00  0.00    -0.304 N  
HETATM    4  C   UNL     1     -10.208  13.476  64.627  1.00  0.00    -0.316 C  
BRANCH   3   5
HETATM    5  C   UNL     1     -10.882  15.825  65.153  1.00  0.00    -0.428 C  
HETATM    6  C   UNL     1     -10.154  16.761  66.106  1.00  0.00    -0.360 C  
ENDBRANCH   3   5
BRANCH   3   7
HETATM    7  C   UNL     1     -10.286  14.195  67.029  1.00  0.00    -0.267 C  
BRANCH   7   8
HETATM    8  C   UNL     1     -11.228  13.846  68.184  1.00  0.00    -0.268 C  
BRANCH   8   9
HETATM    9  O   UNL     1     -10.662  12.677  68.795  1.00  0.00    -0.235 OA 
BRANCH   9  10
HETATM   10  C   UNL     1     -11.064  11.473  68.279  1.00  0.00    -0.239 C  
HETATM   11  O   UNL     1     -12.208  11.236  67.921  1.00  0.00    -0.570 OA 
HETATM   12  C   UNL     1      -9.887  10.447  68.365  1.00  0.00    -0.162 C  
HETATM   13  C   UNL     1      -9.260  10.325  66.973  1.00  0.00    -0.169 A  
HETATM   14  O   UNL     1      -8.885  10.945  69.264  1.00  0.00    -0.351 OA 
HETATM   15  C   UNL     1     -10.448   9.092  68.926  1.00  0.00    -0.231 C  
HETATM   16  H   UNL     1      -8.169  10.322  69.316  1.00  0.00     0.000 HD 
HETATM   17  C   UNL     1      -7.901  10.624  66.755  1.00  0.00    -0.126 A  
HETATM   18  C   UNL     1      -9.402   7.963  69.023  1.00  0.00    -0.151 C  
HETATM   19  C   UNL     1      -7.340  10.546  65.480  1.00  0.00    -0.106 A  
HETATM   20  C   UNL     1      -8.428   8.115  70.188  1.00  0.00    -0.127 C  
HETATM   21  C   UNL     1      -9.146   8.272  71.523  1.00  0.00    -0.229 C  
HETATM   22  C   UNL     1      -8.125  10.169  64.398  1.00  0.00    -0.163 A  
HETATM   23  C   UNL     1      -9.470   9.866  64.588  1.00  0.00    -0.343 A  
HETATM   24  C   UNL     1     -10.233   9.338  71.504  1.00  0.00    -0.338 C  
HETATM   25  C   UNL     1     -11.162   9.211  70.298  1.00  0.00    -0.249 C  
HETATM   26  C   UNL     1     -10.032   9.940  65.863  1.00  0.00    -0.347 A  
ENDBRANCH   9  10
ENDBRANCH   8   9
ENDBRANCH   7   8
ENDBRANCH   3   7
ENDBRANCH   2   3
TORSDOF 6
ENDMDL
MODEL       20
REMARK 921   NORMALIZED FREE ENERGY PREDICTED BY IDOCK:   -5.30 KCAL/MOL
REMARK 922        TOTAL FREE ENERGY PREDICTED BY IDOCK:   -8.06 KCAL/MOL
REMARK 923 INTER-LIGAND FREE ENERGY PREDICTED BY IDOCK:   -7.44 KCAL/MOL
REMARK 924 INTRA-LIGAND FREE ENERGY PREDICTED BY IDOCK:   -0.63 KCAL/MOL
REMARK 927      BINDING AFFINITY PREDICTED BY RF-SCORE:    0.00 PKD
ROOT
HETATM    1  C   UNL     1     -10.234  19.923  66.027  1.00  0.00    -0.591 C  
HETATM    2  C   UNL     1      -8.901  19.447  66.579  1.00  0.00    -0.352 C  
ENDROOT
BRANCH   2   3
HETATM    3  N   UNL     1      -8.990  18.199  67.500  1.00  0.00    -0.255 N  
HETATM    4  C   UNL     1      -7.995  18.369  68.663  1.00  0.00    -0.296 C  
BRANCH   3   5
HETATM    5  C   UNL     1     -10.398  17.990  68.089  1.00  0.00    -0.388 C  
HETATM    6  C   UNL     1     -10.443  16.977  69.224  1.00  0.00    -0.293 C  
ENDBRANCH   3   5
BRANCH   3   7
HETATM    7  C   UNL     1      -8.545  17.003  66.633  1.00  0.00    -0.252 C  
BRANCH   7   8
HETATM    8  C   UNL     1      -9.650  16.301  65.837  1.00  0.00    -0.301 C  
BRANCH   8   9
HETATM    9  O   UNL     1      -9.328  14.904  65.892  1.00  0.00    -0.286 OA 
BRANCH   9  10
HETATM   10  C   UNL     1     -10.334  14.040  65.548  1.00  0.00    -0.339 C  
HETATM   11  O   UNL     1     -11.252  14.333  64.796  1.00  0.00    -0.359 OA 
HETATM   12  C   UNL     1     -10.194  12.718  66.370  1.00  0.00    -0.253 C  
HETATM   13  C   UNL     1      -9.577  11.654  65.458  1.00  0.00    -0.241 A  
HETATM   14  O   UNL     1      -9.299  12.933  67.472  1.00  0.00    -0.178 OA 
HETATM   15  C   UNL     1     -11.608  12.327  66.930  1.00  0.00    -0.427 C  
HETATM   16  H   UNL     1      -9.214  12.130  67.972  1.00  0.00     0.000 HD 
HETATM   17  C   UNL     1      -8.361  11.024  65.787  1.00  0.00    -0.092 A  
HETATM   18  C   UNL     1     -11.633  11.008  67.729  1.00  0.00    -0.277 C  
HETATM   19  C   UNL     1      -7.783  10.080  64.937  1.00  0.00    -0.138 A  
HETATM   20  C   UNL     1     -11.039  11.118  69.130  1.00  0.00    -0.306 C  
HETATM   21  C   UNL     1     -11.688  12.231  69.946  1.00  0.00    -0.346 C  
HETATM   22  C   UNL     1      -8.408   9.747  63.742  1.00  0.00    -0.170 A  
HETATM   23  C   UNL     1      -9.611  10.353  63.396  1.00  0.00    -0.361 A  
HETATM   24  C   UNL     1     -11.748  13.563  69.212  1.00  0.00    -0.382 C  
HETATM   25  C   UNL     1     -12.286  13.428  67.788  1.00  0.00    -0.171 C  
HETATM   26  C   UNL     1     -10.193  11.295  64.246  1.00  0.00    -0.383 A  
ENDBRANCH   9  10
ENDBRANCH   8   9
ENDBRANCH   7   8
ENDBRANCH   3   7
ENDBRANCH   2   3
TORSDOF 6
ENDMDL
MODEL       21
REMARK 921   NORMALIZED FREE ENERGY PREDICTED BY IDOCK:   -5.30 KCAL/MOL
REMARK 922        TOTAL FREE ENERGY PREDICTED BY IDOCK:   -8.06 KCAL/MOL
REMARK 923 INTER-LIGAND FREE ENERGY PREDICTED BY IDOCK:   -7.17 KCAL/MOL
REMARK 924 INTRA-LIGAND FREE ENERGY PREDICTED BY IDOCK:   -0.89 KCAL/MOL
REMARK 927      BINDING AFFINITY PREDICTED BY RF-SCORE:    0.00 PKD
ROOT
HETATM    1  C   UNL     1      -9.883  10.669  63.153  1.00  0.00    -0.351 C  
HETATM    2  C   UNL     1     -10.776  11.781  63.677  1.00  0.00    -0.440 C  
ENDROOT
BRANCH   2   3
HETATM    3  N   UNL     1     -10.484  12.210  65.141  1.00  0.00    -0.272 N  
HETATM    4  C   UNL     1     -11.815  12.270  65.915  1.00  0.00    -0.354 C  
BRANCH   3   5
HETATM    5  C   UNL     1      -9.539  11.238  65.872  1.00  0.00    -0.221 C  
HETATM    6  C   UNL     1      -8.783  11.873  67.030  1.00  0.00    -0.181 C  
ENDBRANCH   3   5
BRANCH   3   7
HETATM    7  C   UNL     1      -9.893  13.632  65.054  1.00  0.00    -0.055 C  
BRANCH   7   8
HETATM    8  C   UNL     1     -10.905  14.781  65.037  1.00  0.00    -0.425 C  
BRANCH   8   9
HETATM    9  O   UNL     1     -10.176  15.936  65.478  1.00  0.00    -0.347 OA 
BRANCH   9  10
HETATM   10  C   UNL     1     -10.194  16.182  66.825  1.00  0.00    -0.281 C  
HETATM   11  O   UNL     1     -11.110  15.850  67.563  1.00  0.00    -0.312 OA 
HETATM   12  C   UNL     1      -8.960  17.059  67.215  1.00  0.00    -0.215 C  
HETATM   13  C   UNL     1      -7.909  16.145  67.850  1.00  0.00    -0.151 A  
HETATM   14  O   UNL     1      -8.392  17.636  66.030  1.00  0.00    -0.497 OA 
HETATM   15  C   UNL     1      -9.449  18.214  68.160  1.00  0.00    -0.301 C  
HETATM   16  H   UNL     1      -7.642  18.170  66.266  1.00  0.00     0.000 HD 
HETATM   17  C   UNL     1      -6.617  16.025  67.302  1.00  0.00    -0.219 A  
HETATM   18  C   UNL     1      -8.324  19.139  68.666  1.00  0.00    -0.403 C  
HETATM   19  C   UNL     1      -5.672  15.165  67.862  1.00  0.00    -0.149 A  
HETATM   20  C   UNL     1      -7.812  20.127  67.621  1.00  0.00    -0.335 C  
HETATM   21  C   UNL     1      -8.937  20.960  67.016  1.00  0.00    -0.120 C  
HETATM   22  C   UNL     1      -5.998  14.409  68.981  1.00  0.00    -0.089 A  
HETATM   23  C   UNL     1      -7.266  14.513  69.543  1.00  0.00    -0.095 A  
HETATM   24  C   UNL     1     -10.115  20.126  66.532  1.00  0.00    -0.577 C  
HETATM   25  C   UNL     1     -10.575  19.099  67.564  1.00  0.00    -0.567 C  
HETATM   26  C   UNL     1      -8.213  15.375  68.986  1.00  0.00    -0.217 A  
ENDBRANCH   9  10
ENDBRANCH   8   9
ENDBRANCH   7   8
ENDBRANCH   3   7
ENDBRANCH   2   3
TORSDOF 6
ENDMDL
MODEL       22
REMARK 921   NORMALIZED FREE ENERGY PREDICTED BY IDOCK:   -5.30 KCAL/MOL
REMARK 922        TOTAL FREE ENERGY PREDICTED BY IDOCK:   -8.06 KCAL/MOL
REMARK 923 INTER-LIGAND FREE ENERGY PREDICTED BY IDOCK:   -7.62 KCAL/MOL
REMARK 924 INTRA-LIGAND FREE ENERGY PREDICTED BY IDOCK:   -0.44 KCAL/MOL
REMARK 927      BINDING AFFINITY PREDICTED BY RF-SCORE:    0.00 PKD
ROOT
HETATM    1  C   UNL     1      -6.799  20.651  67.671  1.00  0.00    -0.379 C  
HETATM    2  C   UNL     1      -7.193  19.217  67.983  1.00  0.00    -0.256 C  
ENDROOT
BRANCH   2   3
HETATM    3  N   UNL     1      -8.537  18.762  67.352  1.00  0.00    -0.271 N  
HETATM    4  C   UNL     1      -9.608  18.700  68.456  1.00  0.00    -0.361 C  
BRANCH   3   5
HETATM    5  C   UNL     1      -9.031  19.714  66.246  1.00  0.00    -0.375 C  
HETATM    6  C   UNL     1     -10.543  19.724  66.077  1.00  0.00    -0.573 C  
ENDBRANCH   3   5
BRANCH   3   7
HETATM    7  C   UNL     1      -8.290  17.336  66.816  1.00  0.00    -0.245 C  
BRANCH   7   8
HETATM    8  C   UNL     1      -9.303  16.271  67.246  1.00  0.00    -0.224 C  
BRANCH   8   9
HETATM    9  O   UNL     1      -9.115  15.179  66.335  1.00  0.00    -0.276 OA 
BRANCH   9  10
HETATM   10  C   UNL     1     -10.251  14.528  65.931  1.00  0.00    -0.322 C  
HETATM   11  O   UNL     1     -11.110  15.038  65.227  1.00  0.00    -0.349 OA 
HETATM   12  C   UNL     1     -10.328  13.129  66.623  1.00  0.00    -0.265 C  
HETATM   13  C   UNL     1      -9.899  12.070  65.604  1.00  0.00    -0.265 A  
HETATM   14  O   UNL     1      -9.406  13.089  67.723  1.00  0.00    -0.185 OA 
HETATM   15  C   UNL     1     -11.785  12.924  67.172  1.00  0.00    -0.437 C  
HETATM   16  H   UNL     1      -9.452  12.238  68.144  1.00  0.00     0.000 HD 
HETATM   17  C   UNL     1      -8.802  11.221  65.849  1.00  0.00    -0.174 A  
HETATM   18  C   UNL     1     -12.024  11.557  67.845  1.00  0.00    -0.145 C  
HETATM   19  C   UNL     1      -8.392  10.280  64.904  1.00  0.00    -0.173 A  
HETATM   20  C   UNL     1     -11.415  11.434  69.238  1.00  0.00    -0.370 C  
HETATM   21  C   UNL     1     -11.867  12.555  70.167  1.00  0.00    -0.336 C  
HETATM   22  C   UNL     1      -9.067  10.170  63.695  1.00  0.00    -0.289 A  
HETATM   23  C   UNL     1     -10.156  10.995  63.430  1.00  0.00    -0.424 A  
HETATM   24  C   UNL     1     -11.710  13.943  69.561  1.00  0.00    -0.369 C  
HETATM   25  C   UNL     1     -12.268  14.034  68.142  1.00  0.00    -0.191 C  
HETATM   26  C   UNL     1     -10.571  11.935  64.376  1.00  0.00    -0.366 A  
ENDBRANCH   9  10
ENDBRANCH   8   9
ENDBRANCH   7   8
ENDBRANCH   3   7
ENDBRANCH   2   3
TORSDOF 6
ENDMDL
MODEL       23
REMARK 921   NORMALIZED FREE ENERGY PREDICTED BY IDOCK:   -5.26 KCAL/MOL
REMARK 922        TOTAL FREE ENERGY PREDICTED BY IDOCK:   -8.01 KCAL/MOL
REMARK 923 INTER-LIGAND FREE ENERGY PREDICTED BY IDOCK:   -7.05 KCAL/MOL
REMARK 924 INTRA-LIGAND FREE ENERGY PREDICTED BY IDOCK:   -0.97 KCAL/MOL
REMARK 927      BINDING AFFINITY PREDICTED BY RF-SCORE:    0.00 PKD
ROOT
HETATM    1  C   UNL     1      -6.367  19.546  69.825  1.00  0.00    -0.345 C  
HETATM    2  C   UNL     1      -7.331  19.307  68.676  1.00  0.00    -0.338 C  
ENDROOT
BRANCH   2   3
HETATM    3  N   UNL     1      -6.718  19.511  67.263  1.00  0.00    -0.196 N  
HETATM    4  C   UNL     1      -6.612  21.021  66.981  1.00  0.00    -0.343 C  
BRANCH   3   5
HETATM    5  C   UNL     1      -5.315  18.889  67.124  1.00  0.00    -0.142 C  
HETATM    6  C   UNL     1      -5.328  17.454  66.620  1.00  0.00    -0.221 C  
ENDBRANCH   3   5
BRANCH   3   7
HETATM    7  C   UNL     1      -7.724  18.888  66.273  1.00  0.00    -0.276 C  
BRANCH   7   8
HETATM    8  C   UNL     1      -9.156  18.718  66.787  1.00  0.00    -0.312 C  
BRANCH   8   9
HETATM    9  O   UNL     1      -9.648  17.528  66.154  1.00  0.00    -0.416 OA 
BRANCH   9  10
HETATM   10  C   UNL     1     -10.369  16.676  66.948  1.00  0.00    -0.299 C  
HETATM   11  O   UNL     1     -11.284  17.037  67.675  1.00  0.00    -0.138 OA 
HETATM   12  C   UNL     1      -9.746  15.245  66.883  1.00  0.00    -0.233 C  
HETATM   13  C   UNL     1     -10.612  14.391  65.953  1.00  0.00    -0.312 A  
HETATM   14  O   UNL     1      -8.429  15.323  66.318  1.00  0.00    -0.410 OA 
HETATM   15  C   UNL     1      -9.641  14.679  68.344  1.00  0.00    -0.217 C  
HETATM   16  H   UNL     1      -8.049  14.453  66.277  1.00  0.00     0.000 HD 
HETATM   17  C   UNL     1     -10.073  13.789  64.799  1.00  0.00    -0.259 A  
HETATM   18  C   UNL     1      -9.082  13.245  68.432  1.00  0.00    -0.137 C  
HETATM   19  C   UNL     1     -10.873  13.040  63.934  1.00  0.00    -0.347 A  
HETATM   20  C   UNL     1      -7.574  13.150  68.220  1.00  0.00    -0.139 C  
HETATM   21  C   UNL     1      -6.800  14.066  69.161  1.00  0.00    -0.112 C  
HETATM   22  C   UNL     1     -12.225  12.879  64.205  1.00  0.00    -0.487 A  
HETATM   23  C   UNL     1     -12.781  13.461  65.340  1.00  0.00    -0.484 A  
HETATM   24  C   UNL     1      -7.318  15.498  69.173  1.00  0.00    -0.177 C  
HETATM   25  C   UNL     1      -8.836  15.575  69.323  1.00  0.00    -0.256 C  
HETATM   26  C   UNL     1     -11.983  14.207  66.208  1.00  0.00    -0.448 A  
ENDBRANCH   9  10
ENDBRANCH   8   9
ENDBRANCH   7   8
ENDBRANCH   3   7
ENDBRANCH   2   3
TORSDOF 6
ENDMDL
MODEL       24
REMARK 921   NORMALIZED FREE ENERGY PREDICTED BY IDOCK:   -5.20 KCAL/MOL
REMARK 922        TOTAL FREE ENERGY PREDICTED BY IDOCK:   -7.93 KCAL/MOL
REMARK 923 INTER-LIGAND FREE ENERGY PREDICTED BY IDOCK:   -7.10 KCAL/MOL
REMARK 924 INTRA-LIGAND FREE ENERGY PREDICTED BY IDOCK:   -0.83 KCAL/MOL
REMARK 927      BINDING AFFINITY PREDICTED BY RF-SCORE:    0.00 PKD
ROOT
HETATM    1  C   UNL     1     -14.277   7.865  71.602  1.00  0.00    -0.564 C  
HETATM    2  C   UNL     1     -13.044   8.600  72.098  1.00  0.00    -0.383 C  
ENDROOT
BRANCH   2   3
HETATM    3  N   UNL     1     -11.694   7.979  71.643  1.00  0.00    -0.272 N  
HETATM    4  C   UNL     1     -10.735   7.938  72.847  1.00  0.00    -0.375 C  
BRANCH   3   5
HETATM    5  C   UNL     1     -11.848   6.548  71.093  1.00  0.00    -0.325 C  
HETATM    6  C   UNL     1     -11.291   6.368  69.689  1.00  0.00    -0.479 C  
ENDBRANCH   3   5
BRANCH   3   7
HETATM    7  C   UNL     1     -11.123   8.945  70.583  1.00  0.00    -0.262 C  
BRANCH   7   8
HETATM    8  C   UNL     1     -11.673  10.374  70.609  1.00  0.00    -0.351 C  
BRANCH   8   9
HETATM    9  O   UNL     1     -10.786  11.137  69.778  1.00  0.00    -0.204 OA 
BRANCH   9  10
HETATM   10  C   UNL     1     -11.121  11.215  68.452  1.00  0.00    -0.247 C  
HETATM   11  O   UNL     1     -12.265  11.116  68.034  1.00  0.00    -0.584 OA 
HETATM   12  C   UNL     1      -9.821  11.298  67.587  1.00  0.00    -0.175 C  
HETATM   13  C   UNL     1      -9.625  12.755  67.162  1.00  0.00    -0.219 A  
HETATM   14  O   UNL     1      -8.692  10.910  68.385  1.00  0.00    -0.133 OA 
HETATM   15  C   UNL     1      -9.961  10.301  66.382  1.00  0.00    -0.287 C  
HETATM   16  H   UNL     1      -7.902  10.960  67.860  1.00  0.00     0.000 HD 
HETATM   17  C   UNL     1      -8.460  13.468  67.507  1.00  0.00    -0.192 A  
HETATM   18  C   UNL     1      -8.763  10.308  65.410  1.00  0.00    -0.183 C  
HETATM   19  C   UNL     1      -8.299  14.807  67.148  1.00  0.00    -0.240 A  
HETATM   20  C   UNL     1      -7.525   9.591  65.941  1.00  0.00    -0.100 C  
HETATM   21  C   UNL     1      -7.830   8.162  66.379  1.00  0.00    -0.093 C  
HETATM   22  C   UNL     1      -9.298  15.460  66.438  1.00  0.00    -0.331 A  
HETATM   23  C   UNL     1     -10.457  14.777  66.082  1.00  0.00    -0.311 A  
HETATM   24  C   UNL     1      -9.032   8.057  67.307  1.00  0.00    -0.148 C  
HETATM   25  C   UNL     1     -10.244   8.832  66.793  1.00  0.00    -0.354 C  
HETATM   26  C   UNL     1     -10.619  13.437  66.437  1.00  0.00    -0.285 A  
ENDBRANCH   9  10
ENDBRANCH   8   9
ENDBRANCH   7   8
ENDBRANCH   3   7
ENDBRANCH   2   3
TORSDOF 6
ENDMDL
MODEL       25
REMARK 921   NORMALIZED FREE ENERGY PREDICTED BY IDOCK:   -5.20 KCAL/MOL
REMARK 922        TOTAL FREE ENERGY PREDICTED BY IDOCK:   -7.93 KCAL/MOL
REMARK 923 INTER-LIGAND FREE ENERGY PREDICTED BY IDOCK:   -7.19 KCAL/MOL
REMARK 924 INTRA-LIGAND FREE ENERGY PREDICTED BY IDOCK:   -0.73 KCAL/MOL
REMARK 927      BINDING AFFINITY PREDICTED BY RF-SCORE:    0.00 PKD
ROOT
HETATM    1  C   UNL     1     -10.588  15.257  66.023  1.00  0.00    -0.327 C  
HETATM    2  C   UNL     1     -10.184  13.857  65.594  1.00  0.00    -0.328 C  
ENDROOT
BRANCH   2   3
HETATM    3  N   UNL     1     -11.361  12.960  65.122  1.00  0.00    -0.291 N  
HETATM    4  C   UNL     1     -12.680  13.730  65.314  1.00  0.00    -0.439 C  
BRANCH   3   5
HETATM    5  C   UNL     1     -11.246  12.551  63.640  1.00  0.00    -0.483 C  
HETATM    6  C   UNL     1     -10.182  11.497  63.376  1.00  0.00    -0.462 C  
ENDBRANCH   3   5
BRANCH   3   7
HETATM    7  C   UNL     1     -11.358  11.733  66.059  1.00  0.00    -0.273 C  
BRANCH   7   8
HETATM    8  C   UNL     1     -11.782  11.992  67.507  1.00  0.00    -0.280 C  
BRANCH   8   9
HETATM    9  O   UNL     1     -11.687  10.720  68.164  1.00  0.00    -0.501 OA 
BRANCH   9  10
HETATM   10  C   UNL     1     -10.495  10.449  68.782  1.00  0.00    -0.199 C  
HETATM   11  O   UNL     1      -9.730  11.311  69.188  1.00  0.00    -0.112 OA 
HETATM   12  C   UNL     1     -10.222   8.910  68.742  1.00  0.00    -0.206 C  
HETATM   13  C   UNL     1     -10.554   8.333  70.121  1.00  0.00    -0.233 A  
HETATM   14  O   UNL     1     -11.093   8.296  67.780  1.00  0.00    -0.481 OA 
HETATM   15  C   UNL     1      -8.732   8.679  68.302  1.00  0.00    -0.142 C  
HETATM   16  H   UNL     1     -10.928   7.361  67.755  1.00  0.00     0.000 HD 
HETATM   17  C   UNL     1     -11.529   7.328  70.277  1.00  0.00    -0.242 A  
HETATM   18  C   UNL     1      -8.304   7.199  68.263  1.00  0.00    -0.124 C  
HETATM   19  C   UNL     1     -11.854   6.828  71.539  1.00  0.00    -0.378 A  
HETATM   20  C   UNL     1      -8.844   6.425  67.063  1.00  0.00    -0.115 C  
HETATM   21  C   UNL     1      -8.499   7.100  65.740  1.00  0.00    -0.151 C  
HETATM   22  C   UNL     1     -11.213   7.322  72.668  1.00  0.00    -0.355 A  
HETATM   23  C   UNL     1     -10.245   8.312  72.539  1.00  0.00    -0.386 A  
HETATM   24  C   UNL     1      -8.847   8.582  65.708  1.00  0.00    -0.229 C  
HETATM   25  C   UNL     1      -8.355   9.330  66.945  1.00  0.00    -0.123 C  
HETATM   26  C   UNL     1      -9.915   8.812  71.278  1.00  0.00    -0.333 A  
ENDBRANCH   9  10
ENDBRANCH   8   9
ENDBRANCH   7   8
ENDBRANCH   3   7
ENDBRANCH   2   3
TORSDOF 6
ENDMDL
MODEL       26
REMARK 921   NORMALIZED FREE ENERGY PREDICTED BY IDOCK:   -5.18 KCAL/MOL
REMARK 922        TOTAL FREE ENERGY PREDICTED BY IDOCK:   -7.90 KCAL/MOL
REMARK 923 INTER-LIGAND FREE ENERGY PREDICTED BY IDOCK:   -6.73 KCAL/MOL
REMARK 924 INTRA-LIGAND FREE ENERGY PREDICTED BY IDOCK:   -1.17 KCAL/MOL
REMARK 927      BINDING AFFINITY PREDICTED BY RF-SCORE:    0.00 PKD
ROOT
HETATM    1  C   UNL     1     -11.082   6.546  69.448  1.00  0.00    -0.407 C  
HETATM    2  C   UNL     1     -11.792   7.098  70.672  1.00  0.00    -0.291 C  
ENDROOT
BRANCH   2   3
HETATM    3  N   UNL     1     -11.307   8.503  71.124  1.00  0.00    -0.262 N  
HETATM    4  C   UNL     1     -12.292   9.056  72.170  1.00  0.00    -0.372 C  
BRANCH   3   5
HETATM    5  C   UNL     1      -9.898   8.477  71.748  1.00  0.00    -0.269 C  
HETATM    6  C   UNL     1      -8.832   9.128  70.879  1.00  0.00    -0.292 C  
ENDBRANCH   3   5
BRANCH   3   7
HETATM    7  C   UNL     1     -11.363   9.394  69.865  1.00  0.00    -0.093 C  
BRANCH   7   8
HETATM    8  C   UNL     1     -12.122  10.715  70.010  1.00  0.00    -0.316 C  
BRANCH   8   9
HETATM    9  O   UNL     1     -12.253  11.226  68.675  1.00  0.00    -0.562 OA 
BRANCH   9  10
HETATM   10  C   UNL     1     -11.291  12.114  68.273  1.00  0.00    -0.289 C  
HETATM   11  O   UNL     1     -11.058  13.168  68.846  1.00  0.00    -0.255 OA 
HETATM   12  C   UNL     1     -10.672  11.638  66.918  1.00  0.00    -0.257 C  
HETATM   13  C   UNL     1      -9.316  10.994  67.216  1.00  0.00    -0.167 A  
HETATM   14  O   UNL     1     -11.521  10.640  66.331  1.00  0.00     0.042 OA 
HETATM   15  C   UNL     1     -10.587  12.870  65.949  1.00  0.00    -0.287 C  
HETATM   16  H   UNL     1     -11.145  10.350  65.507  1.00  0.00     0.000 HD 
HETATM   17  C   UNL     1      -9.050   9.655  66.868  1.00  0.00    -0.160 A  
HETATM   18  C   UNL     1      -9.949  12.559  64.580  1.00  0.00    -0.195 C  
HETATM   19  C   UNL     1      -7.825   9.059  67.171  1.00  0.00    -0.099 A  
HETATM   20  C   UNL     1     -10.862  11.792  63.627  1.00  0.00    -0.508 C  
HETATM   21  C   UNL     1     -12.203  12.490  63.427  1.00  0.00    -0.613 C  
HETATM   22  C   UNL     1      -6.843   9.788  67.829  1.00  0.00    -0.081 A  
HETATM   23  C   UNL     1      -7.080  11.113  68.181  1.00  0.00    -0.071 A  
HETATM   24  C   UNL     1     -12.884  12.878  64.733  1.00  0.00    -0.359 C  
HETATM   25  C   UNL     1     -11.940  13.588  65.702  1.00  0.00    -0.429 C  
HETATM   26  C   UNL     1      -8.303  11.713  67.875  1.00  0.00    -0.143 A  
ENDBRANCH   9  10
ENDBRANCH   8   9
ENDBRANCH   7   8
ENDBRANCH   3   7
ENDBRANCH   2   3
TORSDOF 6
ENDMDL
MODEL       27
REMARK 921   NORMALIZED FREE ENERGY PREDICTED BY IDOCK:   -5.13 KCAL/MOL
REMARK 922        TOTAL FREE ENERGY PREDICTED BY IDOCK:   -7.83 KCAL/MOL
REMARK 923 INTER-LIGAND FREE ENERGY PREDICTED BY IDOCK:   -7.37 KCAL/MOL
REMARK 924 INTRA-LIGAND FREE ENERGY PREDICTED BY IDOCK:   -0.46 KCAL/MOL
REMARK 927      BINDING AFFINITY PREDICTED BY RF-SCORE:    0.00 PKD
ROOT
HETATM    1  C   UNL     1      -9.924   7.437  67.162  1.00  0.00    -0.281 C  
HETATM    2  C   UNL     1      -8.722   8.362  67.249  1.00  0.00    -0.127 C  
ENDROOT
BRANCH   2   3
HETATM    3  N   UNL     1      -8.963   9.790  66.686  1.00  0.00    -0.141 N  
HETATM    4  C   UNL     1      -7.608  10.396  66.276  1.00  0.00    -0.127 C  
BRANCH   3   5
HETATM    5  C   UNL     1      -9.894   9.800  65.458  1.00  0.00    -0.308 C  
HETATM    6  C   UNL     1      -9.157   9.903  64.132  1.00  0.00    -0.294 C  
ENDBRANCH   3   5
BRANCH   3   7
HETATM    7  C   UNL     1      -9.544  10.612  67.856  1.00  0.00    -0.162 C  
BRANCH   7   8
HETATM    8  C   UNL     1      -9.660  12.121  67.625  1.00  0.00    -0.190 C  
BRANCH   8   9
HETATM    9  O   UNL     1     -10.415  12.619  68.739  1.00  0.00    -0.216 OA 
BRANCH   9  10
HETATM   10  C   UNL     1     -11.318  13.611  68.461  1.00  0.00    -0.290 C  
HETATM   11  O   UNL     1     -12.276  13.467  67.716  1.00  0.00    -0.291 OA 
HETATM   12  C   UNL     1     -10.843  14.949  69.114  1.00  0.00    -0.250 C  
HETATM   13  C   UNL     1     -11.666  15.175  70.385  1.00  0.00    -0.333 A  
HETATM   14  O   UNL     1      -9.463  14.834  69.491  1.00  0.00    -0.409 OA 
HETATM   15  C   UNL     1     -10.988  16.099  68.055  1.00  0.00    -0.338 C  
HETATM   16  H   UNL     1      -9.174  15.647  69.888  1.00  0.00     0.000 HD 
HETATM   17  C   UNL     1     -11.048  15.293  71.645  1.00  0.00    -0.251 A  
HETATM   18  C   UNL     1     -10.598  17.497  68.577  1.00  0.00    -0.312 C  
HETATM   19  C   UNL     1     -11.802  15.464  72.807  1.00  0.00    -0.563 A  
HETATM   20  C   UNL     1      -9.093  17.717  68.703  1.00  0.00    -0.262 C  
HETATM   21  C   UNL     1      -8.357  17.426  67.400  1.00  0.00    -0.215 C  
HETATM   22  C   UNL     1     -13.188  15.521  72.733  1.00  0.00    -0.605 A  
HETATM   23  C   UNL     1     -13.822  15.410  71.499  1.00  0.00    -0.599 A  
HETATM   24  C   UNL     1      -8.720  16.081  66.787  1.00  0.00    -0.287 C  
HETATM   25  C   UNL     1     -10.228  15.848  66.726  1.00  0.00    -0.283 C  
HETATM   26  C   UNL     1     -13.070  15.242  70.336  1.00  0.00    -0.240 A  
ENDBRANCH   9  10
ENDBRANCH   8   9
ENDBRANCH   7   8
ENDBRANCH   3   7
ENDBRANCH   2   3
TORSDOF 6
ENDMDL
MODEL       28
REMARK 921   NORMALIZED FREE ENERGY PREDICTED BY IDOCK:   -5.13 KCAL/MOL
REMARK 922        TOTAL FREE ENERGY PREDICTED BY IDOCK:   -7.83 KCAL/MOL
REMARK 923 INTER-LIGAND FREE ENERGY PREDICTED BY IDOCK:   -7.27 KCAL/MOL
REMARK 924 INTRA-LIGAND FREE ENERGY PREDICTED BY IDOCK:   -0.56 KCAL/MOL
REMARK 927      BINDING AFFINITY PREDICTED BY RF-SCORE:    0.00 PKD
ROOT
HETATM    1  C   UNL     1     -10.491   5.417  69.864  1.00  0.00    -0.378 C  
HETATM    2  C   UNL     1     -11.503   6.548  69.918  1.00  0.00    -0.403 C  
ENDROOT
BRANCH   2   3
HETATM    3  N   UNL     1     -11.013   7.820  70.663  1.00  0.00    -0.246 N  
HETATM    4  C   UNL     1     -12.239   8.620  71.140  1.00  0.00    -0.238 C  
BRANCH   3   5
HETATM    5  C   UNL     1     -10.135   7.497  71.887  1.00  0.00    -0.172 C  
HETATM    6  C   UNL     1     -10.903   7.469  73.201  1.00  0.00    -0.448 C  
ENDBRANCH   3   5
BRANCH   3   7
HETATM    7  C   UNL     1     -10.250   8.656  69.613  1.00  0.00    -0.208 C  
BRANCH   7   8
HETATM    8  C   UNL     1     -10.080  10.144  69.932  1.00  0.00    -0.222 C  
BRANCH   8   9
HETATM    9  O   UNL     1     -10.139  10.813  68.664  1.00  0.00    -0.168 OA 
BRANCH   9  10
HETATM   10  C   UNL     1     -11.289  11.510  68.403  1.00  0.00    -0.279 C  
HETATM   11  O   UNL     1     -12.409  11.090  68.656  1.00  0.00    -0.539 OA 
HETATM   12  C   UNL     1     -10.943  12.816  67.617  1.00  0.00    -0.244 C  
HETATM   13  C   UNL     1     -10.989  13.989  68.600  1.00  0.00    -0.281 A  
HETATM   14  O   UNL     1      -9.609  12.721  67.097  1.00  0.00    -0.208 OA 
HETATM   15  C   UNL     1     -11.948  12.957  66.418  1.00  0.00    -0.462 C  
HETATM   16  H   UNL     1      -9.398  13.515  66.619  1.00  0.00     0.000 HD 
HETATM   17  C   UNL     1      -9.859  14.800  68.824  1.00  0.00    -0.227 A  
HETATM   18  C   UNL     1     -11.756  14.234  65.575  1.00  0.00    -0.353 C  
HETATM   19  C   UNL     1      -9.893  15.846  69.746  1.00  0.00    -0.173 A  
HETATM   20  C   UNL     1     -10.551  14.187  64.640  1.00  0.00    -0.391 C  
HETATM   21  C   UNL     1     -10.573  12.963  63.731  1.00  0.00    -0.284 C  
HETATM   22  C   UNL     1     -11.054  16.103  70.464  1.00  0.00    -0.338 A  
HETATM   23  C   UNL     1     -12.185  15.318  70.258  1.00  0.00    -0.403 A  
HETATM   24  C   UNL     1     -10.806  11.658  64.479  1.00  0.00    -0.383 C  
HETATM   25  C   UNL     1     -11.977  11.740  65.457  1.00  0.00     0.135 C  
HETATM   26  C   UNL     1     -12.155  14.272  69.333  1.00  0.00    -0.361 A  
ENDBRANCH   9  10
ENDBRANCH   8   9
ENDBRANCH   7   8
ENDBRANCH   3   7
ENDBRANCH   2   3
TORSDOF 6
ENDMDL
MODEL       29
REMARK 921   NORMALIZED FREE ENERGY PREDICTED BY IDOCK:   -5.13 KCAL/MOL
REMARK 922        TOTAL FREE ENERGY PREDICTED BY IDOCK:   -7.83 KCAL/MOL
REMARK 923 INTER-LIGAND FREE ENERGY PREDICTED BY IDOCK:   -6.92 KCAL/MOL
REMARK 924 INTRA-LIGAND FREE ENERGY PREDICTED BY IDOCK:   -0.91 KCAL/MOL
REMARK 927      BINDING AFFINITY PREDICTED BY RF-SCORE:    0.00 PKD
ROOT
HETATM    1  C   UNL     1     -10.948   6.247  67.690  1.00  0.00    -0.438 C  
HETATM    2  C   UNL     1     -10.326   7.204  68.693  1.00  0.00    -0.187 C  
ENDROOT
BRANCH   2   3
HETATM    3  N   UNL     1      -9.418   8.298  68.066  1.00  0.00    -0.139 N  
HETATM    4  C   UNL     1      -8.015   8.199  68.693  1.00  0.00    -0.115 C  
BRANCH   3   5
HETATM    5  C   UNL     1      -9.280   8.158  66.538  1.00  0.00    -0.188 C  
HETATM    6  C   UNL     1      -9.877   9.322  65.760  1.00  0.00    -0.302 C  
ENDBRANCH   3   5
BRANCH   3   7
HETATM    7  C   UNL     1     -10.049   9.649  68.466  1.00  0.00    -0.175 C  
BRANCH   7   8
HETATM    8  C   UNL     1      -9.077  10.727  68.952  1.00  0.00    -0.164 C  
BRANCH   8   9
HETATM    9  O   UNL     1      -9.643  11.972  68.518  1.00  0.00    -0.198 OA 
BRANCH   9  10
HETATM   10  C   UNL     1      -9.094  12.524  67.390  1.00  0.00    -0.185 C  
HETATM   11  O   UNL     1      -8.003  12.206  66.942  1.00  0.00    -0.157 OA 
HETATM   12  C   UNL     1     -10.001  13.691  66.883  1.00  0.00    -0.260 C  
HETATM   13  C   UNL     1     -10.815  13.178  65.692  1.00  0.00    -0.294 A  
HETATM   14  O   UNL     1     -10.919  14.068  67.921  1.00  0.00    -0.240 OA 
HETATM   15  C   UNL     1      -9.086  14.921  66.540  1.00  0.00    -0.309 C  
HETATM   16  H   UNL     1     -11.471  14.778  67.613  1.00  0.00     0.000 HD 
HETATM   17  C   UNL     1     -12.224  13.183  65.712  1.00  0.00    -0.514 A  
HETATM   18  C   UNL     1      -9.845  16.140  65.979  1.00  0.00    -0.375 C  
HETATM   19  C   UNL     1     -12.963  12.683  64.640  1.00  0.00    -0.225 A  
HETATM   20  C   UNL     1     -10.618  16.930  67.031  1.00  0.00    -0.230 C  
HETATM   21  C   UNL     1      -9.733  17.360  68.196  1.00  0.00    -0.291 C  
HETATM   22  C   UNL     1     -12.311  12.167  63.528  1.00  0.00    -0.682 A  
HETATM   23  C   UNL     1     -10.920  12.153  63.482  1.00  0.00    -0.521 A  
HETATM   24  C   UNL     1      -8.909  16.222  68.782  1.00  0.00    -0.243 C  
HETATM   25  C   UNL     1      -8.191  15.402  67.712  1.00  0.00    -0.159 C  
HETATM   26  C   UNL     1     -10.178  12.656  64.552  1.00  0.00    -0.331 A  
ENDBRANCH   9  10
ENDBRANCH   8   9
ENDBRANCH   7   8
ENDBRANCH   3   7
ENDBRANCH   2   3
TORSDOF 6
ENDMDL
MODEL       30
REMARK 921   NORMALIZED FREE ENERGY PREDICTED BY IDOCK:   -5.13 KCAL/MOL
REMARK 922        TOTAL FREE ENERGY PREDICTED BY IDOCK:   -7.83 KCAL/MOL
REMARK 923 INTER-LIGAND FREE ENERGY PREDICTED BY IDOCK:   -7.14 KCAL/MOL
REMARK 924 INTRA-LIGAND FREE ENERGY PREDICTED BY IDOCK:   -0.68 KCAL/MOL
REMARK 927      BINDING AFFINITY PREDICTED BY RF-SCORE:    0.00 PKD
ROOT
HETATM    1  C   UNL     1      -9.641   8.038  66.431  1.00  0.00    -0.267 C  
HETATM    2  C   UNL     1     -10.516   8.206  67.662  1.00  0.00    -0.231 C  
ENDROOT
BRANCH   2   3
HETATM    3  N   UNL     1      -9.893   7.666  68.978  1.00  0.00    -0.164 N  
HETATM    4  C   UNL     1     -10.992   6.962  69.796  1.00  0.00    -0.270 C  
BRANCH   3   5
HETATM    5  C   UNL     1      -8.750   6.662  68.732  1.00  0.00    -0.128 C  
HETATM    6  C   UNL     1      -8.590   5.633  69.841  1.00  0.00    -0.125 C  
ENDBRANCH   3   5
BRANCH   3   7
HETATM    7  C   UNL     1      -9.410   8.908  69.756  1.00  0.00    -0.166 C  
BRANCH   7   8
HETATM    8  C   UNL     1     -10.492   9.702  70.494  1.00  0.00    -0.303 C  
BRANCH   8   9
HETATM    9  O   UNL     1     -10.441  11.023  69.936  1.00  0.00    -0.052 OA 
BRANCH   9  10
HETATM   10  C   UNL     1     -11.628  11.528  69.475  1.00  0.00    -0.333 C  
HETATM   11  O   UNL     1     -12.657  10.875  69.391  1.00  0.00    -0.335 OA 
HETATM   12  C   UNL     1     -11.408  12.985  68.951  1.00  0.00    -0.287 C  
HETATM   13  C   UNL     1     -11.926  13.956  70.016  1.00  0.00    -0.404 A  
HETATM   14  O   UNL     1     -10.004  13.223  68.776  1.00  0.00    -0.394 OA 
HETATM   15  C   UNL     1     -12.128  13.129  67.563  1.00  0.00    -0.300 C  
HETATM   16  H   UNL     1      -9.870  14.108  68.458  1.00  0.00     0.000 HD 
HETATM   17  C   UNL     1     -11.078  14.914  70.605  1.00  0.00    -0.169 A  
HETATM   18  C   UNL     1     -12.035  14.538  66.942  1.00  0.00    -0.371 C  
HETATM   19  C   UNL     1     -11.543  15.775  71.601  1.00  0.00    -0.537 A  
HETATM   20  C   UNL     1     -10.671  14.865  66.341  1.00  0.00    -0.316 C  
HETATM   21  C   UNL     1     -10.224  13.820  65.324  1.00  0.00    -0.355 C  
HETATM   22  C   UNL     1     -12.862  15.694  72.028  1.00  0.00    -0.518 A  
HETATM   23  C   UNL     1     -13.720  14.758  71.459  1.00  0.00    -0.511 A  
HETATM   24  C   UNL     1     -10.328  12.391  65.839  1.00  0.00    -0.282 C  
HETATM   25  C   UNL     1     -11.676  12.098  66.495  1.00  0.00    -0.392 C  
HETATM   26  C   UNL     1     -13.259  13.898  70.461  1.00  0.00     0.066 A  
ENDBRANCH   9  10
ENDBRANCH   8   9
ENDBRANCH   7   8
ENDBRANCH   3   7
ENDBRANCH   2   3
TORSDOF 6
ENDMDL
MODEL       31
REMARK 921   NORMALIZED FREE ENERGY PREDICTED BY IDOCK:   -5.02 KCAL/MOL
REMARK 922        TOTAL FREE ENERGY PREDICTED BY IDOCK:   -7.69 KCAL/MOL
REMARK 923 INTER-LIGAND FREE ENERGY PREDICTED BY IDOCK:   -7.16 KCAL/MOL
REMARK 924 INTRA-LIGAND FREE ENERGY PREDICTED BY IDOCK:   -0.53 KCAL/MOL
REMARK 927      BINDING AFFINITY PREDICTED BY RF-SCORE:    0.00 PKD
ROOT
HETATM    1  C   UNL     1      -7.030  16.863  67.288  1.00  0.00    -0.197 C  
HETATM    2  C   UNL     1      -8.051  17.208  66.217  1.00  0.00    -0.290 C  
ENDROOT
BRANCH   2   3
HETATM    3  N   UNL     1      -9.528  16.960  66.626  1.00  0.00    -0.253 N  
HETATM    4  C   UNL     1      -9.643  17.068  68.158  1.00  0.00    -0.266 C  
BRANCH   3   5
HETATM    5  C   UNL     1     -10.503  17.971  65.992  1.00  0.00    -0.313 C  
HETATM    6  C   UNL     1     -10.534  19.318  66.699  1.00  0.00    -0.541 C  
ENDBRANCH   3   5
BRANCH   3   7
HETATM    7  C   UNL     1      -9.846  15.510  66.203  1.00  0.00    -0.316 C  
BRANCH   7   8
HETATM    8  C   UNL     1     -11.132  14.909  66.776  1.00  0.00    -0.335 C  
BRANCH   8   9
HETATM    9  O   UNL     1     -10.713  13.755  67.520  1.00  0.00    -0.253 OA 
BRANCH   9  10
HETATM   10  C   UNL     1     -11.179  12.548  67.072  1.00  0.00    -0.302 C  
HETATM   11  O   UNL     1     -12.201  12.416  66.415  1.00  0.00    -0.604 OA 
HETATM   12  C   UNL     1     -10.295  11.397  67.653  1.00  0.00    -0.183 C  
HETATM   13  C   UNL     1      -9.340  10.928  66.552  1.00  0.00    -0.195 A  
HETATM   14  O   UNL     1      -9.508  11.902  68.741  1.00  0.00    -0.366 OA 
HETATM   15  C   UNL     1     -11.242  10.265  68.192  1.00  0.00    -0.294 C  
HETATM   16  H   UNL     1      -8.970  11.203  69.095  1.00  0.00     0.000 HD 
HETATM   17  C   UNL     1      -7.943  10.981  66.725  1.00  0.00    -0.152 A  
HETATM   18  C   UNL     1     -10.503   9.035  68.757  1.00  0.00    -0.230 C  
HETATM   19  C   UNL     1      -7.074  10.587  65.706  1.00  0.00    -0.124 A  
HETATM   20  C   UNL     1      -9.884   9.258  70.133  1.00  0.00    -0.250 C  
HETATM   21  C   UNL     1     -10.903   9.763  71.149  1.00  0.00    -0.333 C  
HETATM   22  C   UNL     1      -7.583  10.133  64.497  1.00  0.00    -0.130 A  
HETATM   23  C   UNL     1      -8.959  10.069  64.303  1.00  0.00    -0.269 A  
HETATM   24  C   UNL     1     -11.713  10.953  70.653  1.00  0.00    -0.418 C  
HETATM   25  C   UNL     1     -12.274  10.739  69.248  1.00  0.00    -0.185 C  
HETATM   26  C   UNL     1      -9.831  10.459  65.321  1.00  0.00    -0.361 A  
ENDBRANCH   9  10
ENDBRANCH   8   9
ENDBRANCH   7   8
ENDBRANCH   3   7
ENDBRANCH   2   3
TORSDOF 6
ENDMDL
MODEL       32
REMARK 921   NORMALIZED FREE ENERGY PREDICTED BY IDOCK:   -5.02 KCAL/MOL
REMARK 922        TOTAL FREE ENERGY PREDICTED BY IDOCK:   -7.68 KCAL/MOL
REMARK 923 INTER-LIGAND FREE ENERGY PREDICTED BY IDOCK:   -6.78 KCAL/MOL
REMARK 924 INTRA-LIGAND FREE ENERGY PREDICTED BY IDOCK:   -0.91 KCAL/MOL
REMARK 927      BINDING AFFINITY PREDICTED BY RF-SCORE:    0.00 PKD
ROOT
HETATM    1  C   UNL     1     -12.021  12.619  67.583  1.00  0.00    -0.309 C  
HETATM    2  C   UNL     1     -12.091  13.329  66.242  1.00  0.00    -0.414 C  
ENDROOT
BRANCH   2   3
HETATM    3  N   UNL     1     -10.949  12.963  65.255  1.00  0.00    -0.279 N  
HETATM    4  C   UNL     1      -9.757  12.412  66.058  1.00  0.00    -0.244 C  
BRANCH   3   5
HETATM    5  C   UNL     1     -11.371  11.903  64.219  1.00  0.00    -0.353 C  
HETATM    6  C   UNL     1     -12.590  12.299  63.399  1.00  0.00    -0.545 C  
ENDBRANCH   3   5
BRANCH   3   7
HETATM    7  C   UNL     1     -10.530  14.288  64.585  1.00  0.00    -0.298 C  
BRANCH   7   8
HETATM    8  C   UNL     1     -11.259  15.546  65.067  1.00  0.00    -0.358 C  
BRANCH   8   9
HETATM    9  O   UNL     1     -10.311  16.613  64.921  1.00  0.00    -0.577 OA 
BRANCH   9  10
HETATM   10  C   UNL     1     -10.248  17.508  65.956  1.00  0.00    -0.299 C  
HETATM   11  O   UNL     1     -10.935  18.516  66.025  1.00  0.00    -0.119 OA 
HETATM   12  C   UNL     1      -9.083  17.111  66.921  1.00  0.00    -0.238 C  
HETATM   13  C   UNL     1      -9.692  16.423  68.145  1.00  0.00    -0.229 A  
HETATM   14  O   UNL     1      -8.219  16.171  66.265  1.00  0.00    -0.307 OA 
HETATM   15  C   UNL     1      -8.261  18.404  67.267  1.00  0.00    -0.246 C  
HETATM   16  H   UNL     1      -7.511  15.930  66.850  1.00  0.00     0.000 HD 
HETATM   17  C   UNL     1      -9.337  15.106  68.496  1.00  0.00    -0.192 A  
HETATM   18  C   UNL     1      -7.098  18.173  68.253  1.00  0.00    -0.249 C  
HETATM   19  C   UNL     1      -9.920  14.468  69.592  1.00  0.00     0.205 A  
HETATM   20  C   UNL     1      -5.883  17.489  67.635  1.00  0.00    -0.150 C  
HETATM   21  C   UNL     1      -5.375  18.224  66.398  1.00  0.00    -0.182 C  
HETATM   22  C   UNL     1     -10.869  15.133  70.358  1.00  0.00    -0.249 A  
HETATM   23  C   UNL     1     -11.235  16.436  70.033  1.00  0.00    -0.266 A  
HETATM   24  C   UNL     1      -6.470  18.536  65.388  1.00  0.00    -0.282 C  
HETATM   25  C   UNL     1      -7.706  19.162  66.032  1.00  0.00    -0.267 C  
HETATM   26  C   UNL     1     -10.650  17.077  68.940  1.00  0.00    -0.328 A  
ENDBRANCH   9  10
ENDBRANCH   8   9
ENDBRANCH   7   8
ENDBRANCH   3   7
ENDBRANCH   2   3
TORSDOF 6
ENDMDL
MODEL       33
REMARK 921   NORMALIZED FREE ENERGY PREDICTED BY IDOCK:   -4.99 KCAL/MOL
REMARK 922        TOTAL FREE ENERGY PREDICTED BY IDOCK:   -7.64 KCAL/MOL
REMARK 923 INTER-LIGAND FREE ENERGY PREDICTED BY IDOCK:   -6.90 KCAL/MOL
REMARK 924 INTRA-LIGAND FREE ENERGY PREDICTED BY IDOCK:   -0.74 KCAL/MOL
REMARK 927      BINDING AFFINITY PREDICTED BY RF-SCORE:    0.00 PKD
ROOT
HETATM    1  C   UNL     1      -7.899   6.986  70.619  1.00  0.00    -0.097 C  
HETATM    2  C   UNL     1      -7.831   7.490  69.188  1.00  0.00    -0.119 C  
ENDROOT
BRANCH   2   3
HETATM    3  N   UNL     1      -8.838   8.624  68.852  1.00  0.00    -0.137 N  
HETATM    4  C   UNL     1      -8.095   9.739  68.093  1.00  0.00    -0.108 C  
BRANCH   3   5
HETATM    5  C   UNL     1     -10.015   8.142  67.982  1.00  0.00    -0.184 C  
HETATM    6  C   UNL     1     -10.258   9.002  66.751  1.00  0.00    -0.341 C  
ENDBRANCH   3   5
BRANCH   3   7
HETATM    7  C   UNL     1      -9.315   9.179  70.211  1.00  0.00    -0.220 C  
BRANCH   7   8
HETATM    8  C   UNL     1     -10.740   9.740  70.245  1.00  0.00    -0.302 C  
BRANCH   8   9
HETATM    9  O   UNL     1     -10.610  11.128  69.906  1.00  0.00    -0.048 OA 
BRANCH   9  10
HETATM   10  C   UNL     1     -11.747  11.748  69.459  1.00  0.00    -0.343 C  
HETATM   11  O   UNL     1     -12.808  11.171  69.278  1.00  0.00    -0.131 OA 
HETATM   12  C   UNL     1     -11.423  13.233  69.092  1.00  0.00    -0.305 C  
HETATM   13  C   UNL     1     -11.924  14.125  70.232  1.00  0.00    -0.404 A  
HETATM   14  O   UNL     1     -10.001  13.400  68.986  1.00  0.00    -0.424 OA 
HETATM   15  C   UNL     1     -12.080  13.556  67.702  1.00  0.00    -0.321 C  
HETATM   16  H   UNL     1      -9.804  14.302  68.763  1.00  0.00     0.000 HD 
HETATM   17  C   UNL     1     -11.045  14.967  70.940  1.00  0.00    -0.225 A  
HETATM   18  C   UNL     1     -11.882  15.011  67.229  1.00  0.00    -0.163 C  
HETATM   19  C   UNL     1     -11.496  15.753  72.002  1.00  0.00    -0.459 A  
HETATM   20  C   UNL     1     -10.480  15.311  66.707  1.00  0.00    -0.293 C  
HETATM   21  C   UNL     1     -10.055  14.345  65.606  1.00  0.00    -0.377 C  
HETATM   22  C   UNL     1     -12.833  15.712  72.376  1.00  0.00    -0.519 A  
HETATM   23  C   UNL     1     -13.721  14.890  71.690  1.00  0.00    -0.527 A  
HETATM   24  C   UNL     1     -10.262  12.882  65.972  1.00  0.00    -0.293 C  
HETATM   25  C   UNL     1     -11.648  12.609  66.552  1.00  0.00    -0.441 C  
HETATM   26  C   UNL     1     -13.273  14.106  70.625  1.00  0.00    -0.120 A  
ENDBRANCH   9  10
ENDBRANCH   8   9
ENDBRANCH   7   8
ENDBRANCH   3   7
ENDBRANCH   2   3
TORSDOF 6
ENDMDL
MODEL       34
REMARK 921   NORMALIZED FREE ENERGY PREDICTED BY IDOCK:   -4.98 KCAL/MOL
REMARK 922        TOTAL FREE ENERGY PREDICTED BY IDOCK:   -7.63 KCAL/MOL
REMARK 923 INTER-LIGAND FREE ENERGY PREDICTED BY IDOCK:   -6.68 KCAL/MOL
REMARK 924 INTRA-LIGAND FREE ENERGY PREDICTED BY IDOCK:   -0.95 KCAL/MOL
REMARK 927      BINDING AFFINITY PREDICTED BY RF-SCORE:    0.00 PKD
ROOT
HETATM    1  C   UNL     1      -7.475  10.182  65.313  1.00  0.00    -0.145 C  
HETATM    2  C   UNL     1      -6.758  10.982  66.387  1.00  0.00    -0.123 C  
ENDROOT
BRANCH   2   3
HETATM    3  N   UNL     1      -7.579  11.198  67.688  1.00  0.00    -0.102 N  
HETATM    4  C   UNL     1      -7.940   9.824  68.282  1.00  0.00    -0.096 C  
BRANCH   3   5
HETATM    5  C   UNL     1      -6.810  12.003  68.754  1.00  0.00    -0.094 C  
HETATM    6  C   UNL     1      -6.407  13.396  68.297  1.00  0.00    -0.102 C  
ENDBRANCH   3   5
BRANCH   3   7
HETATM    7  C   UNL     1      -8.877  11.911  67.254  1.00  0.00    -0.179 C  
BRANCH   7   8
HETATM    8  C   UNL     1     -10.161  11.453  67.951  1.00  0.00    -0.182 C  
BRANCH   8   9
HETATM    9  O   UNL     1     -10.430  12.451  68.947  1.00  0.00    -0.190 OA 
BRANCH   9  10
HETATM   10  C   UNL     1     -11.353  13.405  68.610  1.00  0.00    -0.286 C  
HETATM   11  O   UNL     1     -12.302  13.199  67.868  1.00  0.00    -0.152 OA 
HETATM   12  C   UNL     1     -10.915  14.787  69.193  1.00  0.00    -0.267 C  
HETATM   13  C   UNL     1     -11.752  15.062  70.446  1.00  0.00    -0.336 A  
HETATM   14  O   UNL     1      -9.535  14.725  69.584  1.00  0.00    -0.422 OA 
HETATM   15  C   UNL     1     -11.079  15.876  68.073  1.00  0.00    -0.334 C  
HETATM   16  H   UNL     1      -9.268  15.565  69.939  1.00  0.00     0.000 HD 
HETATM   17  C   UNL     1     -11.145  15.261  71.701  1.00  0.00    -0.251 A  
HETATM   18  C   UNL     1     -10.725  17.308  68.522  1.00  0.00    -0.305 C  
HETATM   19  C   UNL     1     -11.912  15.476  72.848  1.00  0.00    -0.575 A  
HETATM   20  C   UNL     1      -9.227  17.570  68.645  1.00  0.00    -0.267 C  
HETATM   21  C   UNL     1      -8.474  17.227  67.363  1.00  0.00    -0.210 C  
HETATM   22  C   UNL     1     -13.298  15.496  72.763  1.00  0.00    -0.621 A  
HETATM   23  C   UNL     1     -13.921  15.305  71.533  1.00  0.00    -0.627 A  
HETATM   24  C   UNL     1      -8.801  15.843  66.822  1.00  0.00    -0.294 C  
HETATM   25  C   UNL     1     -10.304  15.572  66.764  1.00  0.00    -0.288 C  
HETATM   26  C   UNL     1     -13.156  15.093  70.384  1.00  0.00    -0.232 A  
ENDBRANCH   9  10
ENDBRANCH   8   9
ENDBRANCH   7   8
ENDBRANCH   3   7
ENDBRANCH   2   3
TORSDOF 6
ENDMDL
MODEL       35
REMARK 921   NORMALIZED FREE ENERGY PREDICTED BY IDOCK:   -4.98 KCAL/MOL
REMARK 922        TOTAL FREE ENERGY PREDICTED BY IDOCK:   -7.63 KCAL/MOL
REMARK 923 INTER-LIGAND FREE ENERGY PREDICTED BY IDOCK:   -6.62 KCAL/MOL
REMARK 924 INTRA-LIGAND FREE ENERGY PREDICTED BY IDOCK:   -1.01 KCAL/MOL
REMARK 927      BINDING AFFINITY PREDICTED BY RF-SCORE:    0.00 PKD
ROOT
HETATM    1  C   UNL     1     -12.065  11.670  70.209  1.00  0.00    -0.443 C  
HETATM    2  C   UNL     1     -11.896  11.158  68.789  1.00  0.00    -0.320 C  
ENDROOT
BRANCH   2   3
HETATM    3  N   UNL     1     -10.596  10.342  68.546  1.00  0.00    -0.196 N  
HETATM    4  C   UNL     1     -10.053   9.858  69.903  1.00  0.00    -0.257 C  
BRANCH   3   5
HETATM    5  C   UNL     1     -10.819   9.114  67.644  1.00  0.00    -0.089 C  
HETATM    6  C   UNL     1      -9.530   8.465  67.161  1.00  0.00    -0.209 C  
ENDBRANCH   3   5
BRANCH   3   7
HETATM    7  C   UNL     1      -9.586  11.333  67.930  1.00  0.00    -0.178 C  
BRANCH   7   8
HETATM    8  C   UNL     1     -10.148  12.309  66.893  1.00  0.00    -0.211 C  
BRANCH   8   9
HETATM    9  O   UNL     1      -9.753  13.612  67.344  1.00  0.00    -0.220 OA 
BRANCH   9  10
HETATM   10  C   UNL     1     -10.720  14.582  67.304  1.00  0.00    -0.287 C  
HETATM   11  O   UNL     1     -11.651  14.581  66.513  1.00  0.00    -0.360 OA 
HETATM   12  C   UNL     1     -10.356  15.725  68.307  1.00  0.00    -0.239 C  
HETATM   13  C   UNL     1     -11.217  15.550  69.560  1.00  0.00    -0.300 A  
HETATM   14  O   UNL     1      -8.979  15.603  68.691  1.00  0.00    -0.182 OA 
HETATM   15  C   UNL     1     -10.564  17.105  67.585  1.00  0.00    -0.343 C  
HETATM   16  H   UNL     1      -8.757  16.298  69.300  1.00  0.00     0.000 HD 
HETATM   17  C   UNL     1     -10.633  15.367  70.829  1.00  0.00    -0.098 A  
HETATM   18  C   UNL     1     -10.286  18.335  68.474  1.00  0.00    -0.402 C  
HETATM   19  C   UNL     1     -11.419  15.173  71.965  1.00  0.00    -0.450 A  
HETATM   20  C   UNL     1      -8.804  18.610  68.710  1.00  0.00    -0.287 C  
HETATM   21  C   UNL     1      -8.024  18.726  67.404  1.00  0.00    -0.254 C  
HETATM   22  C   UNL     1     -12.804  15.157  71.857  1.00  0.00    -0.428 A  
HETATM   23  C   UNL     1     -13.405  15.339  70.615  1.00  0.00    -0.320 A  
HETATM   24  C   UNL     1      -8.277  17.572  66.444  1.00  0.00    -0.305 C  
HETATM   25  C   UNL     1      -9.763  17.267  66.267  1.00  0.00    -0.282 C  
HETATM   26  C   UNL     1     -12.621  15.537  69.478  1.00  0.00     0.037 A  
ENDBRANCH   9  10
ENDBRANCH   8   9
ENDBRANCH   7   8
ENDBRANCH   3   7
ENDBRANCH   2   3
TORSDOF 6
ENDMDL
MODEL       36
REMARK 921   NORMALIZED FREE ENERGY PREDICTED BY IDOCK:   -4.97 KCAL/MOL
REMARK 922        TOTAL FREE ENERGY PREDICTED BY IDOCK:   -7.62 KCAL/MOL
REMARK 923 INTER-LIGAND FREE ENERGY PREDICTED BY IDOCK:   -6.84 KCAL/MOL
REMARK 924 INTRA-LIGAND FREE ENERGY PREDICTED BY IDOCK:   -0.78 KCAL/MOL
REMARK 927      BINDING AFFINITY PREDICTED BY RF-SCORE:    0.00 PKD
ROOT
HETATM    1  C   UNL     1      -8.921   9.775  68.266  1.00  0.00    -0.119 C  
HETATM    2  C   UNL     1      -9.637  10.695  69.239  1.00  0.00    -0.144 C  
ENDROOT
BRANCH   2   3
HETATM    3  N   UNL     1     -10.992  11.254  68.724  1.00  0.00    -0.203 N  
HETATM    4  C   UNL     1     -11.122  10.934  67.223  1.00  0.00    -0.283 C  
BRANCH   3   5
HETATM    5  C   UNL     1     -12.206  10.653  69.458  1.00  0.00    -0.159 C  
HETATM    6  C   UNL     1     -12.307  11.072  70.917  1.00  0.00    -0.503 C  
ENDBRANCH   3   5
BRANCH   3   7
HETATM    7  C   UNL     1     -10.911  12.785  68.902  1.00  0.00    -0.196 C  
BRANCH   7   8
HETATM    8  C   UNL     1     -11.975  13.605  68.166  1.00  0.00    -0.355 C  
BRANCH   8   9
HETATM    9  O   UNL     1     -11.539  14.968  68.264  1.00  0.00    -0.317 OA 
BRANCH   9  10
HETATM   10  C   UNL     1     -10.722  15.414  67.259  1.00  0.00    -0.307 C  
HETATM   11  O   UNL     1     -10.875  15.125  66.082  1.00  0.00    -0.320 OA 
HETATM   12  C   UNL     1      -9.518  16.200  67.873  1.00  0.00    -0.214 C  
HETATM   13  C   UNL     1      -9.792  17.697  67.703  1.00  0.00    -0.294 A  
HETATM   14  O   UNL     1      -9.431  15.919  69.278  1.00  0.00    -0.235 OA 
HETATM   15  C   UNL     1      -8.198  15.717  67.173  1.00  0.00    -0.244 C  
HETATM   16  H   UNL     1      -8.699  16.397  69.652  1.00  0.00     0.000 HD 
HETATM   17  C   UNL     1      -9.864  18.558  68.816  1.00  0.00    -0.411 A  
HETATM   18  C   UNL     1      -6.924  16.444  67.648  1.00  0.00    -0.157 C  
HETATM   19  C   UNL     1     -10.148  19.916  68.662  1.00  0.00    -0.518 A  
HETATM   20  C   UNL     1      -6.431  16.003  69.023  1.00  0.00    -0.146 C  
HETATM   21  C   UNL     1      -6.228  14.494  69.106  1.00  0.00    -0.096 C  
HETATM   22  C   UNL     1     -10.368  20.439  67.394  1.00  0.00    -0.329 A  
HETATM   23  C   UNL     1     -10.300  19.610  66.279  1.00  0.00    -0.619 A  
HETATM   24  C   UNL     1      -7.425  13.695  68.611  1.00  0.00    -0.113 C  
HETATM   25  C   UNL     1      -7.946  14.188  67.263  1.00  0.00    -0.171 C  
HETATM   26  C   UNL     1     -10.012  18.252  66.430  1.00  0.00    -0.385 A  
ENDBRANCH   9  10
ENDBRANCH   8   9
ENDBRANCH   7   8
ENDBRANCH   3   7
ENDBRANCH   2   3
TORSDOF 6
ENDMDL
MODEL       37
REMARK 921   NORMALIZED FREE ENERGY PREDICTED BY IDOCK:   -4.97 KCAL/MOL
REMARK 922        TOTAL FREE ENERGY PREDICTED BY IDOCK:   -7.62 KCAL/MOL
REMARK 923 INTER-LIGAND FREE ENERGY PREDICTED BY IDOCK:   -6.77 KCAL/MOL
REMARK 924 INTRA-LIGAND FREE ENERGY PREDICTED BY IDOCK:   -0.85 KCAL/MOL
REMARK 927      BINDING AFFINITY PREDICTED BY RF-SCORE:    0.00 PKD
ROOT
HETATM    1  C   UNL     1     -10.355   5.389  69.594  1.00  0.00    -0.361 C  
HETATM    2  C   UNL     1     -11.340   6.543  69.667  1.00  0.00    -0.380 C  
ENDROOT
BRANCH   2   3
HETATM    3  N   UNL     1     -11.547   7.128  71.091  1.00  0.00    -0.287 N  
HETATM    4  C   UNL     1     -13.055   7.317  71.336  1.00  0.00    -0.361 C  
BRANCH   3   5
HETATM    5  C   UNL     1     -10.984   6.219  72.200  1.00  0.00    -0.257 C  
HETATM    6  C   UNL     1     -10.462   6.979  73.410  1.00  0.00    -0.383 C  
ENDBRANCH   3   5
BRANCH   3   7
HETATM    7  C   UNL     1     -10.866   8.513  71.081  1.00  0.00    -0.243 C  
BRANCH   7   8
HETATM    8  C   UNL     1     -11.803   9.724  71.111  1.00  0.00    -0.382 C  
BRANCH   8   9
HETATM    9  O   UNL     1     -11.102  10.764  70.414  1.00  0.00    -0.266 OA 
BRANCH   9  10
HETATM   10  C   UNL     1     -11.498  10.996  69.123  1.00  0.00    -0.301 C  
HETATM   11  O   UNL     1     -12.622  10.762  68.706  1.00  0.00    -0.257 OA 
HETATM   12  C   UNL     1     -10.268  11.452  68.273  1.00  0.00    -0.193 C  
HETATM   13  C   UNL     1     -10.349  12.971  68.096  1.00  0.00    -0.244 A  
HETATM   14  O   UNL     1      -9.058  11.150  68.983  1.00  0.00    -0.340 OA 
HETATM   15  C   UNL     1     -10.277  10.658  66.918  1.00  0.00    -0.272 C  
HETATM   16  H   UNL     1      -8.310  11.427  68.466  1.00  0.00     0.000 HD 
HETATM   17  C   UNL     1      -9.315  13.816  68.546  1.00  0.00    -0.144 A  
HETATM   18  C   UNL     1      -9.139  11.040  65.950  1.00  0.00    -0.214 C  
HETATM   19  C   UNL     1      -9.407  15.202  68.415  1.00  0.00    -0.197 A  
HETATM   20  C   UNL     1      -7.774  10.481  66.341  1.00  0.00    -0.135 C  
HETATM   21  C   UNL     1      -7.805   8.968  66.535  1.00  0.00    -0.100 C  
HETATM   22  C   UNL     1     -10.532  15.772  67.835  1.00  0.00    -0.270 A  
HETATM   23  C   UNL     1     -11.566  14.959  67.380  1.00  0.00    -0.347 A  
HETATM   24  C   UNL     1      -8.932   8.498  67.443  1.00  0.00    -0.144 C  
HETATM   25  C   UNL     1     -10.280   9.115  67.079  1.00  0.00    -0.333 C  
HETATM   26  C   UNL     1     -11.475  13.572  67.506  1.00  0.00    -0.361 A  
ENDBRANCH   9  10
ENDBRANCH   8   9
ENDBRANCH   7   8
ENDBRANCH   3   7
ENDBRANCH   2   3
TORSDOF 6
ENDMDL
MODEL       38
REMARK 921   NORMALIZED FREE ENERGY PREDICTED BY IDOCK:   -4.95 KCAL/MOL
REMARK 922        TOTAL FREE ENERGY PREDICTED BY IDOCK:   -7.59 KCAL/MOL
REMARK 923 INTER-LIGAND FREE ENERGY PREDICTED BY IDOCK:   -6.75 KCAL/MOL
REMARK 924 INTRA-LIGAND FREE ENERGY PREDICTED BY IDOCK:   -0.84 KCAL/MOL
REMARK 927      BINDING AFFINITY PREDICTED BY RF-SCORE:    0.00 PKD
ROOT
HETATM    1  C   UNL     1     -10.635  15.358  65.197  1.00  0.00    -0.458 C  
HETATM    2  C   UNL     1     -10.309  13.895  65.443  1.00  0.00    -0.348 C  
ENDROOT
BRANCH   2   3
HETATM    3  N   UNL     1     -11.095  12.897  64.549  1.00  0.00    -0.323 N  
HETATM    4  C   UNL     1     -12.117  13.684  63.708  1.00  0.00    -0.382 C  
BRANCH   3   5
HETATM    5  C   UNL     1     -10.185  12.103  63.593  1.00  0.00    -0.433 C  
HETATM    6  C   UNL     1      -9.943  10.666  64.029  1.00  0.00    -0.401 C  
ENDBRANCH   3   5
BRANCH   3   7
HETATM    7  C   UNL     1     -11.856  11.970  65.521  1.00  0.00    -0.181 C  
BRANCH   7   8
HETATM    8  C   UNL     1     -11.902  12.422  66.983  1.00  0.00    -0.297 C  
BRANCH   8   9
HETATM    9  O   UNL     1     -11.935  11.211  67.753  1.00  0.00    -0.630 OA 
BRANCH   9  10
HETATM   10  C   UNL     1     -11.165  11.196  68.886  1.00  0.00    -0.256 C  
HETATM   11  O   UNL     1     -11.224  12.051  69.758  1.00  0.00    -0.166 OA 
HETATM   12  C   UNL     1     -10.132  10.027  68.802  1.00  0.00    -0.185 C  
HETATM   13  C   UNL     1     -10.642   8.877  69.676  1.00  0.00    -0.230 A  
HETATM   14  O   UNL     1     -10.051   9.557  67.449  1.00  0.00    -0.181 OA 
HETATM   15  C   UNL     1      -8.725  10.573  69.237  1.00  0.00    -0.135 C  
HETATM   16  H   UNL     1      -9.423   8.846  67.397  1.00  0.00     0.000 HD 
HETATM   17  C   UNL     1     -10.896   7.603  69.132  1.00  0.00    -0.082 A  
HETATM   18  C   UNL     1      -7.606   9.511  69.248  1.00  0.00    -0.084 C  
HETATM   19  C   UNL     1     -11.394   6.566  69.922  1.00  0.00    -0.469 A  
HETATM   20  C   UNL     1      -7.099   9.127  67.861  1.00  0.00    -0.079 C  
HETATM   21  C   UNL     1      -6.653  10.341  67.053  1.00  0.00    -0.074 C  
HETATM   22  C   UNL     1     -11.650   6.783  71.270  1.00  0.00    -0.366 A  
HETATM   23  C   UNL     1     -11.405   8.032  71.832  1.00  0.00    -0.336 A  
HETATM   24  C   UNL     1      -7.683  11.462  67.029  1.00  0.00    -0.154 C  
HETATM   25  C   UNL     1      -8.228  11.793  68.417  1.00  0.00    -0.154 C  
HETATM   26  C   UNL     1     -10.903   9.069  71.044  1.00  0.00    -0.345 A  
ENDBRANCH   9  10
ENDBRANCH   8   9
ENDBRANCH   7   8
ENDBRANCH   3   7
ENDBRANCH   2   3
TORSDOF 6
ENDMDL
MODEL       39
REMARK 921   NORMALIZED FREE ENERGY PREDICTED BY IDOCK:   -4.93 KCAL/MOL
REMARK 922        TOTAL FREE ENERGY PREDICTED BY IDOCK:   -7.56 KCAL/MOL
REMARK 923 INTER-LIGAND FREE ENERGY PREDICTED BY IDOCK:   -7.08 KCAL/MOL
REMARK 924 INTRA-LIGAND FREE ENERGY PREDICTED BY IDOCK:   -0.48 KCAL/MOL
REMARK 927      BINDING AFFINITY PREDICTED BY RF-SCORE:    0.00 PKD
ROOT
HETATM    1  C   UNL     1     -10.666  16.589  69.668  1.00  0.00    -0.323 C  
HETATM    2  C   UNL     1     -11.964  15.813  69.523  1.00  0.00    -0.310 C  
ENDROOT
BRANCH   2   3
HETATM    3  N   UNL     1     -12.356  14.969  70.767  1.00  0.00    -0.315 N  
HETATM    4  C   UNL     1     -11.430  15.351  71.937  1.00  0.00    -0.433 C  
BRANCH   3   5
HETATM    5  C   UNL     1     -13.816  15.194  71.207  1.00  0.00    -0.472 C  
HETATM    6  C   UNL     1     -14.274  14.252  72.310  1.00  0.00    -0.587 C  
ENDBRANCH   3   5
BRANCH   3   7
HETATM    7  C   UNL     1     -12.091  13.499  70.379  1.00  0.00    -0.345 C  
BRANCH   7   8
HETATM    8  C   UNL     1     -11.743  13.243  68.911  1.00  0.00    -0.327 C  
BRANCH   8   9
HETATM    9  O   UNL     1     -10.702  12.255  68.934  1.00  0.00    -0.223 OA 
BRANCH   9  10
HETATM   10  C   UNL     1     -11.021  11.032  68.406  1.00  0.00    -0.230 C  
HETATM   11  O   UNL     1     -12.133  10.740  67.994  1.00  0.00    -0.474 OA 
HETATM   12  C   UNL     1      -9.803  10.063  68.557  1.00  0.00    -0.156 C  
HETATM   13  C   UNL     1      -9.103   9.965  67.199  1.00  0.00    -0.154 A  
HETATM   14  O   UNL     1      -8.871  10.611  69.501  1.00  0.00    -0.375 OA 
HETATM   15  C   UNL     1     -10.327   8.685  69.099  1.00  0.00    -0.227 C  
HETATM   16  H   UNL     1      -8.130  10.023  69.593  1.00  0.00     0.000 HD 
HETATM   17  C   UNL     1      -7.750  10.327  67.046  1.00  0.00    -0.100 A  
HETATM   18  C   UNL     1      -9.235   7.608  69.254  1.00  0.00    -0.145 C  
HETATM   19  C   UNL     1      -7.123  10.270  65.800  1.00  0.00    -0.132 A  
HETATM   20  C   UNL     1      -8.328   7.810  70.464  1.00  0.00    -0.125 C  
HETATM   21  C   UNL     1      -9.118   7.939  71.762  1.00  0.00    -0.188 C  
HETATM   22  C   UNL     1      -7.836   9.852  64.683  1.00  0.00    -0.142 A  
HETATM   23  C   UNL     1      -9.172   9.486  64.809  1.00  0.00    -0.267 A  
HETATM   24  C   UNL     1     -10.251   8.952  71.682  1.00  0.00    -0.415 C  
HETATM   25  C   UNL     1     -11.112   8.776  70.433  1.00  0.00    -0.261 C  
HETATM   26  C   UNL     1      -9.800   9.539  66.055  1.00  0.00    -0.353 A  
ENDBRANCH   9  10
ENDBRANCH   8   9
ENDBRANCH   7   8
ENDBRANCH   3   7
ENDBRANCH   2   3
TORSDOF 6
ENDMDL
MODEL       40
REMARK 921   NORMALIZED FREE ENERGY PREDICTED BY IDOCK:   -4.90 KCAL/MOL
REMARK 922        TOTAL FREE ENERGY PREDICTED BY IDOCK:   -7.52 KCAL/MOL
REMARK 923 INTER-LIGAND FREE ENERGY PREDICTED BY IDOCK:   -7.05 KCAL/MOL
REMARK 924 INTRA-LIGAND FREE ENERGY PREDICTED BY IDOCK:   -0.47 KCAL/MOL
REMARK 927      BINDING AFFINITY PREDICTED BY RF-SCORE:    0.00 PKD
ROOT
HETATM    1  C   UNL     1      -8.694   6.513  71.520  1.00  0.00    -0.132 C  
HETATM    2  C   UNL     1      -9.143   7.609  70.569  1.00  0.00    -0.151 C  
ENDROOT
BRANCH   2   3
HETATM    3  N   UNL     1     -10.647   7.982  70.674  1.00  0.00    -0.215 N  
HETATM    4  C   UNL     1     -11.489   6.787  70.190  1.00  0.00    -0.349 C  
BRANCH   3   5
HETATM    5  C   UNL     1     -11.078   8.332  72.111  1.00  0.00    -0.328 C  
HETATM    6  C   UNL     1     -12.461   8.962  72.199  1.00  0.00    -0.459 C  
ENDBRANCH   3   5
BRANCH   3   7
HETATM    7  C   UNL     1     -10.857   9.165  69.705  1.00  0.00    -0.211 C  
BRANCH   7   8
HETATM    8  C   UNL     1      -9.687  10.144  69.576  1.00  0.00    -0.229 C  
BRANCH   8   9
HETATM    9  O   UNL     1     -10.209  11.265  68.849  1.00  0.00    -0.200 OA 
BRANCH   9  10
HETATM   10  C   UNL     1      -9.399  11.778  67.869  1.00  0.00    -0.184 C  
HETATM   11  O   UNL     1      -8.284  11.347  67.616  1.00  0.00    -0.121 OA 
HETATM   12  C   UNL     1     -10.061  13.056  67.259  1.00  0.00    -0.235 C  
HETATM   13  C   UNL     1     -10.686  12.671  65.915  1.00  0.00    -0.293 A  
HETATM   14  O   UNL     1     -11.112  13.510  68.125  1.00  0.00    -0.240 OA 
HETATM   15  C   UNL     1      -8.969  14.179  67.149  1.00  0.00    -0.236 C  
HETATM   16  H   UNL     1     -11.514  14.287  67.754  1.00  0.00     0.000 HD 
HETATM   17  C   UNL     1     -12.064  12.840  65.674  1.00  0.00    -0.514 A  
HETATM   18  C   UNL     1      -9.469  15.492  66.515  1.00  0.00    -0.299 C  
HETATM   19  C   UNL     1     -12.637  12.456  64.461  1.00  0.00    -0.477 A  
HETATM   20  C   UNL     1     -10.337  16.340  67.442  1.00  0.00    -0.285 C  
HETATM   21  C   UNL     1      -9.646  16.634  68.769  1.00  0.00    -0.254 C  
HETATM   22  C   UNL     1     -11.847  11.896  63.466  1.00  0.00    -0.560 A  
HETATM   23  C   UNL     1     -10.483  11.722  63.678  1.00  0.00    -0.490 A  
HETATM   24  C   UNL     1      -9.078  15.393  69.444  1.00  0.00    -0.258 C  
HETATM   25  C   UNL     1      -8.265  14.522  68.488  1.00  0.00    -0.154 C  
HETATM   26  C   UNL     1      -9.906  12.108  64.889  1.00  0.00    -0.173 A  
ENDBRANCH   9  10
ENDBRANCH   8   9
ENDBRANCH   7   8
ENDBRANCH   3   7
ENDBRANCH   2   3
TORSDOF 6
ENDMDL
MODEL       41
REMARK 921   NORMALIZED FREE ENERGY PREDICTED BY IDOCK:   -4.87 KCAL/MOL
REMARK 922        TOTAL FREE ENERGY PREDICTED BY IDOCK:   -7.48 KCAL/MOL
REMARK 923 INTER-LIGAND FREE ENERGY PREDICTED BY IDOCK:   -6.57 KCAL/MOL
REMARK 924 INTRA-LIGAND FREE ENERGY PREDICTED BY IDOCK:   -0.90 KCAL/MOL
REMARK 927      BINDING AFFINITY PREDICTED BY RF-SCORE:    0.00 PKD
ROOT
HETATM    1  C   UNL     1      -7.559   9.652  65.011  1.00  0.00    -0.116 C  
HETATM    2  C   UNL     1      -8.342   8.410  65.401  1.00  0.00    -0.157 C  
ENDROOT
BRANCH   2   3
HETATM    3  N   UNL     1      -8.852   8.400  66.868  1.00  0.00    -0.138 N  
HETATM    4  C   UNL     1     -10.375   8.173  66.862  1.00  0.00    -0.331 C  
BRANCH   3   5
HETATM    5  C   UNL     1      -8.198   7.297  67.722  1.00  0.00    -0.119 C  
HETATM    6  C   UNL     1      -9.193   6.305  68.307  1.00  0.00    -0.111 C  
ENDBRANCH   3   5
BRANCH   3   7
HETATM    7  C   UNL     1      -8.560   9.809  67.425  1.00  0.00    -0.128 C  
BRANCH   7   8
HETATM    8  C   UNL     1      -8.802  10.003  68.925  1.00  0.00    -0.148 C  
BRANCH   8   9
HETATM    9  O   UNL     1      -9.240  11.362  69.066  1.00  0.00    -0.079 OA 
BRANCH   9  10
HETATM   10  C   UNL     1     -10.574  11.591  68.852  1.00  0.00    -0.204 C  
HETATM   11  O   UNL     1     -11.452  10.786  69.121  1.00  0.00    -0.257 OA 
HETATM   12  C   UNL     1     -10.757  12.946  68.094  1.00  0.00    -0.241 C  
HETATM   13  C   UNL     1     -11.199  14.003  69.110  1.00  0.00    -0.308 A  
HETATM   14  O   UNL     1      -9.499  13.358  67.540  1.00  0.00    -0.206 OA 
HETATM   15  C   UNL     1     -11.783  12.728  66.925  1.00  0.00    -0.447 C  
HETATM   16  H   UNL     1      -9.610  14.182  67.079  1.00  0.00     0.000 HD 
HETATM   17  C   UNL     1     -10.439  15.169  69.329  1.00  0.00    -0.261 A  
HETATM   18  C   UNL     1     -12.100  13.999  66.112  1.00  0.00    -0.471 C  
HETATM   19  C   UNL     1     -10.824  16.115  70.280  1.00  0.00    -0.300 A  
HETATM   20  C   UNL     1     -10.993  14.415  65.148  1.00  0.00    -0.380 C  
HETATM   21  C   UNL     1     -10.594  13.284  64.206  1.00  0.00    -0.402 C  
HETATM   22  C   UNL     1     -11.975  15.914  71.032  1.00  0.00    -0.453 A  
HETATM   23  C   UNL     1     -12.744  14.771  70.833  1.00  0.00    -0.405 A  
HETATM   24  C   UNL     1     -10.307  11.973  64.923  1.00  0.00    -0.316 C  
HETATM   25  C   UNL     1     -11.393  11.602  65.931  1.00  0.00    -0.262 C  
HETATM   26  C   UNL     1     -12.363  13.826  69.879  1.00  0.00    -0.334 A  
ENDBRANCH   9  10
ENDBRANCH   8   9
ENDBRANCH   7   8
ENDBRANCH   3   7
ENDBRANCH   2   3
TORSDOF 6
ENDMDL
MODEL       42
REMARK 921   NORMALIZED FREE ENERGY PREDICTED BY IDOCK:   -4.86 KCAL/MOL
REMARK 922        TOTAL FREE ENERGY PREDICTED BY IDOCK:   -7.46 KCAL/MOL
REMARK 923 INTER-LIGAND FREE ENERGY PREDICTED BY IDOCK:   -7.04 KCAL/MOL
REMARK 924 INTRA-LIGAND FREE ENERGY PREDICTED BY IDOCK:   -0.43 KCAL/MOL
REMARK 927      BINDING AFFINITY PREDICTED BY RF-SCORE:    0.00 PKD
ROOT
HETATM    1  C   UNL     1     -12.429  11.867  63.483  1.00  0.00    -0.609 C  
HETATM    2  C   UNL     1     -12.730  12.652  64.749  1.00  0.00    -0.379 C  
ENDROOT
BRANCH   2   3
HETATM    3  N   UNL     1     -11.498  12.904  65.662  1.00  0.00    -0.318 N  
HETATM    4  C   UNL     1     -11.992  13.350  67.050  1.00  0.00    -0.379 C  
BRANCH   3   5
HETATM    5  C   UNL     1     -10.616  11.653  65.837  1.00  0.00    -0.271 C  
HETATM    6  C   UNL     1     -10.300  11.325  67.288  1.00  0.00    -0.236 C  
ENDBRANCH   3   5
BRANCH   3   7
HETATM    7  C   UNL     1     -10.722  14.069  65.011  1.00  0.00    -0.396 C  
BRANCH   7   8
HETATM    8  C   UNL     1      -9.423  14.483  65.707  1.00  0.00    -0.123 C  
BRANCH   8   9
HETATM    9  O   UNL     1      -9.213  15.853  65.334  1.00  0.00    -0.271 OA 
BRANCH   9  10
HETATM   10  C   UNL     1     -10.031  16.773  65.935  1.00  0.00    -0.276 C  
HETATM   11  O   UNL     1     -11.033  17.236  65.411  1.00  0.00    -0.381 OA 
HETATM   12  C   UNL     1      -9.402  17.224  67.293  1.00  0.00    -0.237 C  
HETATM   13  C   UNL     1     -10.138  16.499  68.423  1.00  0.00    -0.255 A  
HETATM   14  O   UNL     1      -8.022  16.831  67.335  1.00  0.00    -0.162 OA 
HETATM   15  C   UNL     1      -9.488  18.790  67.387  1.00  0.00    -0.324 C  
HETATM   16  H   UNL     1      -7.639  17.105  68.160  1.00  0.00     0.000 HD 
HETATM   17  C   UNL     1      -9.451  15.659  69.322  1.00  0.00    -0.264 A  
HETATM   18  C   UNL     1      -8.943  19.379  68.704  1.00  0.00    -0.419 C  
HETATM   19  C   UNL     1     -10.129  14.971  70.329  1.00  0.00     0.134 A  
HETATM   20  C   UNL     1      -7.420  19.395  68.796  1.00  0.00    -0.393 C  
HETATM   21  C   UNL     1      -6.778  20.101  67.607  1.00  0.00    -0.284 C  
HETATM   22  C   UNL     1     -11.505  15.107  70.457  1.00  0.00    -0.342 A  
HETATM   23  C   UNL     1     -12.206  15.933  69.583  1.00  0.00    -0.133 A  
HETATM   24  C   UNL     1      -7.295  19.612  66.261  1.00  0.00    -0.284 C  
HETATM   25  C   UNL     1      -8.820  19.541  66.205  1.00  0.00    -0.391 C  
HETATM   26  C   UNL     1     -11.529  16.625  68.577  1.00  0.00    -0.043 A  
ENDBRANCH   9  10
ENDBRANCH   8   9
ENDBRANCH   7   8
ENDBRANCH   3   7
ENDBRANCH   2   3
TORSDOF 6
ENDMDL
MODEL       43
REMARK 921   NORMALIZED FREE ENERGY PREDICTED BY IDOCK:   -4.85 KCAL/MOL
REMARK 922        TOTAL FREE ENERGY PREDICTED BY IDOCK:   -7.45 KCAL/MOL
REMARK 923 INTER-LIGAND FREE ENERGY PREDICTED BY IDOCK:   -6.56 KCAL/MOL
REMARK 924 INTRA-LIGAND FREE ENERGY PREDICTED BY IDOCK:   -0.90 KCAL/MOL
REMARK 927      BINDING AFFINITY PREDICTED BY RF-SCORE:    0.00 PKD
ROOT
HETATM    1  C   UNL     1      -7.402   6.659  68.611  1.00  0.00    -0.087 C  
HETATM    2  C   UNL     1      -7.961   8.061  68.440  1.00  0.00    -0.120 C  
ENDROOT
BRANCH   2   3
HETATM    3  N   UNL     1      -7.889   8.614  66.990  1.00  0.00    -0.095 N  
HETATM    4  C   UNL     1      -6.602   8.093  66.324  1.00  0.00    -0.047 C  
BRANCH   3   5
HETATM    5  C   UNL     1      -9.092   8.188  66.127  1.00  0.00    -0.183 C  
HETATM    6  C   UNL     1     -10.396   8.082  66.903  1.00  0.00    -0.408 C  
ENDBRANCH   3   5
BRANCH   3   7
HETATM    7  C   UNL     1      -7.794  10.148  67.129  1.00  0.00    -0.099 C  
BRANCH   7   8
HETATM    8  C   UNL     1      -7.860  10.700  68.555  1.00  0.00    -0.115 C  
BRANCH   8   9
HETATM    9  O   UNL     1      -8.586  11.934  68.452  1.00  0.00    -0.164 OA 
BRANCH   9  10
HETATM   10  C   UNL     1      -9.952  11.834  68.491  1.00  0.00    -0.199 C  
HETATM   11  O   UNL     1     -10.549  10.860  68.924  1.00  0.00    -0.188 OA 
HETATM   12  C   UNL     1     -10.587  13.069  67.774  1.00  0.00    -0.226 C  
HETATM   13  C   UNL     1     -11.077  14.043  68.850  1.00  0.00    -0.296 A  
HETATM   14  O   UNL     1      -9.585  13.736  66.992  1.00  0.00    -0.235 OA 
HETATM   15  C   UNL     1     -11.725  12.560  66.819  1.00  0.00    -0.453 C  
HETATM   16  H   UNL     1      -9.971  14.487  66.556  1.00  0.00     0.000 HD 
HETATM   17  C   UNL     1     -10.590  15.364  68.917  1.00  0.00    -0.244 A  
HETATM   18  C   UNL     1     -12.478  13.681  66.074  1.00  0.00    -0.477 C  
HETATM   19  C   UNL     1     -11.011  16.239  69.919  1.00  0.00    -0.365 A  
HETATM   20  C   UNL     1     -11.696  14.296  64.917  1.00  0.00    -0.399 C  
HETATM   21  C   UNL     1     -11.215  13.244  63.923  1.00  0.00    -0.313 C  
HETATM   22  C   UNL     1     -11.925  15.812  70.874  1.00  0.00    -0.453 A  
HETATM   23  C   UNL     1     -12.422  14.514  70.828  1.00  0.00    -0.420 A  
HETATM   24  C   UNL     1     -10.499  12.073  64.580  1.00  0.00    -0.338 C  
HETATM   25  C   UNL     1     -11.265  11.509  65.776  1.00  0.00    -0.228 C  
HETATM   26  C   UNL     1     -12.006  13.638  69.824  1.00  0.00    -0.404 A  
ENDBRANCH   9  10
ENDBRANCH   8   9
ENDBRANCH   7   8
ENDBRANCH   3   7
ENDBRANCH   2   3
TORSDOF 6
ENDMDL
MODEL       44
REMARK 921   NORMALIZED FREE ENERGY PREDICTED BY IDOCK:   -4.85 KCAL/MOL
REMARK 922        TOTAL FREE ENERGY PREDICTED BY IDOCK:   -7.45 KCAL/MOL
REMARK 923 INTER-LIGAND FREE ENERGY PREDICTED BY IDOCK:   -6.47 KCAL/MOL
REMARK 924 INTRA-LIGAND FREE ENERGY PREDICTED BY IDOCK:   -0.98 KCAL/MOL
REMARK 927      BINDING AFFINITY PREDICTED BY RF-SCORE:    0.00 PKD
ROOT
HETATM    1  C   UNL     1      -9.145  10.127  69.441  1.00  0.00    -0.217 C  
HETATM    2  C   UNL     1      -8.091  10.106  68.346  1.00  0.00    -0.104 C  
ENDROOT
BRANCH   2   3
HETATM    3  N   UNL     1      -8.157  11.305  67.362  1.00  0.00    -0.130 N  
HETATM    4  C   UNL     1      -6.734  11.613  66.859  1.00  0.00    -0.124 C  
BRANCH   3   5
HETATM    5  C   UNL     1      -9.056  11.030  66.141  1.00  0.00    -0.192 C  
HETATM    6  C   UNL     1     -10.525  10.848  66.492  1.00  0.00    -0.308 C  
ENDBRANCH   3   5
BRANCH   3   7
HETATM    7  C   UNL     1      -8.663  12.504  68.191  1.00  0.00    -0.190 C  
BRANCH   7   8
HETATM    8  C   UNL     1      -7.586  13.429  68.763  1.00  0.00    -0.047 C  
BRANCH   8   9
HETATM    9  O   UNL     1      -8.122  14.755  68.648  1.00  0.00    -0.139 OA 
BRANCH   9  10
HETATM   10  C   UNL     1      -8.166  15.279  67.383  1.00  0.00    -0.184 C  
HETATM   11  O   UNL     1      -7.237  15.220  66.591  1.00  0.00     0.012 OA 
HETATM   12  C   UNL     1      -9.502  16.067  67.189  1.00  0.00    -0.216 C  
HETATM   13  C   UNL     1     -10.457  15.191  66.374  1.00  0.00    -0.300 A  
HETATM   14  O   UNL     1     -10.103  16.311  68.469  1.00  0.00    -0.224 OA 
HETATM   15  C   UNL     1      -9.173  17.445  66.509  1.00  0.00    -0.286 C  
HETATM   16  H   UNL     1     -10.915  16.790  68.352  1.00  0.00     0.000 HD 
HETATM   17  C   UNL     1     -11.713  14.807  66.885  1.00  0.00    -0.316 A  
HETATM   18  C   UNL     1     -10.410  18.317  66.211  1.00  0.00    -0.422 C  
HETATM   19  C   UNL     1     -12.567  13.979  66.155  1.00  0.00    -0.407 A  
HETATM   20  C   UNL     1     -11.005  18.995  67.441  1.00  0.00    -0.371 C  
HETATM   21  C   UNL     1      -9.968  19.809  68.209  1.00  0.00    -0.557 C  
HETATM   22  C   UNL     1     -12.184  13.519  64.901  1.00  0.00    -0.447 A  
HETATM   23  C   UNL     1     -10.951  13.887  64.373  1.00  0.00    -0.322 A  
HETATM   24  C   UNL     1      -8.691  19.036  68.506  1.00  0.00    -0.392 C  
HETATM   25  C   UNL     1      -8.142  18.311  67.279  1.00  0.00    -0.233 C  
HETATM   26  C   UNL     1     -10.096  14.718  65.100  1.00  0.00    -0.358 A  
ENDBRANCH   9  10
ENDBRANCH   8   9
ENDBRANCH   7   8
ENDBRANCH   3   7
ENDBRANCH   2   3
TORSDOF 6
ENDMDL
MODEL       45
REMARK 921   NORMALIZED FREE ENERGY PREDICTED BY IDOCK:   -4.80 KCAL/MOL
REMARK 922        TOTAL FREE ENERGY PREDICTED BY IDOCK:   -7.39 KCAL/MOL
REMARK 923 INTER-LIGAND FREE ENERGY PREDICTED BY IDOCK:   -6.89 KCAL/MOL
REMARK 924 INTRA-LIGAND FREE ENERGY PREDICTED BY IDOCK:   -0.49 KCAL/MOL
REMARK 927      BINDING AFFINITY PREDICTED BY RF-SCORE:    0.00 PKD
ROOT
HETATM    1  C   UNL     1      -9.543   9.692  65.264  1.00  0.00    -0.347 C  
HETATM    2  C   UNL     1     -10.498  10.871  65.340  1.00  0.00    -0.223 C  
ENDROOT
BRANCH   2   3
HETATM    3  N   UNL     1     -10.550  11.746  64.058  1.00  0.00    -0.336 N  
HETATM    4  C   UNL     1      -9.526  11.203  63.045  1.00  0.00    -0.369 C  
BRANCH   3   5
HETATM    5  C   UNL     1     -11.940  11.750  63.392  1.00  0.00    -0.338 C  
HETATM    6  C   UNL     1     -12.997  12.504  64.185  1.00  0.00    -0.233 C  
ENDBRANCH   3   5
BRANCH   3   7
HETATM    7  C   UNL     1     -10.118  13.161  64.496  1.00  0.00    -0.220 C  
BRANCH   7   8
HETATM    8  C   UNL     1      -9.914  13.367  65.999  1.00  0.00    -0.293 C  
BRANCH   8   9
HETATM    9  O   UNL     1      -9.613  14.762  66.154  1.00  0.00    -0.287 OA 
BRANCH   9  10
HETATM   10  C   UNL     1      -9.061  15.130  67.353  1.00  0.00    -0.191 C  
HETATM   11  O   UNL     1      -7.953  14.776  67.727  1.00  0.00    -0.132 OA 
HETATM   12  C   UNL     1     -10.114  15.924  68.192  1.00  0.00    -0.229 C  
HETATM   13  C   UNL     1      -9.777  17.414  68.091  1.00  0.00    -0.291 A  
HETATM   14  O   UNL     1     -11.421  15.723  67.632  1.00  0.00    -0.254 OA 
HETATM   15  C   UNL     1     -10.099  15.371  69.662  1.00  0.00    -0.275 C  
HETATM   16  H   UNL     1     -12.061  16.205  68.142  1.00  0.00     0.000 HD 
HETATM   17  C   UNL     1     -10.704  18.339  67.572  1.00  0.00    -0.381 A  
HETATM   18  C   UNL     1     -11.062  16.096  70.624  1.00  0.00    -0.318 C  
HETATM   19  C   UNL     1     -10.382  19.692  67.448  1.00  0.00    -0.581 A  
HETATM   20  C   UNL     1     -12.530  15.725  70.433  1.00  0.00    -0.331 C  
HETATM   21  C   UNL     1     -12.758  14.219  70.508  1.00  0.00    -0.391 C  
HETATM   22  C   UNL     1      -9.129  20.145  67.839  1.00  0.00    -0.352 A  
HETATM   23  C   UNL     1      -8.197  19.251  68.358  1.00  0.00    -0.383 A  
HETATM   24  C   UNL     1     -11.814  13.419  69.622  1.00  0.00    -0.394 C  
HETATM   25  C   UNL     1     -10.355  13.845  69.777  1.00  0.00     0.561 C  
HETATM   26  C   UNL     1      -8.518  17.899  68.487  1.00  0.00    -0.303 A  
ENDBRANCH   9  10
ENDBRANCH   8   9
ENDBRANCH   7   8
ENDBRANCH   3   7
ENDBRANCH   2   3
TORSDOF 6
ENDMDL
MODEL       46
REMARK 921   NORMALIZED FREE ENERGY PREDICTED BY IDOCK:   -4.78 KCAL/MOL
REMARK 922        TOTAL FREE ENERGY PREDICTED BY IDOCK:   -7.36 KCAL/MOL
REMARK 923 INTER-LIGAND FREE ENERGY PREDICTED BY IDOCK:   -6.65 KCAL/MOL
REMARK 924 INTRA-LIGAND FREE ENERGY PREDICTED BY IDOCK:   -0.71 KCAL/MOL
REMARK 927      BINDING AFFINITY PREDICTED BY RF-SCORE:    0.00 PKD
ROOT
HETATM    1  C   UNL     1     -11.466  15.841  69.860  1.00  0.00    -0.347 C  
HETATM    2  C   UNL     1     -11.502  15.978  68.347  1.00  0.00    -0.331 C  
ENDROOT
BRANCH   2   3
HETATM    3  N   UNL     1     -10.186  16.509  67.715  1.00  0.00    -0.269 N  
HETATM    4  C   UNL     1     -10.312  16.445  66.181  1.00  0.00    -0.344 C  
BRANCH   3   5
HETATM    5  C   UNL     1      -9.872  17.963  68.117  1.00  0.00    -0.334 C  
HETATM    6  C   UNL     1     -10.556  19.002  67.241  1.00  0.00    -0.554 C  
ENDBRANCH   3   5
BRANCH   3   7
HETATM    7  C   UNL     1      -9.078  15.535  68.166  1.00  0.00    -0.184 C  
BRANCH   7   8
HETATM    8  C   UNL     1      -8.784  14.367  67.221  1.00  0.00    -0.215 C  
BRANCH   8   9
HETATM    9  O   UNL     1      -9.122  13.185  67.961  1.00  0.00    -0.193 OA 
BRANCH   9  10
HETATM   10  C   UNL     1     -10.168  12.447  67.473  1.00  0.00    -0.209 C  
HETATM   11  O   UNL     1     -11.307  12.876  67.361  1.00  0.00    -0.276 OA 
HETATM   12  C   UNL     1      -9.705  10.973  67.237  1.00  0.00    -0.166 C  
HETATM   13  C   UNL     1      -9.460  10.786  65.738  1.00  0.00    -0.244 A  
HETATM   14  O   UNL     1      -8.464  10.747  67.924  1.00  0.00    -0.118 OA 
HETATM   15  C   UNL     1     -10.796  10.008  67.824  1.00  0.00    -0.337 C  
HETATM   16  H   UNL     1      -8.182   9.851  67.780  1.00  0.00     0.000 HD 
HETATM   17  C   UNL     1      -8.198  10.397  65.246  1.00  0.00    -0.162 A  
HETATM   18  C   UNL     1     -10.493   8.509  67.621  1.00  0.00    -0.308 C  
HETATM   19  C   UNL     1      -7.967  10.261  63.876  1.00  0.00    -0.126 A  
HETATM   20  C   UNL     1      -9.416   7.959  68.552  1.00  0.00    -0.148 C  
HETATM   21  C   UNL     1      -9.728   8.231  70.019  1.00  0.00    -0.176 C  
HETATM   22  C   UNL     1      -8.991  10.511  62.972  1.00  0.00    -0.249 A  
HETATM   23  C   UNL     1     -10.247  10.894  63.433  1.00  0.00    -0.356 A  
HETATM   24  C   UNL     1     -10.085   9.684  70.303  1.00  0.00    -0.331 C  
HETATM   25  C   UNL     1     -11.118  10.239  69.324  1.00  0.00    -0.293 C  
HETATM   26  C   UNL     1     -10.481  11.027  64.802  1.00  0.00    -0.384 A  
ENDBRANCH   9  10
ENDBRANCH   8   9
ENDBRANCH   7   8
ENDBRANCH   3   7
ENDBRANCH   2   3
TORSDOF 6
ENDMDL
MODEL       47
REMARK 921   NORMALIZED FREE ENERGY PREDICTED BY IDOCK:   -4.76 KCAL/MOL
REMARK 922        TOTAL FREE ENERGY PREDICTED BY IDOCK:   -7.34 KCAL/MOL
REMARK 923 INTER-LIGAND FREE ENERGY PREDICTED BY IDOCK:   -6.78 KCAL/MOL
REMARK 924 INTRA-LIGAND FREE ENERGY PREDICTED BY IDOCK:   -0.55 KCAL/MOL
REMARK 927      BINDING AFFINITY PREDICTED BY RF-SCORE:    0.00 PKD
ROOT
HETATM    1  C   UNL     1     -14.232   8.033  71.606  1.00  0.00    -0.549 C  
HETATM    2  C   UNL     1     -13.058   8.751  72.249  1.00  0.00    -0.409 C  
ENDROOT
BRANCH   2   3
HETATM    3  N   UNL     1     -11.663   8.285  71.750  1.00  0.00    -0.284 N  
HETATM    4  C   UNL     1     -10.846   7.784  72.956  1.00  0.00    -0.389 C  
BRANCH   3   5
HETATM    5  C   UNL     1     -11.746   7.149  70.712  1.00  0.00    -0.323 C  
HETATM    6  C   UNL     1     -11.028   5.877  71.137  1.00  0.00    -0.327 C  
ENDBRANCH   3   5
BRANCH   3   7
HETATM    7  C   UNL     1     -10.979   9.543  71.173  1.00  0.00    -0.368 C  
BRANCH   7   8
HETATM    8  C   UNL     1      -9.722   9.300  70.334  1.00  0.00    -0.244 C  
BRANCH   8   9
HETATM    9  O   UNL     1     -10.023   9.831  69.035  1.00  0.00    -0.169 OA 
BRANCH   9  10
HETATM   10  C   UNL     1      -9.162  10.784  68.559  1.00  0.00    -0.174 C  
HETATM   11  O   UNL     1      -8.216  11.222  69.196  1.00  0.00    -0.077 OA 
HETATM   12  C   UNL     1      -9.670  11.305  67.175  1.00  0.00    -0.181 C  
HETATM   13  C   UNL     1      -8.829  10.642  66.081  1.00  0.00    -0.179 A  
HETATM   14  O   UNL     1     -11.037  10.909  66.988  1.00  0.00    -0.272 OA 
HETATM   15  C   UNL     1      -9.588  12.873  67.172  1.00  0.00    -0.225 C  
HETATM   16  H   UNL     1     -11.346  11.225  66.147  1.00  0.00     0.000 HD 
HETATM   17  C   UNL     1      -9.425   9.849  65.080  1.00  0.00    -0.338 A  
HETATM   18  C   UNL     1     -10.017  13.529  65.844  1.00  0.00    -0.295 C  
HETATM   19  C   UNL     1      -8.653   9.217  64.104  1.00  0.00    -0.207 A  
HETATM   20  C   UNL     1     -11.525  13.544  65.615  1.00  0.00    -0.330 C  
HETATM   21  C   UNL     1     -12.278  14.185  66.776  1.00  0.00    -0.429 C  
HETATM   22  C   UNL     1      -7.272   9.364  64.109  1.00  0.00    -0.106 A  
HETATM   23  C   UNL     1      -6.660  10.145  65.085  1.00  0.00    -0.124 A  
HETATM   24  C   UNL     1     -11.880  13.628  68.136  1.00  0.00    -0.407 C  
HETATM   25  C   UNL     1     -10.366  13.559  68.325  1.00  0.00    -0.253 C  
HETATM   26  C   UNL     1      -7.430  10.781  66.060  1.00  0.00    -0.125 A  
ENDBRANCH   9  10
ENDBRANCH   8   9
ENDBRANCH   7   8
ENDBRANCH   3   7
ENDBRANCH   2   3
TORSDOF 6
ENDMDL
MODEL       48
REMARK 921   NORMALIZED FREE ENERGY PREDICTED BY IDOCK:   -4.76 KCAL/MOL
REMARK 922        TOTAL FREE ENERGY PREDICTED BY IDOCK:   -7.33 KCAL/MOL
REMARK 923 INTER-LIGAND FREE ENERGY PREDICTED BY IDOCK:   -6.52 KCAL/MOL
REMARK 924 INTRA-LIGAND FREE ENERGY PREDICTED BY IDOCK:   -0.81 KCAL/MOL
REMARK 927      BINDING AFFINITY PREDICTED BY RF-SCORE:    0.00 PKD
ROOT
HETATM    1  C   UNL     1      -5.471  15.560  67.768  1.00  0.00    -0.130 C  
HETATM    2  C   UNL     1      -6.901  15.122  67.498  1.00  0.00    -0.174 C  
ENDROOT
BRANCH   2   3
HETATM    3  N   UNL     1      -7.910  16.288  67.308  1.00  0.00    -0.158 N  
HETATM    4  C   UNL     1      -8.024  17.066  68.632  1.00  0.00    -0.258 C  
BRANCH   3   5
HETATM    5  C   UNL     1      -7.488  17.271  66.199  1.00  0.00    -0.286 C  
HETATM    6  C   UNL     1      -8.022  18.682  66.395  1.00  0.00    -0.298 C  
ENDBRANCH   3   5
BRANCH   3   7
HETATM    7  C   UNL     1      -9.269  15.623  67.001  1.00  0.00    -0.222 C  
BRANCH   7   8
HETATM    8  C   UNL     1     -10.225  15.470  68.187  1.00  0.00    -0.227 C  
BRANCH   8   9
HETATM    9  O   UNL     1     -10.072  14.112  68.625  1.00  0.00    -0.232 OA 
BRANCH   9  10
HETATM   10  C   UNL     1     -11.123  13.272  68.363  1.00  0.00    -0.270 C  
HETATM   11  O   UNL     1     -12.256  13.452  68.784  1.00  0.00    -0.295 OA 
HETATM   12  C   UNL     1     -10.609  12.014  67.591  1.00  0.00    -0.210 C  
HETATM   13  C   UNL     1     -10.962  12.187  66.111  1.00  0.00    -0.335 A  
HETATM   14  O   UNL     1      -9.179  11.937  67.702  1.00  0.00    -0.173 OA 
HETATM   15  C   UNL     1     -11.241  10.735  68.246  1.00  0.00    -0.358 C  
HETATM   16  H   UNL     1      -8.866  11.172  67.233  1.00  0.00     0.000 HD 
HETATM   17  C   UNL     1      -9.964  12.192  65.117  1.00  0.00    -0.251 A  
HETATM   18  C   UNL     1     -10.857   9.411  67.555  1.00  0.00    -0.208 C  
HETATM   19  C   UNL     1     -10.285  12.385  63.773  1.00  0.00    -0.404 A  
HETATM   20  C   UNL     1      -9.437   8.940  67.856  1.00  0.00    -0.160 C  
HETATM   21  C   UNL     1      -9.168   8.840  69.354  1.00  0.00    -0.146 C  
HETATM   22  C   UNL     1     -11.608  12.577  63.395  1.00  0.00    -0.547 A  
HETATM   23  C   UNL     1     -12.612  12.573  64.358  1.00  0.00    -0.497 A  
HETATM   24  C   UNL     1      -9.564  10.091  70.124  1.00  0.00    -0.151 C  
HETATM   25  C   UNL     1     -10.964  10.587  69.766  1.00  0.00    -0.350 C  
HETATM   26  C   UNL     1     -12.294  12.376  65.703  1.00  0.00    -0.182 A  
ENDBRANCH   9  10
ENDBRANCH   8   9
ENDBRANCH   7   8
ENDBRANCH   3   7
ENDBRANCH   2   3
TORSDOF 6
ENDMDL
MODEL       49
REMARK 921   NORMALIZED FREE ENERGY PREDICTED BY IDOCK:   -4.76 KCAL/MOL
REMARK 922        TOTAL FREE ENERGY PREDICTED BY IDOCK:   -7.33 KCAL/MOL
REMARK 923 INTER-LIGAND FREE ENERGY PREDICTED BY IDOCK:   -6.40 KCAL/MOL
REMARK 924 INTRA-LIGAND FREE ENERGY PREDICTED BY IDOCK:   -0.93 KCAL/MOL
REMARK 927      BINDING AFFINITY PREDICTED BY RF-SCORE:    0.00 PKD
ROOT
HETATM    1  C   UNL     1     -11.176   6.319  68.496  1.00  0.00    -0.305 C  
HETATM    2  C   UNL     1      -9.740   5.829  68.576  1.00  0.00    -0.131 C  
ENDROOT
BRANCH   2   3
HETATM    3  N   UNL     1      -8.768   6.505  67.570  1.00  0.00    -0.115 N  
HETATM    4  C   UNL     1      -7.653   7.215  68.359  1.00  0.00    -0.118 C  
BRANCH   3   5
HETATM    5  C   UNL     1      -8.116   5.501  66.600  1.00  0.00    -0.105 C  
HETATM    6  C   UNL     1      -9.106   4.545  65.952  1.00  0.00    -0.133 C  
ENDBRANCH   3   5
BRANCH   3   7
HETATM    7  C   UNL     1      -9.605   7.566  66.824  1.00  0.00    -0.206 C  
BRANCH   7   8
HETATM    8  C   UNL     1      -8.849   8.425  65.807  1.00  0.00    -0.165 C  
BRANCH   8   9
HETATM    9  O   UNL     1      -9.666   9.588  65.610  1.00  0.00    -0.272 OA 
BRANCH   9  10
HETATM   10  C   UNL     1      -9.248  10.731  66.240  1.00  0.00    -0.173 C  
HETATM   11  O   UNL     1      -8.082  11.096  66.281  1.00  0.00    -0.168 OA 
HETATM   12  C   UNL     1     -10.451  11.382  66.996  1.00  0.00    -0.236 C  
HETATM   13  C   UNL     1     -10.954  12.563  66.161  1.00  0.00    -0.318 A  
HETATM   14  O   UNL     1     -11.517  10.428  67.108  1.00  0.00    -0.302 OA 
HETATM   15  C   UNL     1      -9.974  11.786  68.437  1.00  0.00    -0.202 C  
HETATM   16  H   UNL     1     -12.249  10.824  67.568  1.00  0.00     0.000 HD 
HETATM   17  C   UNL     1     -12.282  12.613  65.692  1.00  0.00    -0.474 A  
HETATM   18  C   UNL     1     -11.050  12.487  69.290  1.00  0.00    -0.203 C  
HETATM   19  C   UNL     1     -12.729  13.673  64.902  1.00  0.00    -0.320 A  
HETATM   20  C   UNL     1     -12.120  11.548  69.839  1.00  0.00    -0.389 C  
HETATM   21  C   UNL     1     -11.519  10.383  70.618  1.00  0.00    -0.438 C  
HETATM   22  C   UNL     1     -11.859  14.703  64.565  1.00  0.00    -0.442 A  
HETATM   23  C   UNL     1     -10.544  14.677  65.019  1.00  0.00    -0.461 A  
HETATM   24  C   UNL     1     -10.411   9.659  69.866  1.00  0.00    -0.282 C  
HETATM   25  C   UNL     1      -9.382  10.617  69.268  1.00  0.00    -0.136 C  
HETATM   26  C   UNL     1     -10.096  13.620  65.812  1.00  0.00    -0.311 A  
ENDBRANCH   9  10
ENDBRANCH   8   9
ENDBRANCH   7   8
ENDBRANCH   3   7
ENDBRANCH   2   3
TORSDOF 6
ENDMDL
MODEL       50
REMARK 921   NORMALIZED FREE ENERGY PREDICTED BY IDOCK:   -4.76 KCAL/MOL
REMARK 922        TOTAL FREE ENERGY PREDICTED BY IDOCK:   -7.33 KCAL/MOL
REMARK 923 INTER-LIGAND FREE ENERGY PREDICTED BY IDOCK:   -6.54 KCAL/MOL
REMARK 924 INTRA-LIGAND FREE ENERGY PREDICTED BY IDOCK:   -0.79 KCAL/MOL
REMARK 927      BINDING AFFINITY PREDICTED BY RF-SCORE:    0.00 PKD
ROOT
HETATM    1  C   UNL     1     -10.058  10.522  64.454  1.00  0.00    -0.395 C  
HETATM    2  C   UNL     1      -9.716  11.712  65.335  1.00  0.00    -0.229 C  
ENDROOT
BRANCH   2   3
HETATM    3  N   UNL     1     -10.906  12.265  66.166  1.00  0.00    -0.269 N  
HETATM    4  C   UNL     1     -10.516  13.642  66.736  1.00  0.00    -0.270 C  
BRANCH   3   5
HETATM    5  C   UNL     1     -12.193  12.429  65.334  1.00  0.00    -0.319 C  
HETATM    6  C   UNL     1     -12.773  13.835  65.375  1.00  0.00    -0.513 C  
ENDBRANCH   3   5
BRANCH   3   7
HETATM    7  C   UNL     1     -11.098  11.277  67.336  1.00  0.00    -0.297 C  
BRANCH   7   8
HETATM    8  C   UNL     1     -10.631  11.764  68.710  1.00  0.00    -0.206 C  
BRANCH   8   9
HETATM    9  O   UNL     1     -10.730  10.620  69.572  1.00  0.00    -0.231 OA 
BRANCH   9  10
HETATM   10  C   UNL     1      -9.592   9.870  69.709  1.00  0.00    -0.231 C  
HETATM   11  O   UNL     1      -8.463  10.326  69.613  1.00  0.00    -0.169 OA 
HETATM   12  C   UNL     1      -9.975   8.361  69.855  1.00  0.00    -0.190 C  
HETATM   13  C   UNL     1      -9.864   7.983  71.334  1.00  0.00    -0.213 A  
HETATM   14  O   UNL     1     -11.338   8.172  69.447  1.00  0.00    -0.426 OA 
HETATM   15  C   UNL     1      -9.040   7.517  68.916  1.00  0.00    -0.140 C  
HETATM   16  H   UNL     1     -11.571   7.255  69.535  1.00  0.00     0.000 HD 
HETATM   17  C   UNL     1     -10.974   7.488  72.047  1.00  0.00    -0.282 A  
HETATM   18  C   UNL     1      -9.273   5.995  68.989  1.00  0.00    -0.125 C  
HETATM   19  C   UNL     1     -10.880   7.177  73.405  1.00  0.00    -0.360 A  
HETATM   20  C   UNL     1     -10.531   5.521  68.267  1.00  0.00    -0.225 C  
HETATM   21  C   UNL     1     -10.569   5.982  66.814  1.00  0.00    -0.359 C  
HETATM   22  C   UNL     1      -9.677   7.355  74.076  1.00  0.00    -0.215 A  
HETATM   23  C   UNL     1      -8.566   7.839  73.393  1.00  0.00    -0.267 A  
HETATM   24  C   UNL     1     -10.301   7.471  66.644  1.00  0.00    -0.252 C  
HETATM   25  C   UNL     1      -9.076   7.943  67.424  1.00  0.00    -0.146 C  
HETATM   26  C   UNL     1      -8.656   8.148  72.034  1.00  0.00    -0.216 A  
ENDBRANCH   9  10
ENDBRANCH   8   9
ENDBRANCH   7   8
ENDBRANCH   3   7
ENDBRANCH   2   3
TORSDOF 6
ENDMDL
MODEL       51
REMARK 921   NORMALIZED FREE ENERGY PREDICTED BY IDOCK:   -4.73 KCAL/MOL
REMARK 922        TOTAL FREE ENERGY PREDICTED BY IDOCK:   -7.29 KCAL/MOL
REMARK 923 INTER-LIGAND FREE ENERGY PREDICTED BY IDOCK:   -6.68 KCAL/MOL
REMARK 924 INTRA-LIGAND FREE ENERGY PREDICTED BY IDOCK:   -0.61 KCAL/MOL
REMARK 927      BINDING AFFINITY PREDICTED BY RF-SCORE:    0.00 PKD
ROOT
HETATM    1  C   UNL     1     -11.470  15.637  68.425  1.00  0.00    -0.374 C  
HETATM    2  C   UNL     1     -10.949  14.228  68.651  1.00  0.00    -0.252 C  
ENDROOT
BRANCH   2   3
HETATM    3  N   UNL     1     -11.157  13.261  67.453  1.00  0.00    -0.271 N  
HETATM    4  C   UNL     1     -12.161  13.895  66.472  1.00  0.00    -0.449 C  
BRANCH   3   5
HETATM    5  C   UNL     1      -9.852  12.964  66.691  1.00  0.00    -0.250 C  
HETATM    6  C   UNL     1      -8.599  13.440  67.411  1.00  0.00    -0.204 C  
ENDBRANCH   3   5
BRANCH   3   7
HETATM    7  C   UNL     1     -11.781  11.981  68.048  1.00  0.00    -0.331 C  
BRANCH   7   8
HETATM    8  C   UNL     1     -11.555  11.756  69.545  1.00  0.00    -0.332 C  
BRANCH   8   9
HETATM    9  O   UNL     1     -11.439  10.334  69.702  1.00  0.00    -0.248 OA 
BRANCH   9  10
HETATM   10  C   UNL     1     -10.164   9.833  69.735  1.00  0.00    -0.242 C  
HETATM   11  O   UNL     1      -9.169  10.495  69.481  1.00  0.00    -0.158 OA 
HETATM   12  C   UNL     1     -10.213   8.293  69.996  1.00  0.00    -0.202 C  
HETATM   13  C   UNL     1      -9.867   8.048  71.467  1.00  0.00    -0.217 A  
HETATM   14  O   UNL     1     -11.546   7.812  69.766  1.00  0.00    -0.450 OA 
HETATM   15  C   UNL     1      -9.235   7.586  68.991  1.00  0.00    -0.146 C  
HETATM   16  H   UNL     1     -11.576   6.875  69.924  1.00  0.00     0.000 HD 
HETATM   17  C   UNL     1     -10.767   7.396  72.332  1.00  0.00    -0.295 A  
HETATM   18  C   UNL     1      -9.144   6.056  69.163  1.00  0.00    -0.124 C  
HETATM   19  C   UNL     1     -10.464   7.206  73.681  1.00  0.00    -0.412 A  
HETATM   20  C   UNL     1     -10.350   5.295  68.622  1.00  0.00    -0.193 C  
HETATM   21  C   UNL     1     -10.641   5.637  67.164  1.00  0.00    -0.344 C  
HETATM   22  C   UNL     1      -9.257   7.663  74.192  1.00  0.00    -0.148 A  
HETATM   23  C   UNL     1      -8.349   8.307  73.358  1.00  0.00    -0.252 A  
HETATM   24  C   UNL     1     -10.702   7.134  66.894  1.00  0.00    -0.363 C  
HETATM   25  C   UNL     1      -9.520   7.891  67.497  1.00  0.00    -0.175 C  
HETATM   26  C   UNL     1      -8.648   8.496  72.007  1.00  0.00    -0.250 A  
ENDBRANCH   9  10
ENDBRANCH   8   9
ENDBRANCH   7   8
ENDBRANCH   3   7
ENDBRANCH   2   3
TORSDOF 6
ENDMDL
MODEL       52
REMARK 921   NORMALIZED FREE ENERGY PREDICTED BY IDOCK:   -4.71 KCAL/MOL
REMARK 922        TOTAL FREE ENERGY PREDICTED BY IDOCK:   -7.26 KCAL/MOL
REMARK 923 INTER-LIGAND FREE ENERGY PREDICTED BY IDOCK:   -6.22 KCAL/MOL
REMARK 924 INTRA-LIGAND FREE ENERGY PREDICTED BY IDOCK:   -1.04 KCAL/MOL
REMARK 927      BINDING AFFINITY PREDICTED BY RF-SCORE:    0.00 PKD
ROOT
HETATM    1  C   UNL     1     -13.000  15.514  73.621  1.00  0.00    -0.640 C  
HETATM    2  C   UNL     1     -12.179  15.282  72.364  1.00  0.00    -0.383 C  
ENDROOT
BRANCH   2   3
HETATM    3  N   UNL     1     -12.863  14.377  71.302  1.00  0.00    -0.322 N  
HETATM    4  C   UNL     1     -14.390  14.518  71.440  1.00  0.00    -0.326 C  
BRANCH   3   5
HETATM    5  C   UNL     1     -12.468  14.745  69.859  1.00  0.00    -0.240 C  
HETATM    6  C   UNL     1     -11.022  15.196  69.715  1.00  0.00    -0.293 C  
ENDBRANCH   3   5
BRANCH   3   7
HETATM    7  C   UNL     1     -12.460  12.931  71.659  1.00  0.00     0.031 C  
BRANCH   7   8
HETATM    8  C   UNL     1     -12.732  11.873  70.585  1.00  0.00    -0.091 C  
BRANCH   8   9
HETATM    9  O   UNL     1     -11.446  11.550  70.036  1.00  0.00    -0.282 OA 
BRANCH   9  10
HETATM   10  C   UNL     1     -11.394  11.388  68.677  1.00  0.00    -0.265 C  
HETATM   11  O   UNL     1     -12.383  11.281  67.968  1.00  0.00    -0.432 OA 
HETATM   12  C   UNL     1      -9.907  11.217  68.227  1.00  0.00    -0.197 C  
HETATM   13  C   UNL     1      -9.434  12.547  67.635  1.00  0.00    -0.188 A  
HETATM   14  O   UNL     1      -9.092  10.923  69.371  1.00  0.00    -0.390 OA 
HETATM   15  C   UNL     1      -9.826  10.014  67.221  1.00  0.00    -0.225 C  
HETATM   16  H   UNL     1      -8.187  10.819  69.098  1.00  0.00     0.000 HD 
HETATM   17  C   UNL     1      -8.333  13.239  68.177  1.00  0.00    -0.161 A  
HETATM   18  C   UNL     1      -8.416   9.755  66.652  1.00  0.00    -0.126 C  
HETATM   19  C   UNL     1      -7.925  14.469  67.658  1.00  0.00    -0.190 A  
HETATM   20  C   UNL     1      -7.463   9.079  67.634  1.00  0.00    -0.085 C  
HETATM   21  C   UNL     1      -8.039   7.786  68.200  1.00  0.00    -0.123 C  
HETATM   22  C   UNL     1      -8.608  15.031  66.588  1.00  0.00    -0.246 A  
HETATM   23  C   UNL     1      -9.697  14.366  66.033  1.00  0.00    -0.320 A  
HETATM   24  C   UNL     1      -9.453   7.941  68.743  1.00  0.00    -0.147 C  
HETATM   25  C   UNL     1     -10.379   8.675  67.775  1.00  0.00    -0.303 C  
HETATM   26  C   UNL     1     -10.105  13.135  66.548  1.00  0.00    -0.280 A  
ENDBRANCH   9  10
ENDBRANCH   8   9
ENDBRANCH   7   8
ENDBRANCH   3   7
ENDBRANCH   2   3
TORSDOF 6
ENDMDL
MODEL       53
REMARK 921   NORMALIZED FREE ENERGY PREDICTED BY IDOCK:   -4.70 KCAL/MOL
REMARK 922        TOTAL FREE ENERGY PREDICTED BY IDOCK:   -7.25 KCAL/MOL
REMARK 923 INTER-LIGAND FREE ENERGY PREDICTED BY IDOCK:   -6.41 KCAL/MOL
REMARK 924 INTRA-LIGAND FREE ENERGY PREDICTED BY IDOCK:   -0.84 KCAL/MOL
REMARK 927      BINDING AFFINITY PREDICTED BY RF-SCORE:    0.00 PKD
ROOT
HETATM    1  C   UNL     1      -8.754   9.325  64.569  1.00  0.00    -0.218 C  
HETATM    2  C   UNL     1      -8.001   9.096  65.869  1.00  0.00    -0.106 C  
ENDROOT
BRANCH   2   3
HETATM    3  N   UNL     1      -6.503   9.504  65.829  1.00  0.00    -0.071 N  
HETATM    4  C   UNL     1      -5.742   8.702  66.901  1.00  0.00    -0.041 C  
BRANCH   3   5
HETATM    5  C   UNL     1      -5.845   9.237  64.462  1.00  0.00    -0.070 C  
HETATM    6  C   UNL     1      -5.201  10.468  63.841  1.00  0.00    -0.160 C  
ENDBRANCH   3   5
BRANCH   3   7
HETATM    7  C   UNL     1      -6.464  11.001  66.205  1.00  0.00    -0.082 C  
BRANCH   7   8
HETATM    8  C   UNL     1      -7.252  11.402  67.455  1.00  0.00    -0.115 C  
BRANCH   8   9
HETATM    9  O   UNL     1      -8.216  12.364  67.003  1.00  0.00    -0.178 OA 
BRANCH   9  10
HETATM   10  C   UNL     1      -9.498  12.190  67.454  1.00  0.00    -0.179 C  
HETATM   11  O   UNL     1      -9.866  11.216  68.094  1.00  0.00    -0.169 OA 
HETATM   12  C   UNL     1     -10.408  13.334  66.900  1.00  0.00    -0.255 C  
HETATM   13  C   UNL     1     -10.629  14.351  68.023  1.00  0.00    -0.241 A  
HETATM   14  O   UNL     1      -9.735  14.000  65.821  1.00  0.00    -0.444 OA 
HETATM   15  C   UNL     1     -11.736  12.695  66.356  1.00  0.00    -0.466 C  
HETATM   16  H   UNL     1     -10.287  14.695  65.484  1.00  0.00     0.000 HD 
HETATM   17  C   UNL     1     -10.245  15.699  67.875  1.00  0.00    -0.239 A  
HETATM   18  C   UNL     1     -12.757  13.717  65.816  1.00  0.00    -0.470 C  
HETATM   19  C   UNL     1     -10.416  16.617  68.912  1.00  0.00    -0.322 A  
HETATM   20  C   UNL     1     -12.400  14.292  64.449  1.00  0.00    -0.417 C  
HETATM   21  C   UNL     1     -12.157  13.202  63.410  1.00  0.00    -0.558 C  
HETATM   22  C   UNL     1     -10.972  16.207  70.117  1.00  0.00    -0.359 A  
HETATM   23  C   UNL     1     -11.362  14.882  70.287  1.00  0.00    -0.296 A  
HETATM   24  C   UNL     1     -11.193  12.122  63.880  1.00  0.00    -0.485 C  
HETATM   25  C   UNL     1     -11.526  11.601  65.277  1.00  0.00    -0.173 C  
HETATM   26  C   UNL     1     -11.196  13.963  69.250  1.00  0.00    -0.296 A  
ENDBRANCH   9  10
ENDBRANCH   8   9
ENDBRANCH   7   8
ENDBRANCH   3   7
ENDBRANCH   2   3
TORSDOF 6
ENDMDL
MODEL       54
REMARK 921   NORMALIZED FREE ENERGY PREDICTED BY IDOCK:   -4.66 KCAL/MOL
REMARK 922        TOTAL FREE ENERGY PREDICTED BY IDOCK:   -7.19 KCAL/MOL
REMARK 923 INTER-LIGAND FREE ENERGY PREDICTED BY IDOCK:   -6.26 KCAL/MOL
REMARK 924 INTRA-LIGAND FREE ENERGY PREDICTED BY IDOCK:   -0.94 KCAL/MOL
REMARK 927      BINDING AFFINITY PREDICTED BY RF-SCORE:    0.00 PKD
ROOT
HETATM    1  C   UNL     1      -7.693   6.678  65.034  1.00  0.00    -0.103 C  
HETATM    2  C   UNL     1      -8.034   7.901  64.199  1.00  0.00    -0.125 C  
ENDROOT
BRANCH   2   3
HETATM    3  N   UNL     1      -8.452   9.150  65.022  1.00  0.00    -0.161 N  
HETATM    4  C   UNL     1      -9.482   8.723  66.084  1.00  0.00    -0.247 C  
BRANCH   3   5
HETATM    5  C   UNL     1      -7.264   9.822  65.738  1.00  0.00    -0.104 C  
HETATM    6  C   UNL     1      -6.175  10.308  64.794  1.00  0.00    -0.124 C  
ENDBRANCH   3   5
BRANCH   3   7
HETATM    7  C   UNL     1      -9.135  10.106  64.021  1.00  0.00    -0.254 C  
BRANCH   7   8
HETATM    8  C   UNL     1     -10.526  10.610  64.414  1.00  0.00    -0.177 C  
BRANCH   8   9
HETATM    9  O   UNL     1     -10.345  11.991  64.761  1.00  0.00    -0.262 OA 
BRANCH   9  10
HETATM   10  C   UNL     1     -11.182  12.484  65.727  1.00  0.00    -0.320 C  
HETATM   11  O   UNL     1     -12.391  12.589  65.588  1.00  0.00    -0.615 OA 
HETATM   12  C   UNL     1     -10.337  13.008  66.933  1.00  0.00    -0.245 C  
HETATM   13  C   UNL     1     -10.399  11.961  68.049  1.00  0.00    -0.209 A  
HETATM   14  O   UNL     1      -8.966  13.151  66.531  1.00  0.00    -0.402 OA 
HETATM   15  C   UNL     1     -10.893  14.415  67.356  1.00  0.00    -0.293 C  
HETATM   16  H   UNL     1      -8.452  13.469  67.263  1.00  0.00     0.000 HD 
HETATM   17  C   UNL     1      -9.229  11.356  68.549  1.00  0.00    -0.174 A  
HETATM   18  C   UNL     1     -10.180  15.040  68.573  1.00  0.00    -0.227 C  
HETATM   19  C   UNL     1      -9.291  10.377  69.542  1.00  0.00    -0.150 A  
HETATM   20  C   UNL     1      -8.799  15.609  68.262  1.00  0.00    -0.180 C  
HETATM   21  C   UNL     1      -8.834  16.609  67.111  1.00  0.00    -0.209 C  
HETATM   22  C   UNL     1     -10.521   9.982  70.052  1.00  0.00    -0.337 A  
HETATM   23  C   UNL     1     -11.690  10.567  69.576  1.00  0.00    -0.313 A  
HETATM   24  C   UNL     1      -9.563  16.090  65.880  1.00  0.00    -0.370 C  
HETATM   25  C   UNL     1     -10.916  15.466  66.215  1.00  0.00    -0.278 C  
HETATM   26  C   UNL     1     -11.631  11.550  68.586  1.00  0.00    -0.375 A  
ENDBRANCH   9  10
ENDBRANCH   8   9
ENDBRANCH   7   8
ENDBRANCH   3   7
ENDBRANCH   2   3
TORSDOF 6
ENDMDL
MODEL       55
REMARK 921   NORMALIZED FREE ENERGY PREDICTED BY IDOCK:   -4.65 KCAL/MOL
REMARK 922        TOTAL FREE ENERGY PREDICTED BY IDOCK:   -7.18 KCAL/MOL
REMARK 923 INTER-LIGAND FREE ENERGY PREDICTED BY IDOCK:   -6.49 KCAL/MOL
REMARK 924 INTRA-LIGAND FREE ENERGY PREDICTED BY IDOCK:   -0.69 KCAL/MOL
REMARK 927      BINDING AFFINITY PREDICTED BY RF-SCORE:    0.00 PKD
ROOT
HETATM    1  C   UNL     1      -9.443  19.766  66.374  1.00  0.00    -0.496 C  
HETATM    2  C   UNL     1      -8.639  19.664  67.659  1.00  0.00    -0.320 C  
ENDROOT
BRANCH   2   3
HETATM    3  N   UNL     1      -7.711  18.420  67.745  1.00  0.00    -0.230 N  
HETATM    4  C   UNL     1      -6.651  18.513  66.633  1.00  0.00    -0.186 C  
BRANCH   3   5
HETATM    5  C   UNL     1      -6.987  18.307  69.101  1.00  0.00    -0.217 C  
HETATM    6  C   UNL     1      -5.682  17.527  69.034  1.00  0.00    -0.185 C  
ENDBRANCH   3   5
BRANCH   3   7
HETATM    7  C   UNL     1      -8.616  17.200  67.472  1.00  0.00    -0.203 C  
BRANCH   7   8
HETATM    8  C   UNL     1      -8.242  16.344  66.259  1.00  0.00    -0.308 C  
BRANCH   8   9
HETATM    9  O   UNL     1      -8.332  14.985  66.710  1.00  0.00    -0.225 OA 
BRANCH   9  10
HETATM   10  C   UNL     1      -9.457  14.299  66.336  1.00  0.00    -0.275 C  
HETATM   11  O   UNL     1     -10.025  14.459  65.266  1.00  0.00    -0.356 OA 
HETATM   12  C   UNL     1      -9.957  13.422  67.530  1.00  0.00    -0.230 C  
HETATM   13  C   UNL     1      -9.532  11.975  67.266  1.00  0.00    -0.181 A  
HETATM   14  O   UNL     1      -9.324  13.859  68.742  1.00  0.00    -0.354 OA 
HETATM   15  C   UNL     1     -11.510  13.608  67.669  1.00  0.00    -0.357 C  
HETATM   16  H   UNL     1      -9.627  13.326  69.467  1.00  0.00     0.000 HD 
HETATM   17  C   UNL     1      -8.703  11.280  68.169  1.00  0.00    -0.155 A  
HETATM   18  C   UNL     1     -12.153  12.760  68.785  1.00  0.00    -0.165 C  
HETATM   19  C   UNL     1      -8.289   9.973  67.910  1.00  0.00    -0.117 A  
HETATM   20  C   UNL     1     -11.900  13.289  70.194  1.00  0.00    -0.333 C  
HETATM   21  C   UNL     1     -12.316  14.749  70.346  1.00  0.00    -0.402 C  
HETATM   22  C   UNL     1      -8.692   9.335  66.744  1.00  0.00    -0.138 A  
HETATM   23  C   UNL     1      -9.512   9.999  65.837  1.00  0.00    -0.260 A  
HETATM   24  C   UNL     1     -11.761  15.652  69.254  1.00  0.00    -0.388 C  
HETATM   25  C   UNL     1     -11.966  15.080  67.853  1.00  0.00    -0.140 C  
HETATM   26  C   UNL     1      -9.932  11.305  66.096  1.00  0.00    -0.268 A  
ENDBRANCH   9  10
ENDBRANCH   8   9
ENDBRANCH   7   8
ENDBRANCH   3   7
ENDBRANCH   2   3
TORSDOF 6
ENDMDL
MODEL       56
REMARK 921   NORMALIZED FREE ENERGY PREDICTED BY IDOCK:   -4.63 KCAL/MOL
REMARK 922        TOTAL FREE ENERGY PREDICTED BY IDOCK:   -7.15 KCAL/MOL
REMARK 923 INTER-LIGAND FREE ENERGY PREDICTED BY IDOCK:   -6.62 KCAL/MOL
REMARK 924 INTRA-LIGAND FREE ENERGY PREDICTED BY IDOCK:   -0.53 KCAL/MOL
REMARK 927      BINDING AFFINITY PREDICTED BY RF-SCORE:    0.00 PKD
ROOT
HETATM    1  C   UNL     1     -11.914  13.663  69.025  1.00  0.00    -0.392 C  
HETATM    2  C   UNL     1     -11.529  14.373  67.738  1.00  0.00    -0.336 C  
ENDROOT
BRANCH   2   3
HETATM    3  N   UNL     1     -11.518  13.465  66.477  1.00  0.00    -0.327 N  
HETATM    4  C   UNL     1     -12.701  13.856  65.572  1.00  0.00    -0.499 C  
BRANCH   3   5
HETATM    5  C   UNL     1     -10.217  13.592  65.660  1.00  0.00    -0.296 C  
HETATM    6  C   UNL     1      -9.474  14.899  65.891  1.00  0.00    -0.290 C  
ENDBRANCH   3   5
BRANCH   3   7
HETATM    7  C   UNL     1     -11.737  12.027  66.991  1.00  0.00    -0.267 C  
BRANCH   7   8
HETATM    8  C   UNL     1     -10.574  11.052  66.780  1.00  0.00    -0.266 C  
BRANCH   8   9
HETATM    9  O   UNL     1     -10.858   9.932  67.631  1.00  0.00    -0.274 OA 
BRANCH   9  10
HETATM   10  C   UNL     1      -9.808   9.455  68.369  1.00  0.00    -0.160 C  
HETATM   11  O   UNL     1      -8.799  10.102  68.611  1.00  0.00    -0.125 OA 
HETATM   12  C   UNL     1     -10.047   7.948  68.707  1.00  0.00    -0.193 C  
HETATM   13  C   UNL     1     -10.525   7.856  70.159  1.00  0.00    -0.231 A  
HETATM   14  O   UNL     1     -11.084   7.428  67.862  1.00  0.00    -0.481 OA 
HETATM   15  C   UNL     1      -8.718   7.159  68.429  1.00  0.00    -0.125 C  
HETATM   16  H   UNL     1     -11.229   6.511  68.067  1.00  0.00     0.000 HD 
HETATM   17  C   UNL     1     -11.770   7.281  70.484  1.00  0.00    -0.264 A  
HETATM   18  C   UNL     1      -8.790   5.655  68.764  1.00  0.00    -0.108 C  
HETATM   19  C   UNL     1     -12.219   7.230  71.804  1.00  0.00    -0.368 A  
HETATM   20  C   UNL     1      -9.569   4.827  67.747  1.00  0.00    -0.194 C  
HETATM   21  C   UNL     1      -9.046   5.017  66.327  1.00  0.00    -0.129 C  
HETATM   22  C   UNL     1     -11.436   7.753  72.824  1.00  0.00    -0.415 A  
HETATM   23  C   UNL     1     -10.202   8.324  72.530  1.00  0.00    -0.386 A  
HETATM   24  C   UNL     1      -8.898   6.479  65.928  1.00  0.00    -0.131 C  
HETATM   25  C   UNL     1      -8.172   7.308  66.985  1.00  0.00    -0.117 C  
HETATM   26  C   UNL     1      -9.748   8.373  71.211  1.00  0.00    -0.245 A  
ENDBRANCH   9  10
ENDBRANCH   8   9
ENDBRANCH   7   8
ENDBRANCH   3   7
ENDBRANCH   2   3
TORSDOF 6
ENDMDL
MODEL       57
REMARK 921   NORMALIZED FREE ENERGY PREDICTED BY IDOCK:   -4.61 KCAL/MOL
REMARK 922        TOTAL FREE ENERGY PREDICTED BY IDOCK:   -7.13 KCAL/MOL
REMARK 923 INTER-LIGAND FREE ENERGY PREDICTED BY IDOCK:   -6.52 KCAL/MOL
REMARK 924 INTRA-LIGAND FREE ENERGY PREDICTED BY IDOCK:   -0.61 KCAL/MOL
REMARK 927      BINDING AFFINITY PREDICTED BY RF-SCORE:    0.00 PKD
ROOT
HETATM    1  C   UNL     1     -11.970  12.861  63.615  1.00  0.00    -0.613 C  
HETATM    2  C   UNL     1     -12.247  12.668  65.096  1.00  0.00    -0.481 C  
ENDROOT
BRANCH   2   3
HETATM    3  N   UNL     1     -11.325  13.488  66.040  1.00  0.00    -0.308 N  
HETATM    4  C   UNL     1     -10.454  14.430  65.187  1.00  0.00    -0.415 C  
BRANCH   3   5
HETATM    5  C   UNL     1     -12.112  14.339  67.055  1.00  0.00    -0.390 C  
HETATM    6  C   UNL     1     -11.938  13.887  68.497  1.00  0.00    -0.394 C  
ENDBRANCH   3   5
BRANCH   3   7
HETATM    7  C   UNL     1     -10.412  12.458  66.737  1.00  0.00    -0.221 C  
BRANCH   7   8
HETATM    8  C   UNL     1     -10.735  10.985  66.471  1.00  0.00    -0.241 C  
BRANCH   8   9
HETATM    9  O   UNL     1     -10.849  10.382  67.768  1.00  0.00    -0.254 OA 
BRANCH   9  10
HETATM   10  C   UNL     1     -10.336   9.118  67.893  1.00  0.00    -0.232 C  
HETATM   11  O   UNL     1     -10.579   8.207  67.115  1.00  0.00    -0.322 OA 
HETATM   12  C   UNL     1      -9.539   9.005  69.232  1.00  0.00    -0.162 C  
HETATM   13  C   UNL     1      -8.045   9.095  68.906  1.00  0.00    -0.100 A  
HETATM   14  O   UNL     1      -9.876  10.111  70.083  1.00  0.00    -0.384 OA 
HETATM   15  C   UNL     1      -9.950   7.669  69.947  1.00  0.00    -0.190 C  
HETATM   16  H   UNL     1      -9.391  10.044  70.898  1.00  0.00     0.000 HD 
HETATM   17  C   UNL     1      -7.235  10.105  69.459  1.00  0.00    -0.115 A  
HETATM   18  C   UNL     1      -9.204   7.399  71.269  1.00  0.00    -0.153 C  
HETATM   19  C   UNL     1      -5.882  10.206  69.133  1.00  0.00    -0.037 A  
HETATM   20  C   UNL     1      -9.687   8.247  72.441  1.00  0.00    -0.373 C  
HETATM   21  C   UNL     1     -11.191   8.125  72.660  1.00  0.00    -0.447 C  
HETATM   22  C   UNL     1      -5.312   9.300  68.248  1.00  0.00    -0.037 A  
HETATM   23  C   UNL     1      -6.091   8.291  67.690  1.00  0.00    -0.051 A  
HETATM   24  C   UNL     1     -12.006   8.331  71.391  1.00  0.00    -0.333 C  
HETATM   25  C   UNL     1     -11.472   7.524  70.210  1.00  0.00    -0.173 C  
HETATM   26  C   UNL     1      -7.444   8.186  68.017  1.00  0.00    -0.097 A  
ENDBRANCH   9  10
ENDBRANCH   8   9
ENDBRANCH   7   8
ENDBRANCH   3   7
ENDBRANCH   2   3
TORSDOF 6
ENDMDL
MODEL       58
REMARK 921   NORMALIZED FREE ENERGY PREDICTED BY IDOCK:   -4.60 KCAL/MOL
REMARK 922        TOTAL FREE ENERGY PREDICTED BY IDOCK:   -7.12 KCAL/MOL
REMARK 923 INTER-LIGAND FREE ENERGY PREDICTED BY IDOCK:   -6.61 KCAL/MOL
REMARK 924 INTRA-LIGAND FREE ENERGY PREDICTED BY IDOCK:   -0.51 KCAL/MOL
REMARK 927      BINDING AFFINITY PREDICTED BY RF-SCORE:    0.00 PKD
ROOT
HETATM    1  C   UNL     1     -13.683   8.673  72.229  1.00  0.00    -0.445 C  
HETATM    2  C   UNL     1     -13.085   7.583  71.356  1.00  0.00    -0.325 C  
ENDROOT
BRANCH   2   3
HETATM    3  N   UNL     1     -11.544   7.430  71.477  1.00  0.00    -0.265 N  
HETATM    4  C   UNL     1     -11.153   7.504  72.965  1.00  0.00    -0.362 C  
BRANCH   3   5
HETATM    5  C   UNL     1     -11.028   6.096  70.904  1.00  0.00    -0.297 C  
HETATM    6  C   UNL     1     -10.355   5.205  71.937  1.00  0.00    -0.275 C  
ENDBRANCH   3   5
BRANCH   3   7
HETATM    7  C   UNL     1     -10.940   8.645  70.741  1.00  0.00    -0.245 C  
BRANCH   7   8
HETATM    8  C   UNL     1     -10.359   8.368  69.352  1.00  0.00    -0.215 C  
BRANCH   8   9
HETATM    9  O   UNL     1     -11.027   9.283  68.471  1.00  0.00    -0.122 OA 
BRANCH   9  10
HETATM   10  C   UNL     1     -10.336   9.654  67.349  1.00  0.00    -0.247 C  
HETATM   11  O   UNL     1     -10.049   8.885  66.443  1.00  0.00    -0.288 OA 
HETATM   12  C   UNL     1      -9.863  11.137  67.491  1.00  0.00    -0.177 C  
HETATM   13  C   UNL     1     -10.799  12.017  66.659  1.00  0.00    -0.311 A  
HETATM   14  O   UNL     1      -9.972  11.544  68.864  1.00  0.00    -0.325 OA 
HETATM   15  C   UNL     1      -8.357  11.224  67.052  1.00  0.00    -0.153 C  
HETATM   16  H   UNL     1      -9.684  12.445  68.951  1.00  0.00     0.000 HD 
HETATM   17  C   UNL     1     -11.543  13.057  67.250  1.00  0.00    -0.409 A  
HETATM   18  C   UNL     1      -7.764  12.647  67.096  1.00  0.00    -0.094 C  
HETATM   19  C   UNL     1     -12.422  13.835  66.496  1.00  0.00    -0.356 A  
HETATM   20  C   UNL     1      -7.447  13.146  68.503  1.00  0.00    -0.117 C  
HETATM   21  C   UNL     1      -6.544  12.183  69.267  1.00  0.00    -0.104 C  
HETATM   22  C   UNL     1     -12.576  13.590  65.137  1.00  0.00    -0.485 A  
HETATM   23  C   UNL     1     -11.850  12.570  64.529  1.00  0.00    -0.448 A  
HETATM   24  C   UNL     1      -7.033  10.742  69.235  1.00  0.00    -0.102 C  
HETATM   25  C   UNL     1      -7.406  10.277  67.828  1.00  0.00    -0.087 C  
HETATM   26  C   UNL     1     -10.967  11.793  65.281  1.00  0.00    -0.350 A  
ENDBRANCH   9  10
ENDBRANCH   8   9
ENDBRANCH   7   8
ENDBRANCH   3   7
ENDBRANCH   2   3
TORSDOF 6
ENDMDL
MODEL       59
REMARK 921   NORMALIZED FREE ENERGY PREDICTED BY IDOCK:   -4.59 KCAL/MOL
REMARK 922        TOTAL FREE ENERGY PREDICTED BY IDOCK:   -7.11 KCAL/MOL
REMARK 923 INTER-LIGAND FREE ENERGY PREDICTED BY IDOCK:   -6.17 KCAL/MOL
REMARK 924 INTRA-LIGAND FREE ENERGY PREDICTED BY IDOCK:   -0.94 KCAL/MOL
REMARK 927      BINDING AFFINITY PREDICTED BY RF-SCORE:    0.00 PKD
ROOT
HETATM    1  C   UNL     1     -12.330  13.675  65.543  1.00  0.00    -0.519 C  
HETATM    2  C   UNL     1     -12.156  13.974  67.022  1.00  0.00    -0.420 C  
ENDROOT
BRANCH   2   3
HETATM    3  N   UNL     1     -10.948  14.891  67.359  1.00  0.00    -0.305 N  
HETATM    4  C   UNL     1     -10.412  15.506  66.053  1.00  0.00    -0.323 C  
BRANCH   3   5
HETATM    5  C   UNL     1     -11.317  16.037  68.322  1.00  0.00    -0.326 C  
HETATM    6  C   UNL     1     -11.894  15.561  69.647  1.00  0.00    -0.384 C  
ENDBRANCH   3   5
BRANCH   3   7
HETATM    7  C   UNL     1      -9.868  13.964  67.955  1.00  0.00    -0.228 C  
BRANCH   7   8
HETATM    8  C   UNL     1      -8.935  13.286  66.948  1.00  0.00    -0.207 C  
BRANCH   8   9
HETATM    9  O   UNL     1      -8.579  12.031  67.546  1.00  0.00    -0.152 OA 
BRANCH   9  10
HETATM   10  C   UNL     1      -9.414  10.978  67.280  1.00  0.00    -0.164 C  
HETATM   11  O   UNL     1     -10.026  10.846  66.231  1.00  0.00    -0.211 OA 
HETATM   12  C   UNL     1      -9.560  10.090  68.558  1.00  0.00    -0.151 C  
HETATM   13  C   UNL     1      -8.677   8.852  68.380  1.00  0.00    -0.134 A  
HETATM   14  O   UNL     1      -9.085  10.816  69.702  1.00  0.00    -0.399 OA 
HETATM   15  C   UNL     1     -11.081   9.757  68.762  1.00  0.00    -0.140 C  
HETATM   16  H   UNL     1      -9.174  10.277  70.479  1.00  0.00     0.000 HD 
HETATM   17  C   UNL     1      -7.643   8.555  69.290  1.00  0.00    -0.095 A  
HETATM   18  C   UNL     1     -11.375   8.841  69.968  1.00  0.00    -0.040 C  
HETATM   19  C   UNL     1      -6.816   7.445  69.106  1.00  0.00    -0.060 A  
HETATM   20  C   UNL     1     -11.284   9.543  71.320  1.00  0.00    -0.452 C  
HETATM   21  C   UNL     1     -12.165  10.787  71.385  1.00  0.00    -0.374 C  
HETATM   22  C   UNL     1      -7.007   6.611  68.012  1.00  0.00    -0.080 A  
HETATM   23  C   UNL     1      -8.023   6.881  67.101  1.00  0.00    -0.113 A  
HETATM   24  C   UNL     1     -11.973  11.727  70.203  1.00  0.00    -0.421 C  
HETATM   25  C   UNL     1     -12.004  11.000  68.860  1.00  0.00    -0.332 C  
HETATM   26  C   UNL     1      -8.854   7.989  67.284  1.00  0.00    -0.135 A  
ENDBRANCH   9  10
ENDBRANCH   8   9
ENDBRANCH   7   8
ENDBRANCH   3   7
ENDBRANCH   2   3
TORSDOF 6
ENDMDL
MODEL       60
REMARK 921   NORMALIZED FREE ENERGY PREDICTED BY IDOCK:   -4.57 KCAL/MOL
REMARK 922        TOTAL FREE ENERGY PREDICTED BY IDOCK:   -7.07 KCAL/MOL
REMARK 923 INTER-LIGAND FREE ENERGY PREDICTED BY IDOCK:   -6.20 KCAL/MOL
REMARK 924 INTRA-LIGAND FREE ENERGY PREDICTED BY IDOCK:   -0.87 KCAL/MOL
REMARK 927      BINDING AFFINITY PREDICTED BY RF-SCORE:    0.00 PKD
ROOT
HETATM    1  C   UNL     1     -10.616   6.723  69.375  1.00  0.00    -0.265 C  
HETATM    2  C   UNL     1     -10.035   7.398  70.606  1.00  0.00    -0.186 C  
ENDROOT
BRANCH   2   3
HETATM    3  N   UNL     1     -11.089   8.032  71.555  1.00  0.00    -0.242 N  
HETATM    4  C   UNL     1     -12.490   7.550  71.133  1.00  0.00    -0.275 C  
BRANCH   3   5
HETATM    5  C   UNL     1     -10.868   7.654  73.032  1.00  0.00    -0.400 C  
HETATM    6  C   UNL     1     -10.620   6.170  73.255  1.00  0.00    -0.278 C  
ENDBRANCH   3   5
BRANCH   3   7
HETATM    7  C   UNL     1     -10.996   9.556  71.329  1.00  0.00    -0.370 C  
BRANCH   7   8
HETATM    8  C   UNL     1     -12.195  10.207  70.635  1.00  0.00    -0.302 C  
BRANCH   8   9
HETATM    9  O   UNL     1     -11.637  11.212  69.776  1.00  0.00    -0.275 OA 
BRANCH   9  10
HETATM   10  C   UNL     1     -11.268  10.797  68.523  1.00  0.00    -0.279 C  
HETATM   11  O   UNL     1     -11.641   9.748  68.019  1.00  0.00     0.052 OA 
HETATM   12  C   UNL     1     -10.210  11.785  67.934  1.00  0.00    -0.191 C  
HETATM   13  C   UNL     1     -10.920  12.701  66.933  1.00  0.00    -0.297 A  
HETATM   14  O   UNL     1      -9.681  12.603  68.989  1.00  0.00    -0.404 OA 
HETATM   15  C   UNL     1      -9.041  10.946  67.305  1.00  0.00    -0.146 C  
HETATM   16  H   UNL     1      -9.038  13.204  68.632  1.00  0.00     0.000 HD 
HETATM   17  C   UNL     1     -10.929  14.100  67.100  1.00  0.00    -0.304 A  
HETATM   18  C   UNL     1      -7.938  11.794  66.639  1.00  0.00    -0.070 C  
HETATM   19  C   UNL     1     -11.606  14.930  66.206  1.00  0.00    -0.233 A  
HETATM   20  C   UNL     1      -6.998  12.479  67.627  1.00  0.00    -0.139 C  
HETATM   21  C   UNL     1      -6.374  11.493  68.608  1.00  0.00    -0.054 C  
HETATM   22  C   UNL     1     -12.288  14.379  65.128  1.00  0.00    -0.383 A  
HETATM   23  C   UNL     1     -12.291  13.000  64.939  1.00  0.00    -0.512 A  
HETATM   24  C   UNL     1      -7.391  10.581  69.278  1.00  0.00    -0.113 C  
HETATM   25  C   UNL     1      -8.365   9.951  68.284  1.00  0.00    -0.110 C  
HETATM   26  C   UNL     1     -11.611  12.168  65.831  1.00  0.00    -0.425 A  
ENDBRANCH   9  10
ENDBRANCH   8   9
ENDBRANCH   7   8
ENDBRANCH   3   7
ENDBRANCH   2   3
TORSDOF 6
ENDMDL
MODEL       61
REMARK 921   NORMALIZED FREE ENERGY PREDICTED BY IDOCK:   -4.56 KCAL/MOL
REMARK 922        TOTAL FREE ENERGY PREDICTED BY IDOCK:   -7.06 KCAL/MOL
REMARK 923 INTER-LIGAND FREE ENERGY PREDICTED BY IDOCK:   -6.18 KCAL/MOL
REMARK 924 INTRA-LIGAND FREE ENERGY PREDICTED BY IDOCK:   -0.88 KCAL/MOL
REMARK 927      BINDING AFFINITY PREDICTED BY RF-SCORE:    0.00 PKD
ROOT
HETATM    1  C   UNL     1      -9.544   4.475  70.258  1.00  0.00    -0.263 C  
HETATM    2  C   UNL     1      -9.037   5.861  70.618  1.00  0.00    -0.149 C  
ENDROOT
BRANCH   2   3
HETATM    3  N   UNL     1     -10.038   7.013  70.324  1.00  0.00    -0.187 N  
HETATM    4  C   UNL     1     -11.433   6.408  70.084  1.00  0.00    -0.417 C  
BRANCH   3   5
HETATM    5  C   UNL     1     -10.138   8.028  71.479  1.00  0.00    -0.180 C  
HETATM    6  C   UNL     1     -10.222   9.475  71.017  1.00  0.00    -0.332 C  
ENDBRANCH   3   5
BRANCH   3   7
HETATM    7  C   UNL     1      -9.548   7.673  69.018  1.00  0.00    -0.151 C  
BRANCH   7   8
HETATM    8  C   UNL     1     -10.367   7.365  67.761  1.00  0.00    -0.213 C  
BRANCH   8   9
HETATM    9  O   UNL     1     -10.771   8.643  67.249  1.00  0.00    -0.271 OA 
BRANCH   9  10
HETATM   10  C   UNL     1      -9.929   9.220  66.336  1.00  0.00    -0.286 C  
HETATM   11  O   UNL     1      -9.320   8.592  65.482  1.00  0.00    -0.159 OA 
HETATM   12  C   UNL     1      -9.770  10.741  66.658  1.00  0.00    -0.190 C  
HETATM   13  C   UNL     1     -10.644  11.529  65.679  1.00  0.00    -0.326 A  
HETATM   14  O   UNL     1     -10.246  11.000  67.988  1.00  0.00    -0.171 OA 
HETATM   15  C   UNL     1      -8.245  11.110  66.582  1.00  0.00    -0.158 C  
HETATM   16  H   UNL     1     -10.150  11.924  68.185  1.00  0.00     0.000 HD 
HETATM   17  C   UNL     1     -11.672  12.378  66.136  1.00  0.00    -0.460 A  
HETATM   18  C   UNL     1      -7.939  12.600  66.834  1.00  0.00     0.019 C  
HETATM   19  C   UNL     1     -12.490  13.068  65.240  1.00  0.00    -0.555 A  
HETATM   20  C   UNL     1      -8.030  13.016  68.300  1.00  0.00    -0.151 C  
HETATM   21  C   UNL     1      -7.159  12.147  69.200  1.00  0.00    -0.015 C  
HETATM   22  C   UNL     1     -12.299  12.924  63.872  1.00  0.00    -0.476 A  
HETATM   23  C   UNL     1     -11.288  12.094  63.396  1.00  0.00    -0.495 A  
HETATM   24  C   UNL     1      -7.363  10.654  68.983  1.00  0.00    -0.108 C  
HETATM   25  C   UNL     1      -7.333  10.263  67.507  1.00  0.00    -0.089 C  
HETATM   26  C   UNL     1     -10.466  11.405  64.290  1.00  0.00    -0.401 A  
ENDBRANCH   9  10
ENDBRANCH   8   9
ENDBRANCH   7   8
ENDBRANCH   3   7
ENDBRANCH   2   3
TORSDOF 6
ENDMDL
MODEL       62
REMARK 921   NORMALIZED FREE ENERGY PREDICTED BY IDOCK:   -4.53 KCAL/MOL
REMARK 922        TOTAL FREE ENERGY PREDICTED BY IDOCK:   -7.02 KCAL/MOL
REMARK 923 INTER-LIGAND FREE ENERGY PREDICTED BY IDOCK:   -6.50 KCAL/MOL
REMARK 924 INTRA-LIGAND FREE ENERGY PREDICTED BY IDOCK:   -0.52 KCAL/MOL
REMARK 927      BINDING AFFINITY PREDICTED BY RF-SCORE:    0.00 PKD
ROOT
HETATM    1  C   UNL     1     -11.186   6.316  69.272  1.00  0.00    -0.458 C  
HETATM    2  C   UNL     1     -10.434   7.216  70.237  1.00  0.00    -0.217 C  
ENDROOT
BRANCH   2   3
HETATM    3  N   UNL     1     -11.338   8.023  71.209  1.00  0.00    -0.259 N  
HETATM    4  C   UNL     1     -12.707   7.325  71.307  1.00  0.00    -0.359 C  
BRANCH   3   5
HETATM    5  C   UNL     1     -10.744   8.133  72.626  1.00  0.00    -0.351 C  
HETATM    6  C   UNL     1     -10.618   6.797  73.343  1.00  0.00    -0.351 C  
ENDBRANCH   3   5
BRANCH   3   7
HETATM    7  C   UNL     1     -11.530   9.407  70.555  1.00  0.00    -0.262 C  
BRANCH   7   8
HETATM    8  C   UNL     1     -10.268  10.064  69.988  1.00  0.00    -0.255 C  
BRANCH   8   9
HETATM    9  O   UNL     1     -10.670  10.642  68.738  1.00  0.00    -0.188 OA 
BRANCH   9  10
HETATM   10  C   UNL     1      -9.755  11.461  68.130  1.00  0.00    -0.192 C  
HETATM   11  O   UNL     1      -8.908  12.100  68.737  1.00  0.00    -0.044 OA 
HETATM   12  C   UNL     1     -10.065  11.550  66.601  1.00  0.00    -0.210 C  
HETATM   13  C   UNL     1      -9.076  10.645  65.861  1.00  0.00    -0.201 A  
HETATM   14  O   UNL     1     -11.391  11.058  66.354  1.00  0.00    -0.186 OA 
HETATM   15  C   UNL     1      -9.990  13.057  66.165  1.00  0.00    -0.278 C  
HETATM   16  H   UNL     1     -11.580  11.112  65.424  1.00  0.00     0.000 HD 
HETATM   17  C   UNL     1      -9.522   9.578  65.057  1.00  0.00    -0.273 A  
HETATM   18  C   UNL     1     -10.231  13.295  64.660  1.00  0.00    -0.334 C  
HETATM   19  C   UNL     1      -8.619   8.733  64.411  1.00  0.00    -0.110 A  
HETATM   20  C   UNL     1     -11.693  13.180  64.237  1.00  0.00    -0.447 C  
HETATM   21  C   UNL     1     -12.604  14.086  65.059  1.00  0.00    -0.416 C  
HETATM   22  C   UNL     1      -7.252   8.936  64.558  1.00  0.00    -0.097 A  
HETATM   23  C   UNL     1      -6.787   9.984  65.345  1.00  0.00    -0.122 A  
HETATM   24  C   UNL     1     -12.398  13.950  66.561  1.00  0.00    -0.447 C  
HETATM   25  C   UNL     1     -10.926  14.003  66.962  1.00  0.00    -0.302 C  
HETATM   26  C   UNL     1      -7.689  10.834  65.989  1.00  0.00    -0.139 A  
ENDBRANCH   9  10
ENDBRANCH   8   9
ENDBRANCH   7   8
ENDBRANCH   3   7
ENDBRANCH   2   3
TORSDOF 6
ENDMDL
MODEL       63
REMARK 921   NORMALIZED FREE ENERGY PREDICTED BY IDOCK:   -4.52 KCAL/MOL
REMARK 922        TOTAL FREE ENERGY PREDICTED BY IDOCK:   -7.01 KCAL/MOL
REMARK 923 INTER-LIGAND FREE ENERGY PREDICTED BY IDOCK:   -6.05 KCAL/MOL
REMARK 924 INTRA-LIGAND FREE ENERGY PREDICTED BY IDOCK:   -0.96 KCAL/MOL
REMARK 927      BINDING AFFINITY PREDICTED BY RF-SCORE:    0.00 PKD
ROOT
HETATM    1  C   UNL     1     -11.985  15.946  71.920  1.00  0.00    -0.588 C  
HETATM    2  C   UNL     1     -12.590  15.686  70.551  1.00  0.00    -0.379 C  
ENDROOT
BRANCH   2   3
HETATM    3  N   UNL     1     -11.563  15.286  69.456  1.00  0.00    -0.300 N  
HETATM    4  C   UNL     1     -11.747  16.216  68.242  1.00  0.00    -0.074 C  
BRANCH   3   5
HETATM    5  C   UNL     1     -10.103  15.393  69.936  1.00  0.00    -0.240 C  
HETATM    6  C   UNL     1      -9.104  15.622  68.811  1.00  0.00    -0.208 C  
ENDBRANCH   3   5
BRANCH   3   7
HETATM    7  C   UNL     1     -11.929  13.846  69.040  1.00  0.00    -0.364 C  
BRANCH   7   8
HETATM    8  C   UNL     1     -11.555  12.744  70.035  1.00  0.00    -0.120 C  
BRANCH   8   9
HETATM    9  O   UNL     1     -11.379  11.561  69.243  1.00  0.00    -0.244 OA 
BRANCH   9  10
HETATM   10  C   UNL     1     -10.143  11.394  68.675  1.00  0.00    -0.210 C  
HETATM   11  O   UNL     1      -9.106  11.805  69.174  1.00  0.00     0.162 OA 
HETATM   12  C   UNL     1     -10.299  10.745  67.262  1.00  0.00    -0.220 C  
HETATM   13  C   UNL     1      -9.950   9.259  67.379  1.00  0.00    -0.253 A  
HETATM   14  O   UNL     1     -11.667  10.849  66.836  1.00  0.00    -0.255 OA 
HETATM   15  C   UNL     1      -9.389  11.530  66.250  1.00  0.00    -0.227 C  
HETATM   16  H   UNL     1     -11.762  10.455  65.977  1.00  0.00     0.000 HD 
HETATM   17  C   UNL     1     -10.883   8.259  67.039  1.00  0.00    -0.061 A  
HETATM   18  C   UNL     1      -9.406  10.969  64.814  1.00  0.00    -0.239 C  
HETATM   19  C   UNL     1     -10.574   6.906  67.180  1.00  0.00    -0.408 A  
HETATM   20  C   UNL     1     -10.672  11.301  64.030  1.00  0.00    -0.444 C  
HETATM   21  C   UNL     1     -10.958  12.799  64.005  1.00  0.00    -0.454 C  
HETATM   22  C   UNL     1      -9.330   6.524  67.664  1.00  0.00    -0.118 A  
HETATM   23  C   UNL     1      -8.390   7.492  68.003  1.00  0.00    -0.124 A  
HETATM   24  C   UNL     1     -10.915  13.446  65.382  1.00  0.00    -0.297 C  
HETATM   25  C   UNL     1      -9.673  13.053  66.180  1.00  0.00    -0.255 C  
HETATM   26  C   UNL     1      -8.694   8.847  67.860  1.00  0.00    -0.129 A  
ENDBRANCH   9  10
ENDBRANCH   8   9
ENDBRANCH   7   8
ENDBRANCH   3   7
ENDBRANCH   2   3
TORSDOF 6
ENDMDL
MODEL       64
REMARK 921   NORMALIZED FREE ENERGY PREDICTED BY IDOCK:   -4.46 KCAL/MOL
REMARK 922        TOTAL FREE ENERGY PREDICTED BY IDOCK:   -6.93 KCAL/MOL
REMARK 923 INTER-LIGAND FREE ENERGY PREDICTED BY IDOCK:   -6.04 KCAL/MOL
REMARK 924 INTRA-LIGAND FREE ENERGY PREDICTED BY IDOCK:   -0.89 KCAL/MOL
REMARK 927      BINDING AFFINITY PREDICTED BY RF-SCORE:    0.00 PKD
ROOT
HETATM    1  C   UNL     1     -11.977  13.990  67.838  1.00  0.00    -0.387 C  
HETATM    2  C   UNL     1     -11.201  13.059  68.753  1.00  0.00    -0.282 C  
ENDROOT
BRANCH   2   3
HETATM    3  N   UNL     1     -10.759  11.723  68.094  1.00  0.00    -0.204 N  
HETATM    4  C   UNL     1     -11.134  11.759  66.601  1.00  0.00    -0.310 C  
BRANCH   3   5
HETATM    5  C   UNL     1      -9.243  11.472  68.210  1.00  0.00    -0.186 C  
HETATM    6  C   UNL     1      -8.394  12.701  67.921  1.00  0.00    -0.172 C  
ENDBRANCH   3   5
BRANCH   3   7
HETATM    7  C   UNL     1     -11.581  10.618  68.789  1.00  0.00    -0.239 C  
BRANCH   7   8
HETATM    8  C   UNL     1     -11.985  10.892  70.240  1.00  0.00    -0.361 C  
BRANCH   8   9
HETATM    9  O   UNL     1     -11.128  10.060  71.036  1.00  0.00    -0.343 OA 
BRANCH   9  10
HETATM   10  C   UNL     1     -11.416   8.721  71.035  1.00  0.00    -0.285 C  
HETATM   11  O   UNL     1     -12.532   8.268  71.241  1.00  0.00    -0.303 OA 
HETATM   12  C   UNL     1     -10.095   7.901  70.883  1.00  0.00    -0.190 C  
HETATM   13  C   UNL     1      -9.997   7.423  69.431  1.00  0.00    -0.176 A  
HETATM   14  O   UNL     1      -8.970   8.753  71.148  1.00  0.00    -0.182 OA 
HETATM   15  C   UNL     1     -10.109   6.733  71.933  1.00  0.00    -0.195 C  
HETATM   16  H   UNL     1      -8.167   8.254  71.055  1.00  0.00     0.000 HD 
HETATM   17  C   UNL     1      -8.905   7.780  68.616  1.00  0.00    -0.131 A  
HETATM   18  C   UNL     1      -8.880   5.804  71.867  1.00  0.00    -0.139 C  
HETATM   19  C   UNL     1      -8.835   7.372  67.283  1.00  0.00    -0.124 A  
HETATM   20  C   UNL     1      -7.611   6.408  72.462  1.00  0.00    -0.100 C  
HETATM   21  C   UNL     1      -7.819   6.893  73.893  1.00  0.00    -0.118 C  
HETATM   22  C   UNL     1      -9.854   6.601  66.739  1.00  0.00    -0.227 A  
HETATM   23  C   UNL     1     -10.942   6.233  67.525  1.00  0.00    -0.444 A  
HETATM   24  C   UNL     1      -9.044   7.781  74.059  1.00  0.00    -0.226 C  
HETATM   25  C   UNL     1     -10.292   7.193  73.403  1.00  0.00    -0.391 C  
HETATM   26  C   UNL     1     -11.012   6.636  68.859  1.00  0.00    -0.325 A  
ENDBRANCH   9  10
ENDBRANCH   8   9
ENDBRANCH   7   8
ENDBRANCH   3   7
ENDBRANCH   2   3
TORSDOF 6
ENDMDL
MODEL       65
REMARK 921   NORMALIZED FREE ENERGY PREDICTED BY IDOCK:   -4.43 KCAL/MOL
REMARK 922        TOTAL FREE ENERGY PREDICTED BY IDOCK:   -6.89 KCAL/MOL
REMARK 923 INTER-LIGAND FREE ENERGY PREDICTED BY IDOCK:   -6.27 KCAL/MOL
REMARK 924 INTRA-LIGAND FREE ENERGY PREDICTED BY IDOCK:   -0.62 KCAL/MOL
REMARK 927      BINDING AFFINITY PREDICTED BY RF-SCORE:    0.00 PKD
ROOT
HETATM    1  C   UNL     1      -8.687   9.956  64.751  1.00  0.00    -0.210 C  
HETATM    2  C   UNL     1      -8.727  11.103  65.748  1.00  0.00    -0.150 C  
ENDROOT
BRANCH   2   3
HETATM    3  N   UNL     1      -9.893  11.031  66.771  1.00  0.00    -0.193 N  
HETATM    4  C   UNL     1     -10.658   9.711  66.560  1.00  0.00    -0.072 C  
BRANCH   3   5
HETATM    5  C   UNL     1      -9.411  11.086  68.233  1.00  0.00    -0.172 C  
HETATM    6  C   UNL     1      -7.903  11.228  68.376  1.00  0.00    -0.136 C  
ENDBRANCH   3   5
BRANCH   3   7
HETATM    7  C   UNL     1     -10.828  12.210  66.428  1.00  0.00    -0.271 C  
BRANCH   7   8
HETATM    8  C   UNL     1     -10.302  13.205  65.390  1.00  0.00    -0.301 C  
BRANCH   8   9
HETATM    9  O   UNL     1     -10.511  14.502  65.967  1.00  0.00    -0.288 OA 
BRANCH   9  10
HETATM   10  C   UNL     1      -9.707  14.826  67.028  1.00  0.00    -0.237 C  
HETATM   11  O   UNL     1      -8.579  14.384  67.184  1.00  0.00    -0.202 OA 
HETATM   12  C   UNL     1     -10.508  15.705  68.043  1.00  0.00    -0.263 C  
HETATM   13  C   UNL     1     -10.080  17.162  67.851  1.00  0.00    -0.308 A  
HETATM   14  O   UNL     1     -11.911  15.611  67.753  1.00  0.00    -0.235 OA 
HETATM   15  C   UNL     1     -10.248  15.156  69.491  1.00  0.00    -0.241 C  
HETATM   16  H   UNL     1     -12.398  16.145  68.370  1.00  0.00     0.000 HD 
HETATM   17  C   UNL     1     -11.013  18.160  67.506  1.00  0.00    -0.123 A  
HETATM   18  C   UNL     1     -10.942  15.959  70.609  1.00  0.00    -0.312 C  
HETATM   19  C   UNL     1     -10.615  19.481  67.298  1.00  0.00    -0.610 A  
HETATM   20  C   UNL     1     -12.444  15.709  70.716  1.00  0.00    -0.484 C  
HETATM   21  C   UNL     1     -12.772  14.227  70.862  1.00  0.00    -0.427 C  
HETATM   22  C   UNL     1      -9.277  19.831  67.428  1.00  0.00    -0.433 A  
HETATM   23  C   UNL     1      -8.336  18.865  67.771  1.00  0.00    -0.305 A  
HETATM   24  C   UNL     1     -12.088  13.351  69.822  1.00  0.00    -0.374 C  
HETATM   25  C   UNL     1     -10.598  13.656  69.682  1.00  0.00     0.328 C  
HETATM   26  C   UNL     1      -8.733  17.544  67.984  1.00  0.00    -0.254 A  
ENDBRANCH   9  10
ENDBRANCH   8   9
ENDBRANCH   7   8
ENDBRANCH   3   7
ENDBRANCH   2   3
TORSDOF 6
ENDMDL
MODEL       66
REMARK 921   NORMALIZED FREE ENERGY PREDICTED BY IDOCK:   -4.42 KCAL/MOL
REMARK 922        TOTAL FREE ENERGY PREDICTED BY IDOCK:   -6.88 KCAL/MOL
REMARK 923 INTER-LIGAND FREE ENERGY PREDICTED BY IDOCK:   -5.94 KCAL/MOL
REMARK 924 INTRA-LIGAND FREE ENERGY PREDICTED BY IDOCK:   -0.94 KCAL/MOL
REMARK 927      BINDING AFFINITY PREDICTED BY RF-SCORE:    0.00 PKD
ROOT
HETATM    1  C   UNL     1      -8.410   5.548  70.882  1.00  0.00    -0.120 C  
HETATM    2  C   UNL     1      -9.848   6.000  71.075  1.00  0.00    -0.183 C  
ENDROOT
BRANCH   2   3
HETATM    3  N   UNL     1     -10.174   6.527  72.500  1.00  0.00    -0.181 N  
HETATM    4  C   UNL     1     -11.100   5.517  73.202  1.00  0.00    -0.287 C  
BRANCH   3   5
HETATM    5  C   UNL     1      -8.917   6.723  73.369  1.00  0.00    -0.129 C  
HETATM    6  C   UNL     1      -8.586   8.181  73.648  1.00  0.00    -0.312 C  
ENDBRANCH   3   5
BRANCH   3   7
HETATM    7  C   UNL     1     -10.943   7.849  72.294  1.00  0.00    -0.300 C  
BRANCH   7   8
HETATM    8  C   UNL     1     -11.460   8.113  70.877  1.00  0.00    -0.271 C  
BRANCH   8   9
HETATM    9  O   UNL     1     -11.083   9.466  70.581  1.00  0.00    -0.248 OA 
BRANCH   9  10
HETATM   10  C   UNL     1      -9.917   9.628  69.881  1.00  0.00    -0.241 C  
HETATM   11  O   UNL     1      -8.839   9.869  70.405  1.00  0.00    -0.141 OA 
HETATM   12  C   UNL     1     -10.218   9.603  68.348  1.00  0.00    -0.188 C  
HETATM   13  C   UNL     1      -9.825   8.225  67.808  1.00  0.00    -0.214 A  
HETATM   14  O   UNL     1     -11.626   9.780  68.135  1.00  0.00    -0.527 OA 
HETATM   15  C   UNL     1      -9.446  10.791  67.669  1.00  0.00    -0.166 C  
HETATM   16  H   UNL     1     -11.810   9.765  67.203  1.00  0.00     0.000 HD 
HETATM   17  C   UNL     1     -10.768   7.391  67.176  1.00  0.00    -0.400 A  
HETATM   18  C   UNL     1      -9.613  10.865  66.138  1.00  0.00    -0.239 C  
HETATM   19  C   UNL     1     -10.416   6.122  66.716  1.00  0.00    -0.316 A  
HETATM   20  C   UNL     1     -10.967  11.402  65.684  1.00  0.00    -0.254 C  
HETATM   21  C   UNL     1     -11.287  12.757  66.307  1.00  0.00    -0.365 C  
HETATM   22  C   UNL     1      -9.116   5.660  66.879  1.00  0.00    -0.116 A  
HETATM   23  C   UNL     1      -8.165   6.466  67.498  1.00  0.00    -0.117 A  
HETATM   24  C   UNL     1     -11.103  12.788  67.818  1.00  0.00    -0.289 C  
HETATM   25  C   UNL     1      -9.770  12.188  68.261  1.00  0.00    -0.216 C  
HETATM   26  C   UNL     1      -8.514   7.738  67.956  1.00  0.00    -0.123 A  
ENDBRANCH   9  10
ENDBRANCH   8   9
ENDBRANCH   7   8
ENDBRANCH   3   7
ENDBRANCH   2   3
TORSDOF 6
ENDMDL
MODEL       67
REMARK 921   NORMALIZED FREE ENERGY PREDICTED BY IDOCK:   -4.37 KCAL/MOL
REMARK 922        TOTAL FREE ENERGY PREDICTED BY IDOCK:   -6.81 KCAL/MOL
REMARK 923 INTER-LIGAND FREE ENERGY PREDICTED BY IDOCK:   -6.47 KCAL/MOL
REMARK 924 INTRA-LIGAND FREE ENERGY PREDICTED BY IDOCK:   -0.34 KCAL/MOL
REMARK 927      BINDING AFFINITY PREDICTED BY RF-SCORE:    0.00 PKD
ROOT
HETATM    1  C   UNL     1      -9.467   7.652  73.284  1.00  0.00    -0.317 C  
HETATM    2  C   UNL     1     -10.966   7.820  73.105  1.00  0.00    -0.310 C  
ENDROOT
BRANCH   2   3
HETATM    3  N   UNL     1     -11.410   8.178  71.661  1.00  0.00    -0.253 N  
HETATM    4  C   UNL     1     -11.319   6.915  70.785  1.00  0.00    -0.310 C  
BRANCH   3   5
HETATM    5  C   UNL     1     -12.853   8.715  71.593  1.00  0.00    -0.345 C  
HETATM    6  C   UNL     1     -12.955  10.221  71.785  1.00  0.00    -0.574 C  
ENDBRANCH   3   5
BRANCH   3   7
HETATM    7  C   UNL     1     -10.386   9.214  71.150  1.00  0.00    -0.317 C  
BRANCH   7   8
HETATM    8  C   UNL     1     -10.199   9.283  69.632  1.00  0.00    -0.208 C  
BRANCH   8   9
HETATM    9  O   UNL     1     -10.309  10.675  69.299  1.00  0.00    -0.207 OA 
BRANCH   9  10
HETATM   10  C   UNL     1     -10.692  10.959  68.015  1.00  0.00    -0.220 C  
HETATM   11  O   UNL     1     -11.848  10.896  67.622  1.00  0.00    -0.572 OA 
HETATM   12  C   UNL     1      -9.426  11.219  67.136  1.00  0.00    -0.170 C  
HETATM   13  C   UNL     1      -9.279  12.731  66.949  1.00  0.00    -0.229 A  
HETATM   14  O   UNL     1      -8.261  10.739  67.823  1.00  0.00    -0.111 OA 
HETATM   15  C   UNL     1      -9.585  10.428  65.788  1.00  0.00    -0.269 C  
HETATM   16  H   UNL     1      -7.491  10.897  67.289  1.00  0.00     0.000 HD 
HETATM   17  C   UNL     1      -8.120  13.411  67.370  1.00  0.00    -0.178 A  
HETATM   18  C   UNL     1      -8.423  10.628  64.794  1.00  0.00    -0.102 C  
HETATM   19  C   UNL     1      -8.002  14.794  67.231  1.00  0.00    -0.232 A  
HETATM   20  C   UNL     1      -7.151   9.870  65.161  1.00  0.00    -0.129 C  
HETATM   21  C   UNL     1      -7.406   8.381  65.368  1.00  0.00    -0.084 C  
HETATM   22  C   UNL     1      -9.041  15.526  66.669  1.00  0.00    -0.310 A  
HETATM   23  C   UNL     1     -10.195  14.877  66.242  1.00  0.00    -0.306 A  
HETATM   24  C   UNL     1      -8.572   8.091  66.303  1.00  0.00    -0.156 C  
HETATM   25  C   UNL     1      -9.819   8.904  65.961  1.00  0.00    -0.277 C  
HETATM   26  C   UNL     1     -10.313  13.493  66.377  1.00  0.00    -0.289 A  
ENDBRANCH   9  10
ENDBRANCH   8   9
ENDBRANCH   7   8
ENDBRANCH   3   7
ENDBRANCH   2   3
TORSDOF 6
ENDMDL
MODEL       68
REMARK 921   NORMALIZED FREE ENERGY PREDICTED BY IDOCK:   -4.36 KCAL/MOL
REMARK 922        TOTAL FREE ENERGY PREDICTED BY IDOCK:   -6.80 KCAL/MOL
REMARK 923 INTER-LIGAND FREE ENERGY PREDICTED BY IDOCK:   -6.25 KCAL/MOL
REMARK 924 INTRA-LIGAND FREE ENERGY PREDICTED BY IDOCK:   -0.55 KCAL/MOL
REMARK 927      BINDING AFFINITY PREDICTED BY RF-SCORE:    0.00 PKD
ROOT
HETATM    1  C   UNL     1     -11.784  14.976  67.937  1.00  0.00    -0.310 C  
HETATM    2  C   UNL     1     -10.779  14.204  67.098  1.00  0.00    -0.280 C  
ENDROOT
BRANCH   2   3
HETATM    3  N   UNL     1     -11.399  13.390  65.930  1.00  0.00    -0.305 N  
HETATM    4  C   UNL     1     -12.716  14.063  65.500  1.00  0.00    -0.486 C  
BRANCH   3   5
HETATM    5  C   UNL     1     -10.473  13.302  64.703  1.00  0.00    -0.402 C  
HETATM    6  C   UNL     1     -10.918  12.276  63.671  1.00  0.00    -0.532 C  
ENDBRANCH   3   5
BRANCH   3   7
HETATM    7  C   UNL     1     -11.719  11.996  66.512  1.00  0.00    -0.256 C  
BRANCH   7   8
HETATM    8  C   UNL     1     -10.553  11.264  67.182  1.00  0.00    -0.235 C  
BRANCH   8   9
HETATM    9  O   UNL     1     -11.161  10.317  68.072  1.00  0.00    -0.283 OA 
BRANCH   9  10
HETATM   10  C   UNL     1     -10.580   9.077  68.121  1.00  0.00    -0.171 C  
HETATM   11  O   UNL     1     -10.812   8.187  67.317  1.00  0.00    -0.248 OA 
HETATM   12  C   UNL     1      -9.719   8.953  69.420  1.00  0.00    -0.169 C  
HETATM   13  C   UNL     1      -8.248   9.132  69.035  1.00  0.00    -0.115 A  
HETATM   14  O   UNL     1     -10.074  10.005  70.330  1.00  0.00    -0.367 OA 
HETATM   15  C   UNL     1     -10.032   7.569  70.094  1.00  0.00    -0.192 C  
HETATM   16  H   UNL     1      -9.551   9.930  71.120  1.00  0.00     0.000 HD 
HETATM   17  C   UNL     1      -7.466  10.161  69.596  1.00  0.00    -0.147 A  
HETATM   18  C   UNL     1      -9.215   7.286  71.371  1.00  0.00    -0.145 C  
HETATM   19  C   UNL     1      -6.135  10.344  69.217  1.00  0.00    -0.038 A  
HETATM   20  C   UNL     1      -9.687   8.061  72.598  1.00  0.00    -0.332 C  
HETATM   21  C   UNL     1     -11.172   7.852  72.875  1.00  0.00    -0.429 C  
HETATM   22  C   UNL     1      -5.561   9.505  68.271  1.00  0.00    -0.037 A  
HETATM   23  C   UNL     1      -6.312   8.480  67.705  1.00  0.00    -0.053 A  
HETATM   24  C   UNL     1     -12.052   8.066  71.651  1.00  0.00    -0.339 C  
HETATM   25  C   UNL     1     -11.531   7.335  70.415  1.00  0.00    -0.279 C  
HETATM   26  C   UNL     1      -7.642   8.292  68.084  1.00  0.00    -0.098 A  
ENDBRANCH   9  10
ENDBRANCH   8   9
ENDBRANCH   7   8
ENDBRANCH   3   7
ENDBRANCH   2   3
TORSDOF 6
ENDMDL
MODEL       69
REMARK 921   NORMALIZED FREE ENERGY PREDICTED BY IDOCK:   -4.36 KCAL/MOL
REMARK 922        TOTAL FREE ENERGY PREDICTED BY IDOCK:   -6.79 KCAL/MOL
REMARK 923 INTER-LIGAND FREE ENERGY PREDICTED BY IDOCK:   -5.54 KCAL/MOL
REMARK 924 INTRA-LIGAND FREE ENERGY PREDICTED BY IDOCK:   -1.25 KCAL/MOL
REMARK 927      BINDING AFFINITY PREDICTED BY RF-SCORE:    0.00 PKD
ROOT
HETATM    1  C   UNL     1      -7.306   6.303  71.775  1.00  0.00    -0.093 C  
HETATM    2  C   UNL     1      -7.141   5.364  70.592  1.00  0.00    -0.061 C  
ENDROOT
BRANCH   2   3
HETATM    3  N   UNL     1      -7.816   5.851  69.280  1.00  0.00    -0.093 N  
HETATM    4  C   UNL     1      -6.944   5.424  68.085  1.00  0.00    -0.061 C  
BRANCH   3   5
HETATM    5  C   UNL     1      -9.230   5.271  69.084  1.00  0.00    -0.118 C  
HETATM    6  C   UNL     1      -9.485   3.997  69.876  1.00  0.00    -0.265 C  
ENDBRANCH   3   5
BRANCH   3   7
HETATM    7  C   UNL     1      -7.832   7.392  69.361  1.00  0.00    -0.122 C  
BRANCH   7   8
HETATM    8  C   UNL     1      -7.852   8.135  68.022  1.00  0.00    -0.122 C  
BRANCH   8   9
HETATM    9  O   UNL     1      -8.670   9.293  68.244  1.00  0.00    -0.128 OA 
BRANCH   9  10
HETATM   10  C   UNL     1     -10.019   9.071  68.327  1.00  0.00    -0.173 C  
HETATM   11  O   UNL     1     -10.663   8.480  67.473  1.00  0.00    -0.248 OA 
HETATM   12  C   UNL     1     -10.595   9.807  69.580  1.00  0.00    -0.233 C  
HETATM   13  C   UNL     1     -10.810   8.769  70.684  1.00  0.00    -0.273 A  
HETATM   14  O   UNL     1      -9.638  10.768  70.051  1.00  0.00    -0.283 OA 
HETATM   15  C   UNL     1     -11.906  10.560  69.156  1.00  0.00    -0.218 C  
HETATM   16  H   UNL     1      -9.987  11.215  70.813  1.00  0.00     0.000 HD 
HETATM   17  C   UNL     1     -10.164   8.883  71.931  1.00  0.00    -0.403 A  
HETATM   18  C   UNL     1     -12.615  11.299  70.310  1.00  0.00    -0.255 C  
HETATM   19  C   UNL     1     -10.335   7.916  72.924  1.00  0.00    -0.413 A  
HETATM   20  C   UNL     1     -11.932  12.596  70.732  1.00  0.00    -0.081 C  
HETATM   21  C   UNL     1     -11.723  13.547  69.557  1.00  0.00    -0.382 C  
HETATM   22  C   UNL     1     -11.152   6.818  72.690  1.00  0.00    -0.301 A  
HETATM   23  C   UNL     1     -11.804   6.685  71.468  1.00  0.00    -0.387 A  
HETATM   24  C   UNL     1     -11.069  12.885  68.353  1.00  0.00    -0.293 C  
HETATM   25  C   UNL     1     -11.724  11.556  67.981  1.00  0.00    -0.343 C  
HETATM   26  C   UNL     1     -11.638   7.651  70.475  1.00  0.00    -0.195 A  
ENDBRANCH   9  10
ENDBRANCH   8   9
ENDBRANCH   7   8
ENDBRANCH   3   7
ENDBRANCH   2   3
TORSDOF 6
ENDMDL
MODEL       70
REMARK 921   NORMALIZED FREE ENERGY PREDICTED BY IDOCK:   -4.36 KCAL/MOL
REMARK 922        TOTAL FREE ENERGY PREDICTED BY IDOCK:   -6.79 KCAL/MOL
REMARK 923 INTER-LIGAND FREE ENERGY PREDICTED BY IDOCK:   -5.97 KCAL/MOL
REMARK 924 INTRA-LIGAND FREE ENERGY PREDICTED BY IDOCK:   -0.82 KCAL/MOL
REMARK 927      BINDING AFFINITY PREDICTED BY RF-SCORE:    0.00 PKD
ROOT
HETATM    1  C   UNL     1      -7.620   6.991  63.227  1.00  0.00    -0.108 C  
HETATM    2  C   UNL     1      -8.045   8.297  62.577  1.00  0.00    -0.168 C  
ENDROOT
BRANCH   2   3
HETATM    3  N   UNL     1      -8.197   9.490  63.561  1.00  0.00    -0.152 N  
HETATM    4  C   UNL     1      -6.796   9.948  64.004  1.00  0.00    -0.126 C  
BRANCH   3   5
HETATM    5  C   UNL     1      -8.928  10.693  62.935  1.00  0.00    -0.265 C  
HETATM    6  C   UNL     1     -10.179  11.112  63.693  1.00  0.00    -0.444 C  
ENDBRANCH   3   5
BRANCH   3   7
HETATM    7  C   UNL     1      -8.951   8.932  64.786  1.00  0.00    -0.036 C  
BRANCH   7   8
HETATM    8  C   UNL     1      -8.261   9.117  66.141  1.00  0.00    -0.111 C  
BRANCH   8   9
HETATM    9  O   UNL     1      -9.326   9.228  67.097  1.00  0.00    -0.128 OA 
BRANCH   9  10
HETATM   10  C   UNL     1      -9.208  10.238  68.015  1.00  0.00    -0.135 C  
HETATM   11  O   UNL     1      -8.143  10.596  68.497  1.00  0.00    -0.111 OA 
HETATM   12  C   UNL     1     -10.630  10.731  68.437  1.00  0.00    -0.197 C  
HETATM   13  C   UNL     1     -10.917  12.042  67.700  1.00  0.00    -0.287 A  
HETATM   14  O   UNL     1     -11.611   9.766  68.029  1.00  0.00    -0.535 OA 
HETATM   15  C   UNL     1     -10.667  10.865  70.002  1.00  0.00    -0.049 C  
HETATM   16  H   UNL     1     -12.475  10.065  68.285  1.00  0.00     0.000 HD 
HETATM   17  C   UNL     1     -12.024  12.169  66.839  1.00  0.00    -0.164 A  
HETATM   18  C   UNL     1     -12.004  11.390  70.563  1.00  0.00    -0.451 C  
HETATM   19  C   UNL     1     -12.264  13.354  66.141  1.00  0.00    -0.471 A  
HETATM   20  C   UNL     1     -13.128  10.359  70.562  1.00  0.00    -0.203 C  
HETATM   21  C   UNL     1     -12.733   9.074  71.281  1.00  0.00    -0.316 C  
HETATM   22  C   UNL     1     -11.403  14.433  66.289  1.00  0.00    -0.350 A  
HETATM   23  C   UNL     1     -10.304  14.333  67.136  1.00  0.00    -0.262 A  
HETATM   24  C   UNL     1     -11.396   8.509  70.820  1.00  0.00    -0.296 C  
HETATM   25  C   UNL     1     -10.296   9.567  70.766  1.00  0.00    -0.377 C  
HETATM   26  C   UNL     1     -10.064  13.151  67.838  1.00  0.00    -0.232 A  
ENDBRANCH   9  10
ENDBRANCH   8   9
ENDBRANCH   7   8
ENDBRANCH   3   7
ENDBRANCH   2   3
TORSDOF 6
ENDMDL
MODEL       71
REMARK 921   NORMALIZED FREE ENERGY PREDICTED BY IDOCK:   -4.36 KCAL/MOL
REMARK 922        TOTAL FREE ENERGY PREDICTED BY IDOCK:   -6.79 KCAL/MOL
REMARK 923 INTER-LIGAND FREE ENERGY PREDICTED BY IDOCK:   -6.26 KCAL/MOL
REMARK 924 INTRA-LIGAND FREE ENERGY PREDICTED BY IDOCK:   -0.53 KCAL/MOL
REMARK 927      BINDING AFFINITY PREDICTED BY RF-SCORE:    0.00 PKD
ROOT
HETATM    1  C   UNL     1     -12.686  15.888  74.050  1.00  0.00    -0.703 C  
HETATM    2  C   UNL     1     -12.273  16.115  72.606  1.00  0.00    -0.532 C  
ENDROOT
BRANCH   2   3
HETATM    3  N   UNL     1     -12.799  15.048  71.607  1.00  0.00    -0.321 N  
HETATM    4  C   UNL     1     -14.323  15.209  71.465  1.00  0.00    -0.559 C  
BRANCH   3   5
HETATM    5  C   UNL     1     -12.163  15.172  70.209  1.00  0.00    -0.350 C  
HETATM    6  C   UNL     1     -10.695  15.571  70.237  1.00  0.00    -0.352 C  
ENDBRANCH   3   5
BRANCH   3   7
HETATM    7  C   UNL     1     -12.500  13.680  72.256  1.00  0.00     0.104 C  
BRANCH   7   8
HETATM    8  C   UNL     1     -13.046  12.453  71.520  1.00  0.00    -0.264 C  
BRANCH   8   9
HETATM    9  O   UNL     1     -11.919  11.890  70.833  1.00  0.00    -0.248 OA 
BRANCH   9  10
HETATM   10  C   UNL     1     -12.186  10.833  70.003  1.00  0.00    -0.334 C  
HETATM   11  O   UNL     1     -13.243  10.688  69.407  1.00  0.00     0.210 OA 
HETATM   12  C   UNL     1     -11.008   9.807  70.066  1.00  0.00    -0.277 C  
HETATM   13  C   UNL     1     -10.147   9.993  68.814  1.00  0.00    -0.197 A  
HETATM   14  O   UNL     1     -10.192  10.087  71.214  1.00  0.00    -0.097 OA 
HETATM   15  C   UNL     1     -11.612   8.364  70.209  1.00  0.00     0.016 C  
HETATM   16  H   UNL     1      -9.476   9.463  71.253  1.00  0.00     0.000 HD 
HETATM   17  C   UNL     1      -8.781  10.325  68.908  1.00  0.00    -0.152 A  
HETATM   18  C   UNL     1     -10.561   7.236  70.238  1.00  0.00    -0.243 C  
HETATM   19  C   UNL     1      -8.007  10.528  67.765  1.00  0.00    -0.106 A  
HETATM   20  C   UNL     1      -9.807   7.119  71.559  1.00  0.00    -0.176 C  
HETATM   21  C   UNL     1     -10.750   6.981  72.750  1.00  0.00    -0.306 C  
HETATM   22  C   UNL     1      -8.582  10.405  66.506  1.00  0.00    -0.134 A  
HETATM   23  C   UNL     1      -9.928  10.076  66.387  1.00  0.00    -0.300 A  
HETATM   24  C   UNL     1     -11.852   8.031  72.775  1.00  0.00    -0.303 C  
HETATM   25  C   UNL     1     -12.555   8.180  71.427  1.00  0.00    -0.301 C  
HETATM   26  C   UNL     1     -10.704   9.868  67.529  1.00  0.00    -0.333 A  
ENDBRANCH   9  10
ENDBRANCH   8   9
ENDBRANCH   7   8
ENDBRANCH   3   7
ENDBRANCH   2   3
TORSDOF 6
ENDMDL
MODEL       72
REMARK 921   NORMALIZED FREE ENERGY PREDICTED BY IDOCK:   -4.34 KCAL/MOL
REMARK 922        TOTAL FREE ENERGY PREDICTED BY IDOCK:   -6.77 KCAL/MOL
REMARK 923 INTER-LIGAND FREE ENERGY PREDICTED BY IDOCK:   -5.96 KCAL/MOL
REMARK 924 INTRA-LIGAND FREE ENERGY PREDICTED BY IDOCK:   -0.82 KCAL/MOL
REMARK 927      BINDING AFFINITY PREDICTED BY RF-SCORE:    0.00 PKD
ROOT
HETATM    1  C   UNL     1     -11.063  16.937  69.322  1.00  0.00    -0.010 C  
HETATM    2  C   UNL     1     -11.816  15.620  69.241  1.00  0.00    -0.363 C  
ENDROOT
BRANCH   2   3
HETATM    3  N   UNL     1     -12.289  15.060  70.611  1.00  0.00    -0.321 N  
HETATM    4  C   UNL     1     -11.637  15.885  71.736  1.00  0.00    -0.455 C  
BRANCH   3   5
HETATM    5  C   UNL     1     -13.819  15.121  70.786  1.00  0.00    -0.108 C  
HETATM    6  C   UNL     1     -14.268  15.154  72.239  1.00  0.00    -0.613 C  
ENDBRANCH   3   5
BRANCH   3   7
HETATM    7  C   UNL     1     -11.759  13.613  70.681  1.00  0.00    -0.024 C  
BRANCH   7   8
HETATM    8  C   UNL     1     -12.260  12.660  69.592  1.00  0.00    -0.114 C  
BRANCH   8   9
HETATM    9  O   UNL     1     -11.258  11.637  69.493  1.00  0.00    -0.248 OA 
BRANCH   9  10
HETATM   10  C   UNL     1     -11.054  11.112  68.244  1.00  0.00    -0.251 C  
HETATM   11  O   UNL     1     -11.772  10.261  67.740  1.00  0.00    -0.247 OA 
HETATM   12  C   UNL     1      -9.711  11.657  67.660  1.00  0.00    -0.180 C  
HETATM   13  C   UNL     1     -10.043  12.760  66.651  1.00  0.00    -0.248 A  
HETATM   14  O   UNL     1      -8.932  12.239  68.716  1.00  0.00    -0.376 OA 
HETATM   15  C   UNL     1      -8.912  10.455  67.041  1.00  0.00    -0.150 C  
HETATM   16  H   UNL     1      -8.115  12.571  68.362  1.00  0.00     0.000 HD 
HETATM   17  C   UNL     1      -9.556  14.072  66.814  1.00  0.00    -0.293 A  
HETATM   18  C   UNL     1      -7.576  10.852  66.381  1.00  0.00    -0.146 C  
HETATM   19  C   UNL     1      -9.889  15.084  65.913  1.00  0.00    -0.369 A  
HETATM   20  C   UNL     1      -6.460  11.164  67.373  1.00  0.00    -0.071 C  
HETATM   21  C   UNL     1      -6.232  10.025  68.361  1.00  0.00    -0.049 C  
HETATM   22  C   UNL     1     -10.715  14.806  64.832  1.00  0.00    -0.438 A  
HETATM   23  C   UNL     1     -11.207  13.517  64.647  1.00  0.00    -0.377 A  
HETATM   24  C   UNL     1      -7.511   9.537  69.027  1.00  0.00    -0.074 C  
HETATM   25  C   UNL     1      -8.639   9.290  68.027  1.00  0.00    -0.121 C  
HETATM   26  C   UNL     1     -10.872  12.502  65.545  1.00  0.00    -0.312 A  
ENDBRANCH   9  10
ENDBRANCH   8   9
ENDBRANCH   7   8
ENDBRANCH   3   7
ENDBRANCH   2   3
TORSDOF 6
ENDMDL
MODEL       73
REMARK 921   NORMALIZED FREE ENERGY PREDICTED BY IDOCK:   -4.34 KCAL/MOL
REMARK 922        TOTAL FREE ENERGY PREDICTED BY IDOCK:   -6.77 KCAL/MOL
REMARK 923 INTER-LIGAND FREE ENERGY PREDICTED BY IDOCK:   -5.91 KCAL/MOL
REMARK 924 INTRA-LIGAND FREE ENERGY PREDICTED BY IDOCK:   -0.86 KCAL/MOL
REMARK 927      BINDING AFFINITY PREDICTED BY RF-SCORE:    0.00 PKD
ROOT
HETATM    1  C   UNL     1      -9.511  10.067  66.941  1.00  0.00    -0.203 C  
HETATM    2  C   UNL     1      -9.560  11.021  68.123  1.00  0.00    -0.171 C  
ENDROOT
BRANCH   2   3
HETATM    3  N   UNL     1     -10.954  11.144  68.797  1.00  0.00    -0.201 N  
HETATM    4  C   UNL     1     -11.992  11.528  67.726  1.00  0.00    -0.025 C  
BRANCH   3   5
HETATM    5  C   UNL     1     -11.411   9.837  69.472  1.00  0.00    -0.009 C  
HETATM    6  C   UNL     1     -10.596   9.465  70.701  1.00  0.00    -0.354 C  
ENDBRANCH   3   5
BRANCH   3   7
HETATM    7  C   UNL     1     -10.831  12.303  69.810  1.00  0.00     0.432 C  
BRANCH   7   8
HETATM    8  C   UNL     1     -11.676  13.545  69.516  1.00  0.00    -0.322 C  
BRANCH   8   9
HETATM    9  O   UNL     1     -10.774  14.655  69.638  1.00  0.00    -0.225 OA 
BRANCH   9  10
HETATM   10  C   UNL     1      -9.826  14.773  68.657  1.00  0.00    -0.225 C  
HETATM   11  O   UNL     1      -8.700  14.306  68.742  1.00  0.00    -0.167 OA 
HETATM   12  C   UNL     1     -10.362  15.700  67.519  1.00  0.00    -0.277 C  
HETATM   13  C   UNL     1     -10.811  14.813  66.354  1.00  0.00    -0.322 A  
HETATM   14  O   UNL     1     -11.506  16.426  67.993  1.00  0.00    -0.239 OA 
HETATM   15  C   UNL     1      -9.233  16.722  67.135  1.00  0.00    -0.233 C  
HETATM   16  H   UNL     1     -11.833  16.990  67.302  1.00  0.00     0.000 HD 
HETATM   17  C   UNL     1     -12.138  14.841  65.883  1.00  0.00    -0.106 A  
HETATM   18  C   UNL     1      -9.606  17.679  65.985  1.00  0.00    -0.123 C  
HETATM   19  C   UNL     1     -12.554  14.006  64.845  1.00  0.00    -0.369 A  
HETATM   20  C   UNL     1     -10.566  18.794  66.388  1.00  0.00    -0.429 C  
HETATM   21  C   UNL     1     -10.052  19.593  67.581  1.00  0.00    -0.544 C  
HETATM   22  C   UNL     1     -11.653  13.127  64.258  1.00  0.00    -0.440 A  
HETATM   23  C   UNL     1     -10.335  13.083  64.703  1.00  0.00    -0.374 A  
HETATM   24  C   UNL     1      -9.616  18.722  68.750  1.00  0.00    -0.411 C  
HETATM   25  C   UNL     1      -8.707  17.572  68.322  1.00  0.00    -0.270 C  
HETATM   26  C   UNL     1      -9.916  13.920  65.739  1.00  0.00    -0.304 A  
ENDBRANCH   9  10
ENDBRANCH   8   9
ENDBRANCH   7   8
ENDBRANCH   3   7
ENDBRANCH   2   3
TORSDOF 6
ENDMDL
MODEL       74
REMARK 921   NORMALIZED FREE ENERGY PREDICTED BY IDOCK:   -4.32 KCAL/MOL
REMARK 922        TOTAL FREE ENERGY PREDICTED BY IDOCK:   -6.74 KCAL/MOL
REMARK 923 INTER-LIGAND FREE ENERGY PREDICTED BY IDOCK:   -5.79 KCAL/MOL
REMARK 924 INTRA-LIGAND FREE ENERGY PREDICTED BY IDOCK:   -0.95 KCAL/MOL
REMARK 927      BINDING AFFINITY PREDICTED BY RF-SCORE:    0.00 PKD
ROOT
HETATM    1  C   UNL     1     -11.706  12.358  67.820  1.00  0.00    -0.413 C  
HETATM    2  C   UNL     1     -11.970  13.524  66.883  1.00  0.00    -0.399 C  
ENDROOT
BRANCH   2   3
HETATM    3  N   UNL     1     -11.368  13.361  65.461  1.00  0.00    -0.291 N  
HETATM    4  C   UNL     1     -12.444  12.768  64.532  1.00  0.00    -0.428 C  
BRANCH   3   5
HETATM    5  C   UNL     1     -10.884  14.694  64.858  1.00  0.00    -0.419 C  
HETATM    6  C   UNL     1      -9.805  15.382  65.681  1.00  0.00    -0.387 C  
ENDBRANCH   3   5
BRANCH   3   7
HETATM    7  C   UNL     1     -10.217  12.343  65.605  1.00  0.00    -0.262 C  
BRANCH   7   8
HETATM    8  C   UNL     1     -10.243  11.157  64.636  1.00  0.00    -0.317 C  
BRANCH   8   9
HETATM    9  O   UNL     1     -10.380   9.993  65.464  1.00  0.00    -0.241 OA 
BRANCH   9  10
HETATM   10  C   UNL     1      -9.258   9.220  65.607  1.00  0.00    -0.231 C  
HETATM   11  O   UNL     1      -8.622   8.767  64.667  1.00  0.00    -0.169 OA 
HETATM   12  C   UNL     1      -9.029   8.905  67.121  1.00  0.00    -0.127 C  
HETATM   13  C   UNL     1      -7.916   9.822  67.635  1.00  0.00    -0.105 A  
HETATM   14  O   UNL     1     -10.226   9.200  67.857  1.00  0.00    -0.192 OA 
HETATM   15  C   UNL     1      -8.705   7.375  67.267  1.00  0.00    -0.121 C  
HETATM   16  H   UNL     1     -10.087   9.009  68.777  1.00  0.00     0.000 HD 
HETATM   17  C   UNL     1      -8.141  10.720  68.697  1.00  0.00    -0.136 A  
HETATM   18  C   UNL     1      -8.408   6.924  68.712  1.00  0.00    -0.121 C  
HETATM   19  C   UNL     1      -7.135  11.580  69.141  1.00  0.00    -0.105 A  
HETATM   20  C   UNL     1      -9.647   6.811  69.596  1.00  0.00    -0.150 C  
HETATM   21  C   UNL     1     -10.714   5.911  68.981  1.00  0.00    -0.379 C  
HETATM   22  C   UNL     1      -5.887  11.561  68.532  1.00  0.00    -0.045 A  
HETATM   23  C   UNL     1      -5.640  10.681  67.482  1.00  0.00    -0.044 A  
HETATM   24  C   UNL     1     -11.036   6.258  67.534  1.00  0.00    -0.444 C  
HETATM   25  C   UNL     1      -9.784   6.430  66.676  1.00  0.00    -0.197 C  
HETATM   26  C   UNL     1      -6.643   9.818  67.039  1.00  0.00    -0.071 A  
ENDBRANCH   9  10
ENDBRANCH   8   9
ENDBRANCH   7   8
ENDBRANCH   3   7
ENDBRANCH   2   3
TORSDOF 6
ENDMDL
MODEL       75
REMARK 921   NORMALIZED FREE ENERGY PREDICTED BY IDOCK:   -4.32 KCAL/MOL
REMARK 922        TOTAL FREE ENERGY PREDICTED BY IDOCK:   -6.74 KCAL/MOL
REMARK 923 INTER-LIGAND FREE ENERGY PREDICTED BY IDOCK:   -5.45 KCAL/MOL
REMARK 924 INTRA-LIGAND FREE ENERGY PREDICTED BY IDOCK:   -1.28 KCAL/MOL
REMARK 927      BINDING AFFINITY PREDICTED BY RF-SCORE:    0.00 PKD
ROOT
HETATM    1  C   UNL     1      -8.211   5.995  64.844  1.00  0.00    -0.130 C  
HETATM    2  C   UNL     1      -8.371   5.989  66.355  1.00  0.00    -0.118 C  
ENDROOT
BRANCH   2   3
HETATM    3  N   UNL     1      -8.184   4.598  67.020  1.00  0.00    -0.106 N  
HETATM    4  C   UNL     1      -8.125   3.524  65.917  1.00  0.00    -0.093 C  
BRANCH   3   5
HETATM    5  C   UNL     1      -6.895   4.504  67.860  1.00  0.00    -0.055 C  
HETATM    6  C   UNL     1      -6.147   5.824  67.983  1.00  0.00    -0.021 C  
ENDBRANCH   3   5
BRANCH   3   7
HETATM    7  C   UNL     1      -9.447   4.366  67.876  1.00  0.00    -0.161 C  
BRANCH   7   8
HETATM    8  C   UNL     1      -9.260   4.472  69.392  1.00  0.00    -0.129 C  
BRANCH   8   9
HETATM    9  O   UNL     1     -10.095   5.564  69.802  1.00  0.00    -0.189 OA 
BRANCH   9  10
HETATM   10  C   UNL     1      -9.447   6.713  70.172  1.00  0.00    -0.158 C  
HETATM   11  O   UNL     1      -8.402   6.728  70.805  1.00  0.00    -0.125 OA 
HETATM   12  C   UNL     1     -10.320   7.952  69.792  1.00  0.00    -0.219 C  
HETATM   13  C   UNL     1      -9.740   8.570  68.517  1.00  0.00    -0.174 A  
HETATM   14  O   UNL     1     -11.661   7.524  69.510  1.00  0.00    -0.429 OA 
HETATM   15  C   UNL     1     -10.346   8.937  71.016  1.00  0.00    -0.321 C  
HETATM   16  H   UNL     1     -12.192   8.277  69.279  1.00  0.00     0.000 HD 
HETATM   17  C   UNL     1     -10.514   8.694  67.347  1.00  0.00    -0.351 A  
HETATM   18  C   UNL     1     -11.137  10.237  70.768  1.00  0.00    -0.303 C  
HETATM   19  C   UNL     1      -9.972   9.224  66.175  1.00  0.00    -0.348 A  
HETATM   20  C   UNL     1     -12.653  10.060  70.799  1.00  0.00    -0.372 C  
HETATM   21  C   UNL     1     -13.130   9.399  72.088  1.00  0.00    -0.526 C  
HETATM   22  C   UNL     1      -8.648   9.641  66.149  1.00  0.00    -0.138 A  
HETATM   23  C   UNL     1      -7.863   9.532  67.293  1.00  0.00    -0.098 A  
HETATM   24  C   UNL     1     -12.367   8.129  72.435  1.00  0.00    -0.345 C  
HETATM   25  C   UNL     1     -10.853   8.305  72.338  1.00  0.00    -0.421 C  
HETATM   26  C   UNL     1      -8.403   9.004  68.467  1.00  0.00    -0.124 A  
ENDBRANCH   9  10
ENDBRANCH   8   9
ENDBRANCH   7   8
ENDBRANCH   3   7
ENDBRANCH   2   3
TORSDOF 6
ENDMDL
MODEL       76
REMARK 921   NORMALIZED FREE ENERGY PREDICTED BY IDOCK:   -4.31 KCAL/MOL
REMARK 922        TOTAL FREE ENERGY PREDICTED BY IDOCK:   -6.73 KCAL/MOL
REMARK 923 INTER-LIGAND FREE ENERGY PREDICTED BY IDOCK:   -5.72 KCAL/MOL
REMARK 924 INTRA-LIGAND FREE ENERGY PREDICTED BY IDOCK:   -1.01 KCAL/MOL
REMARK 927      BINDING AFFINITY PREDICTED BY RF-SCORE:    0.00 PKD
ROOT
HETATM    1  C   UNL     1      -7.919   4.443  67.923  1.00  0.00    -0.087 C  
HETATM    2  C   UNL     1      -7.694   5.801  67.278  1.00  0.00    -0.101 C  
ENDROOT
BRANCH   2   3
HETATM    3  N   UNL     1      -8.625   6.106  66.072  1.00  0.00    -0.140 N  
HETATM    4  C   UNL     1      -8.629   7.625  65.821  1.00  0.00    -0.139 C  
BRANCH   3   5
HETATM    5  C   UNL     1      -8.179   5.399  64.778  1.00  0.00    -0.132 C  
HETATM    6  C   UNL     1      -9.095   4.261  64.355  1.00  0.00    -0.150 C  
ENDBRANCH   3   5
BRANCH   3   7
HETATM    7  C   UNL     1     -10.039   5.669  66.510  1.00  0.00    -0.185 C  
BRANCH   7   8
HETATM    8  C   UNL     1     -10.900   6.746  67.174  1.00  0.00    -0.392 C  
BRANCH   8   9
HETATM    9  O   UNL     1     -10.956   6.385  68.562  1.00  0.00    -0.290 OA 
BRANCH   9  10
HETATM   10  C   UNL     1     -10.369   7.261  69.437  1.00  0.00    -0.208 C  
HETATM   11  O   UNL     1      -9.531   8.088  69.109  1.00  0.00    -0.155 OA 
HETATM   12  C   UNL     1     -10.827   6.931  70.894  1.00  0.00    -0.244 C  
HETATM   13  C   UNL     1     -11.899   7.947  71.297  1.00  0.00    -0.321 A  
HETATM   14  O   UNL     1     -11.418   5.623  70.925  1.00  0.00    -0.059 OA 
HETATM   15  C   UNL     1      -9.564   6.943  71.828  1.00  0.00    -0.162 C  
HETATM   16  H   UNL     1     -11.696   5.423  71.811  1.00  0.00     0.000 HD 
HETATM   17  C   UNL     1     -13.193   7.535  71.672  1.00  0.00    -0.404 A  
HETATM   18  C   UNL     1      -9.871   6.678  73.316  1.00  0.00    -0.199 C  
HETATM   19  C   UNL     1     -14.180   8.465  72.004  1.00  0.00    -0.528 A  
HETATM   20  C   UNL     1     -10.174   5.217  73.639  1.00  0.00    -0.237 C  
HETATM   21  C   UNL     1      -9.070   4.280  73.162  1.00  0.00    -0.119 C  
HETATM   22  C   UNL     1     -13.893   9.823  71.969  1.00  0.00    -0.258 A  
HETATM   23  C   UNL     1     -12.622  10.256  71.605  1.00  0.00    -0.534 A  
HETATM   24  C   UNL     1      -8.669   4.506  71.711  1.00  0.00    -0.131 C  
HETATM   25  C   UNL     1      -8.431   5.979  71.387  1.00  0.00    -0.128 C  
HETATM   26  C   UNL     1     -11.632   9.328  71.275  1.00  0.00    -0.419 A  
ENDBRANCH   9  10
ENDBRANCH   8   9
ENDBRANCH   7   8
ENDBRANCH   3   7
ENDBRANCH   2   3
TORSDOF 6
ENDMDL
MODEL       77
REMARK 921   NORMALIZED FREE ENERGY PREDICTED BY IDOCK:   -4.28 KCAL/MOL
REMARK 922        TOTAL FREE ENERGY PREDICTED BY IDOCK:   -6.68 KCAL/MOL
REMARK 923 INTER-LIGAND FREE ENERGY PREDICTED BY IDOCK:   -6.02 KCAL/MOL
REMARK 924 INTRA-LIGAND FREE ENERGY PREDICTED BY IDOCK:   -0.66 KCAL/MOL
REMARK 927      BINDING AFFINITY PREDICTED BY RF-SCORE:    0.00 PKD
ROOT
HETATM    1  C   UNL     1      -7.707  12.596  68.123  1.00  0.00    -0.142 C  
HETATM    2  C   UNL     1      -8.184  11.544  67.135  1.00  0.00    -0.161 C  
ENDROOT
BRANCH   2   3
HETATM    3  N   UNL     1      -9.713  11.556  66.864  1.00  0.00    -0.185 N  
HETATM    4  C   UNL     1     -10.402  12.410  67.945  1.00  0.00    -0.210 C  
BRANCH   3   5
HETATM    5  C   UNL     1     -10.072  12.136  65.483  1.00  0.00    -0.248 C  
HETATM    6  C   UNL     1     -10.189  11.086  64.389  1.00  0.00    -0.409 C  
ENDBRANCH   3   5
BRANCH   3   7
HETATM    7  C   UNL     1     -10.179  10.092  67.012  1.00  0.00    -0.234 C  
BRANCH   7   8
HETATM    8  C   UNL     1      -9.145   9.112  67.574  1.00  0.00    -0.124 C  
BRANCH   8   9
HETATM    9  O   UNL     1      -9.853   8.331  68.548  1.00  0.00    -0.166 OA 
BRANCH   9  10
HETATM   10  C   UNL     1      -9.787   8.778  69.841  1.00  0.00    -0.184 C  
HETATM   11  O   UNL     1      -9.315   9.859  70.163  1.00  0.00    -0.234 OA 
HETATM   12  C   UNL     1     -10.264   7.649  70.811  1.00  0.00    -0.201 C  
HETATM   13  C   UNL     1     -11.696   7.969  71.247  1.00  0.00    -0.311 A  
HETATM   14  O   UNL     1     -10.280   6.395  70.112  1.00  0.00    -0.179 OA 
HETATM   15  C   UNL     1      -9.247   7.554  72.004  1.00  0.00    -0.163 C  
HETATM   16  H   UNL     1     -10.570   5.708  70.701  1.00  0.00     0.000 HD 
HETATM   17  C   UNL     1     -12.754   7.073  70.997  1.00  0.00    -0.300 A  
HETATM   18  C   UNL     1      -9.617   6.505  73.072  1.00  0.00    -0.161 C  
HETATM   19  C   UNL     1     -14.065   7.382  71.364  1.00  0.00    -0.491 A  
HETATM   20  C   UNL     1      -9.350   5.064  72.649  1.00  0.00    -0.150 C  
HETATM   21  C   UNL     1      -7.910   4.854  72.192  1.00  0.00    -0.109 C  
HETATM   22  C   UNL     1     -14.344   8.592  71.986  1.00  0.00    -0.512 A  
HETATM   23  C   UNL     1     -13.316   9.493  72.246  1.00  0.00    -0.526 A  
HETATM   24  C   UNL     1      -7.445   5.879  71.167  1.00  0.00    -0.091 C  
HETATM   25  C   UNL     1      -7.775   7.314  71.576  1.00  0.00    -0.087 C  
HETATM   26  C   UNL     1     -12.004   9.184  71.884  1.00  0.00    -0.443 A  
ENDBRANCH   9  10
ENDBRANCH   8   9
ENDBRANCH   7   8
ENDBRANCH   3   7
ENDBRANCH   2   3
TORSDOF 6
ENDMDL
MODEL       78
REMARK 921   NORMALIZED FREE ENERGY PREDICTED BY IDOCK:   -4.27 KCAL/MOL
REMARK 922        TOTAL FREE ENERGY PREDICTED BY IDOCK:   -6.68 KCAL/MOL
REMARK 923 INTER-LIGAND FREE ENERGY PREDICTED BY IDOCK:   -6.06 KCAL/MOL
REMARK 924 INTRA-LIGAND FREE ENERGY PREDICTED BY IDOCK:   -0.62 KCAL/MOL
REMARK 927      BINDING AFFINITY PREDICTED BY RF-SCORE:    0.00 PKD
ROOT
HETATM    1  C   UNL     1      -9.908  20.428  67.216  1.00  0.00    -0.597 C  
HETATM    2  C   UNL     1      -9.268  19.175  67.787  1.00  0.00    -0.298 C  
ENDROOT
BRANCH   2   3
HETATM    3  N   UNL     1      -7.862  18.846  67.214  1.00  0.00    -0.234 N  
HETATM    4  C   UNL     1      -7.366  20.052  66.395  1.00  0.00    -0.275 C  
BRANCH   3   5
HETATM    5  C   UNL     1      -6.824  18.542  68.312  1.00  0.00    -0.235 C  
HETATM    6  C   UNL     1      -6.976  19.406  69.554  1.00  0.00    -0.280 C  
ENDBRANCH   3   5
BRANCH   3   7
HETATM    7  C   UNL     1      -8.064  17.647  66.264  1.00  0.00    -0.246 C  
BRANCH   7   8
HETATM    8  C   UNL     1      -9.369  16.864  66.437  1.00  0.00    -0.276 C  
BRANCH   8   9
HETATM    9  O   UNL     1      -9.005  15.484  66.292  1.00  0.00    -0.297 OA 
BRANCH   9  10
HETATM   10  C   UNL     1      -8.683  14.821  67.446  1.00  0.00    -0.198 C  
HETATM   11  O   UNL     1      -7.602  14.923  68.008  1.00  0.00    -0.105 OA 
HETATM   12  C   UNL     1      -9.834  13.833  67.823  1.00  0.00    -0.234 C  
HETATM   13  C   UNL     1     -10.657  14.468  68.948  1.00  0.00    -0.249 A  
HETATM   14  O   UNL     1     -10.696  13.651  66.689  1.00  0.00    -0.278 OA 
HETATM   15  C   UNL     1      -9.199  12.450  68.208  1.00  0.00    -0.189 C  
HETATM   16  H   UNL     1     -11.397  13.050  66.917  1.00  0.00     0.000 HD 
HETATM   17  C   UNL     1     -12.033  14.724  68.793  1.00  0.00    -0.292 A  
HETATM   18  C   UNL     1     -10.220  11.382  68.650  1.00  0.00    -0.217 C  
HETATM   19  C   UNL     1     -12.773  15.335  69.806  1.00  0.00    -0.055 A  
HETATM   20  C   UNL     1     -11.015  10.768  67.502  1.00  0.00    -0.372 C  
HETATM   21  C   UNL     1     -10.110  10.201  66.412  1.00  0.00    -0.300 C  
HETATM   22  C   UNL     1     -12.153  15.702  70.993  1.00  0.00    -0.448 A  
HETATM   23  C   UNL     1     -10.795  15.457  71.172  1.00  0.00    -0.162 A  
HETATM   24  C   UNL     1      -9.038  11.177  65.949  1.00  0.00    -0.218 C  
HETATM   25  C   UNL     1      -8.293  11.831  67.111  1.00  0.00    -0.168 C  
HETATM   26  C   UNL     1     -10.053  14.843  70.161  1.00  0.00     0.159 A  
ENDBRANCH   9  10
ENDBRANCH   8   9
ENDBRANCH   7   8
ENDBRANCH   3   7
ENDBRANCH   2   3
TORSDOF 6
ENDMDL
MODEL       79
REMARK 921   NORMALIZED FREE ENERGY PREDICTED BY IDOCK:   -4.25 KCAL/MOL
REMARK 922        TOTAL FREE ENERGY PREDICTED BY IDOCK:   -6.65 KCAL/MOL
REMARK 923 INTER-LIGAND FREE ENERGY PREDICTED BY IDOCK:   -5.64 KCAL/MOL
REMARK 924 INTRA-LIGAND FREE ENERGY PREDICTED BY IDOCK:   -1.01 KCAL/MOL
REMARK 927      BINDING AFFINITY PREDICTED BY RF-SCORE:    0.00 PKD
ROOT
HETATM    1  C   UNL     1      -8.034   5.728  64.584  1.00  0.00    -0.122 C  
HETATM    2  C   UNL     1      -7.851   7.223  64.385  1.00  0.00    -0.126 C  
ENDROOT
BRANCH   2   3
HETATM    3  N   UNL     1      -7.755   8.044  65.701  1.00  0.00    -0.090 N  
HETATM    4  C   UNL     1      -6.282   8.097  66.146  1.00  0.00    -0.045 C  
BRANCH   3   5
HETATM    5  C   UNL     1      -8.270   9.488  65.545  1.00  0.00    -0.125 C  
HETATM    6  C   UNL     1      -9.021   9.733  64.245  1.00  0.00    -0.276 C  
ENDBRANCH   3   5
BRANCH   3   7
HETATM    7  C   UNL     1      -8.565   7.254  66.750  1.00  0.00    -0.127 C  
BRANCH   7   8
HETATM    8  C   UNL     1      -7.958   7.183  68.155  1.00  0.00    -0.119 C  
BRANCH   8   9
HETATM    9  O   UNL     1      -9.053   7.415  69.053  1.00  0.00    -0.135 OA 
BRANCH   9  10
HETATM   10  C   UNL     1      -9.018   8.590  69.755  1.00  0.00    -0.145 C  
HETATM   11  O   UNL     1      -8.061   8.954  70.423  1.00  0.00    -0.100 OA 
HETATM   12  C   UNL     1     -10.415   9.287  69.681  1.00  0.00    -0.224 C  
HETATM   13  C   UNL     1     -10.327  10.420  68.654  1.00  0.00    -0.202 A  
HETATM   14  O   UNL     1     -11.395   8.344  69.222  1.00  0.00    -0.405 OA 
HETATM   15  C   UNL     1     -10.808   9.771  71.122  1.00  0.00    -0.333 C  
HETATM   16  H   UNL     1     -12.245   8.767  69.176  1.00  0.00     0.000 HD 
HETATM   17  C   UNL     1     -11.165  10.446  67.522  1.00  0.00    -0.254 A  
HETATM   18  C   UNL     1     -12.153  10.523  71.195  1.00  0.00    -0.473 C  
HETATM   19  C   UNL     1     -11.060  11.461  66.569  1.00  0.00    -0.312 A  
HETATM   20  C   UNL     1     -13.378   9.620  71.096  1.00  0.00    -0.344 C  
HETATM   21  C   UNL     1     -13.354   8.499  72.130  1.00  0.00    -0.382 C  
HETATM   22  C   UNL     1     -10.116  12.467  66.727  1.00  0.00    -0.226 A  
HETATM   23  C   UNL     1      -9.278  12.464  67.839  1.00  0.00    -0.192 A  
HETATM   24  C   UNL     1     -12.040   7.731  72.159  1.00  0.00    -0.346 C  
HETATM   25  C   UNL     1     -10.820   8.650  72.195  1.00  0.00    -0.424 C  
HETATM   26  C   UNL     1      -9.384  11.453  68.795  1.00  0.00    -0.115 A  
ENDBRANCH   9  10
ENDBRANCH   8   9
ENDBRANCH   7   8
ENDBRANCH   3   7
ENDBRANCH   2   3
TORSDOF 6
ENDMDL
MODEL       80
REMARK 921   NORMALIZED FREE ENERGY PREDICTED BY IDOCK:   -4.25 KCAL/MOL
REMARK 922        TOTAL FREE ENERGY PREDICTED BY IDOCK:   -6.64 KCAL/MOL
REMARK 923 INTER-LIGAND FREE ENERGY PREDICTED BY IDOCK:   -6.04 KCAL/MOL
REMARK 924 INTRA-LIGAND FREE ENERGY PREDICTED BY IDOCK:   -0.60 KCAL/MOL
REMARK 927      BINDING AFFINITY PREDICTED BY RF-SCORE:    0.00 PKD
ROOT
HETATM    1  C   UNL     1     -11.870  10.269  71.046  1.00  0.00    -0.472 C  
HETATM    2  C   UNL     1     -11.627   8.787  71.276  1.00  0.00    -0.292 C  
ENDROOT
BRANCH   2   3
HETATM    3  N   UNL     1     -10.139   8.353  71.178  1.00  0.00    -0.188 N  
HETATM    4  C   UNL     1      -9.562   8.236  72.601  1.00  0.00    -0.282 C  
BRANCH   3   5
HETATM    5  C   UNL     1      -9.956   6.999  70.466  1.00  0.00    -0.183 C  
HETATM    6  C   UNL     1      -8.744   6.214  70.944  1.00  0.00    -0.136 C  
ENDBRANCH   3   5
BRANCH   3   7
HETATM    7  C   UNL     1      -9.414   9.496  70.438  1.00  0.00    -0.262 C  
BRANCH   7   8
HETATM    8  C   UNL     1      -9.083   9.240  68.965  1.00  0.00    -0.147 C  
BRANCH   8   9
HETATM    9  O   UNL     1      -9.839  10.214  68.231  1.00  0.00    -0.142 OA 
BRANCH   9  10
HETATM   10  C   UNL     1      -9.168  10.872  67.234  1.00  0.00    -0.151 C  
HETATM   11  O   UNL     1      -8.185  10.420  66.666  1.00  0.00    -0.123 OA 
HETATM   12  C   UNL     1      -9.762  12.308  67.062  1.00  0.00    -0.205 C  
HETATM   13  C   UNL     1     -10.671  12.301  65.830  1.00  0.00    -0.298 A  
HETATM   14  O   UNL     1     -10.564  12.634  68.207  1.00  0.00    -0.222 OA 
HETATM   15  C   UNL     1      -8.573  13.330  66.964  1.00  0.00    -0.169 C  
HETATM   16  H   UNL     1     -10.925  13.506  68.102  1.00  0.00     0.000 HD 
HETATM   17  C   UNL     1     -12.036  12.636  65.927  1.00  0.00    -0.497 A  
HETATM   18  C   UNL     1      -9.010  14.792  66.744  1.00  0.00    -0.292 C  
HETATM   19  C   UNL     1     -12.871  12.595  64.809  1.00  0.00    -0.349 A  
HETATM   20  C   UNL     1      -9.572  15.469  67.990  1.00  0.00    -0.203 C  
HETATM   21  C   UNL     1      -8.613  15.387  69.173  1.00  0.00    -0.242 C  
HETATM   22  C   UNL     1     -12.359  12.219  63.574  1.00  0.00    -0.670 A  
HETATM   23  C   UNL     1     -11.013  11.887  63.452  1.00  0.00    -0.470 A  
HETATM   24  C   UNL     1      -8.094  13.980  69.434  1.00  0.00     0.416 C  
HETATM   25  C   UNL     1      -7.593  13.292  68.166  1.00  0.00    -0.141 C  
HETATM   26  C   UNL     1     -10.175  11.930  64.567  1.00  0.00    -0.320 A  
ENDBRANCH   9  10
ENDBRANCH   8   9
ENDBRANCH   7   8
ENDBRANCH   3   7
ENDBRANCH   2   3
TORSDOF 6
ENDMDL
MODEL       81
REMARK 921   NORMALIZED FREE ENERGY PREDICTED BY IDOCK:   -4.24 KCAL/MOL
REMARK 922        TOTAL FREE ENERGY PREDICTED BY IDOCK:   -6.64 KCAL/MOL
REMARK 923 INTER-LIGAND FREE ENERGY PREDICTED BY IDOCK:   -5.93 KCAL/MOL
REMARK 924 INTRA-LIGAND FREE ENERGY PREDICTED BY IDOCK:   -0.71 KCAL/MOL
REMARK 927      BINDING AFFINITY PREDICTED BY RF-SCORE:    0.00 PKD
ROOT
HETATM    1  C   UNL     1      -9.491   5.431  70.920  1.00  0.00    -0.214 C  
HETATM    2  C   UNL     1     -10.053   4.759  69.679  1.00  0.00    -0.205 C  
ENDROOT
BRANCH   2   3
HETATM    3  N   UNL     1      -9.340   5.145  68.354  1.00  0.00    -0.117 N  
HETATM    4  C   UNL     1      -7.818   5.080  68.573  1.00  0.00    -0.082 C  
BRANCH   3   5
HETATM    5  C   UNL     1      -9.704   4.211  67.184  1.00  0.00    -0.186 C  
HETATM    6  C   UNL     1      -9.275   2.767  67.397  1.00  0.00    -0.210 C  
ENDBRANCH   3   5
BRANCH   3   7
HETATM    7  C   UNL     1      -9.742   6.607  68.070  1.00  0.00    -0.123 C  
BRANCH   7   8
HETATM    8  C   UNL     1      -8.591   7.610  67.948  1.00  0.00    -0.122 C  
BRANCH   8   9
HETATM    9  O   UNL     1      -9.209   8.857  67.599  1.00  0.00    -0.136 OA 
BRANCH   9  10
HETATM   10  C   UNL     1      -9.116   9.857  68.530  1.00  0.00    -0.125 C  
HETATM   11  O   UNL     1      -8.076  10.167  69.092  1.00  0.00    -0.112 OA 
HETATM   12  C   UNL     1     -10.543  10.409  68.850  1.00  0.00    -0.216 C  
HETATM   13  C   UNL     1     -10.719  11.734  68.103  1.00  0.00    -0.247 A  
HETATM   14  O   UNL     1     -11.532   9.488  68.363  1.00  0.00    -0.446 OA 
HETATM   15  C   UNL     1     -10.691  10.538  70.408  1.00  0.00    -0.074 C  
HETATM   16  H   UNL     1     -12.399   9.823  68.557  1.00  0.00     0.000 HD 
HETATM   17  C   UNL     1     -11.753  11.912  67.163  1.00  0.00    -0.311 A  
HETATM   18  C   UNL     1     -12.042  11.118  70.873  1.00  0.00    -0.427 C  
HETATM   19  C   UNL     1     -11.890  13.109  66.458  1.00  0.00    -0.456 A  
HETATM   20  C   UNL     1     -13.206  10.136  70.781  1.00  0.00    -0.290 C  
HETATM   21  C   UNL     1     -12.920   8.832  71.519  1.00  0.00    -0.359 C  
HETATM   22  C   UNL     1     -10.997  14.149  66.677  1.00  0.00    -0.303 A  
HETATM   23  C   UNL     1      -9.969  13.999  67.602  1.00  0.00    -0.237 A  
HETATM   24  C   UNL     1     -11.579   8.212  71.154  1.00  0.00    -0.306 C  
HETATM   25  C   UNL     1     -10.433   9.222  71.188  1.00  0.00    -0.401 C  
HETATM   26  C   UNL     1      -9.832  12.805  68.312  1.00  0.00    -0.224 A  
ENDBRANCH   9  10
ENDBRANCH   8   9
ENDBRANCH   7   8
ENDBRANCH   3   7
ENDBRANCH   2   3
TORSDOF 6
ENDMDL
MODEL       82
REMARK 921   NORMALIZED FREE ENERGY PREDICTED BY IDOCK:   -4.24 KCAL/MOL
REMARK 922        TOTAL FREE ENERGY PREDICTED BY IDOCK:   -6.63 KCAL/MOL
REMARK 923 INTER-LIGAND FREE ENERGY PREDICTED BY IDOCK:   -5.84 KCAL/MOL
REMARK 924 INTRA-LIGAND FREE ENERGY PREDICTED BY IDOCK:   -0.79 KCAL/MOL
REMARK 927      BINDING AFFINITY PREDICTED BY RF-SCORE:    0.00 PKD
ROOT
HETATM    1  C   UNL     1     -11.548  11.821  67.665  1.00  0.00    -0.364 C  
HETATM    2  C   UNL     1     -11.910  12.866  66.623  1.00  0.00    -0.395 C  
ENDROOT
BRANCH   2   3
HETATM    3  N   UNL     1     -10.993  12.876  65.370  1.00  0.00    -0.275 N  
HETATM    4  C   UNL     1     -11.819  12.436  64.147  1.00  0.00    -0.413 C  
BRANCH   3   5
HETATM    5  C   UNL     1     -10.392  14.265  65.078  1.00  0.00    -0.421 C  
HETATM    6  C   UNL     1     -11.428  15.311  64.695  1.00  0.00    -0.356 C  
ENDBRANCH   3   5
BRANCH   3   7
HETATM    7  C   UNL     1      -9.900  11.821  65.640  1.00  0.00    -0.237 C  
BRANCH   7   8
HETATM    8  C   UNL     1      -9.699  10.766  64.548  1.00  0.00    -0.295 C  
BRANCH   8   9
HETATM    9  O   UNL     1      -9.843   9.501  65.210  1.00  0.00    -0.282 OA 
BRANCH   9  10
HETATM   10  C   UNL     1      -8.791   9.110  65.996  1.00  0.00    -0.168 C  
HETATM   11  O   UNL     1      -7.666   9.577  65.906  1.00  0.00    -0.098 OA 
HETATM   12  C   UNL     1      -9.226   7.903  66.889  1.00  0.00    -0.155 C  
HETATM   13  C   UNL     1      -9.501   8.430  68.300  1.00  0.00    -0.147 A  
HETATM   14  O   UNL     1     -10.445   7.344  66.377  1.00  0.00    -0.489 OA 
HETATM   15  C   UNL     1      -8.100   6.809  66.832  1.00  0.00    -0.109 C  
HETATM   16  H   UNL     1     -10.710   6.610  66.920  1.00  0.00     0.000 HD 
HETATM   17  C   UNL     1     -10.764   8.277  68.905  1.00  0.00    -0.089 A  
HETATM   18  C   UNL     1      -8.372   5.571  67.709  1.00  0.00    -0.099 C  
HETATM   19  C   UNL     1     -11.022   8.789  70.177  1.00  0.00    -0.236 A  
HETATM   20  C   UNL     1      -9.415   4.617  67.134  1.00  0.00    -0.171 C  
HETATM   21  C   UNL     1      -9.076   4.182  65.712  1.00  0.00    -0.136 C  
HETATM   22  C   UNL     1     -10.025   9.464  70.869  1.00  0.00    -0.353 A  
HETATM   23  C   UNL     1      -8.769   9.626  70.295  1.00  0.00    -0.248 A  
HETATM   24  C   UNL     1      -8.746   5.344  64.786  1.00  0.00    -0.075 C  
HETATM   25  C   UNL     1      -7.749   6.324  65.401  1.00  0.00    -0.097 C  
HETATM   26  C   UNL     1      -8.506   9.112  69.024  1.00  0.00    -0.132 A  
ENDBRANCH   9  10
ENDBRANCH   8   9
ENDBRANCH   7   8
ENDBRANCH   3   7
ENDBRANCH   2   3
TORSDOF 6
ENDMDL
MODEL       83
REMARK 921   NORMALIZED FREE ENERGY PREDICTED BY IDOCK:   -4.23 KCAL/MOL
REMARK 922        TOTAL FREE ENERGY PREDICTED BY IDOCK:   -6.62 KCAL/MOL
REMARK 923 INTER-LIGAND FREE ENERGY PREDICTED BY IDOCK:   -6.10 KCAL/MOL
REMARK 924 INTRA-LIGAND FREE ENERGY PREDICTED BY IDOCK:   -0.52 KCAL/MOL
REMARK 927      BINDING AFFINITY PREDICTED BY RF-SCORE:    0.00 PKD
ROOT
HETATM    1  C   UNL     1      -8.805  19.168  66.130  1.00  0.00    -0.224 C  
HETATM    2  C   UNL     1      -8.278  18.895  67.529  1.00  0.00    -0.268 C  
ENDROOT
BRANCH   2   3
HETATM    3  N   UNL     1      -7.706  17.466  67.738  1.00  0.00    -0.192 N  
HETATM    4  C   UNL     1      -6.606  17.213  66.690  1.00  0.00    -0.237 C  
BRANCH   3   5
HETATM    5  C   UNL     1      -7.099  17.263  69.140  1.00  0.00    -0.204 C  
HETATM    6  C   UNL     1      -5.864  16.375  69.149  1.00  0.00    -0.142 C  
ENDBRANCH   3   5
BRANCH   3   7
HETATM    7  C   UNL     1      -8.879  16.499  67.473  1.00  0.00    -0.191 C  
BRANCH   7   8
HETATM    8  C   UNL     1      -8.542  15.235  66.678  1.00  0.00    -0.270 C  
BRANCH   8   9
HETATM    9  O   UNL     1      -8.336  14.211  67.662  1.00  0.00    -0.156 OA 
BRANCH   9  10
HETATM   10  C   UNL     1      -9.406  13.393  67.914  1.00  0.00    -0.216 C  
HETATM   11  O   UNL     1     -10.197  13.575  68.828  1.00  0.00    -0.216 OA 
HETATM   12  C   UNL     1      -9.354  12.154  66.964  1.00  0.00    -0.201 C  
HETATM   13  C   UNL     1     -10.365  12.377  65.835  1.00  0.00    -0.282 A  
HETATM   14  O   UNL     1      -8.047  12.055  66.379  1.00  0.00    -0.381 OA 
HETATM   15  C   UNL     1      -9.632  10.862  67.814  1.00  0.00    -0.176 C  
HETATM   16  H   UNL     1      -8.015  11.301  65.801  1.00  0.00     0.000 HD 
HETATM   17  C   UNL     1      -9.961  12.401  64.486  1.00  0.00    -0.202 A  
HETATM   18  C   UNL     1      -9.658   9.556  66.994  1.00  0.00    -0.214 C  
HETATM   19  C   UNL     1     -10.877  12.639  63.461  1.00  0.00    -0.373 A  
HETATM   20  C   UNL     1      -8.279   9.058  66.572  1.00  0.00    -0.114 C  
HETATM   21  C   UNL     1      -7.332   8.907  67.758  1.00  0.00    -0.085 C  
HETATM   22  C   UNL     1     -12.215  12.860  63.764  1.00  0.00    -0.555 A  
HETATM   23  C   UNL     1     -12.639  12.839  65.089  1.00  0.00    -0.513 A  
HETATM   24  C   UNL     1      -7.281  10.139  68.651  1.00  0.00    -0.080 C  
HETATM   25  C   UNL     1      -8.669  10.664  69.013  1.00  0.00    -0.152 C  
HETATM   26  C   UNL     1     -11.725  12.596  66.116  1.00  0.00    -0.461 A  
ENDBRANCH   9  10
ENDBRANCH   8   9
ENDBRANCH   7   8
ENDBRANCH   3   7
ENDBRANCH   2   3
TORSDOF 6
ENDMDL
MODEL       84
REMARK 921   NORMALIZED FREE ENERGY PREDICTED BY IDOCK:   -4.21 KCAL/MOL
REMARK 922        TOTAL FREE ENERGY PREDICTED BY IDOCK:   -6.59 KCAL/MOL
REMARK 923 INTER-LIGAND FREE ENERGY PREDICTED BY IDOCK:   -5.76 KCAL/MOL
REMARK 924 INTRA-LIGAND FREE ENERGY PREDICTED BY IDOCK:   -0.83 KCAL/MOL
REMARK 927      BINDING AFFINITY PREDICTED BY RF-SCORE:    0.00 PKD
ROOT
HETATM    1  C   UNL     1     -14.171   7.521  71.740  1.00  0.00    -0.548 C  
HETATM    2  C   UNL     1     -12.769   7.934  72.153  1.00  0.00    -0.224 C  
ENDROOT
BRANCH   2   3
HETATM    3  N   UNL     1     -11.643   6.979  71.670  1.00  0.00    -0.270 N  
HETATM    4  C   UNL     1     -10.286   7.533  72.142  1.00  0.00    -0.196 C  
BRANCH   3   5
HETATM    5  C   UNL     1     -11.800   5.545  72.213  1.00  0.00     0.014 C  
HETATM    6  C   UNL     1     -10.949   5.259  73.440  1.00  0.00    -0.372 C  
ENDBRANCH   3   5
BRANCH   3   7
HETATM    7  C   UNL     1     -11.689   7.019  70.128  1.00  0.00    -0.189 C  
BRANCH   7   8
HETATM    8  C   UNL     1     -10.556   6.289  69.402  1.00  0.00    -0.271 C  
BRANCH   8   9
HETATM    9  O   UNL     1     -10.239   7.111  68.269  1.00  0.00    -0.171 OA 
BRANCH   9  10
HETATM   10  C   UNL     1      -9.309   8.094  68.479  1.00  0.00    -0.138 C  
HETATM   11  O   UNL     1      -8.329   7.958  69.196  1.00  0.00    -0.129 OA 
HETATM   12  C   UNL     1      -9.780   9.417  67.792  1.00  0.00    -0.151 C  
HETATM   13  C   UNL     1      -8.997   9.579  66.487  1.00  0.00    -0.173 A  
HETATM   14  O   UNL     1     -11.175   9.315  67.467  1.00  0.00    -0.410 OA 
HETATM   15  C   UNL     1      -9.577  10.602  68.802  1.00  0.00    -0.190 C  
HETATM   16  H   UNL     1     -11.462  10.119  67.049  1.00  0.00     0.000 HD 
HETATM   17  C   UNL     1      -9.657   9.662  65.244  1.00  0.00    -0.347 A  
HETATM   18  C   UNL     1      -9.959  11.987  68.241  1.00  0.00    -0.203 C  
HETATM   19  C   UNL     1      -8.940   9.775  64.052  1.00  0.00    -0.275 A  
HETATM   20  C   UNL     1     -11.463  12.233  68.158  1.00  0.00    -0.371 C  
HETATM   21  C   UNL     1     -12.159  12.005  69.495  1.00  0.00    -0.273 C  
HETATM   22  C   UNL     1      -7.552   9.806  64.077  1.00  0.00    -0.134 A  
HETATM   23  C   UNL     1      -6.877   9.729  65.292  1.00  0.00    -0.103 A  
HETATM   24  C   UNL     1     -11.800  10.676  70.145  1.00  0.00    -0.421 C  
HETATM   25  C   UNL     1     -10.295  10.416  70.164  1.00  0.00    -0.114 C  
HETATM   26  C   UNL     1      -7.592   9.619  66.486  1.00  0.00    -0.098 A  
ENDBRANCH   9  10
ENDBRANCH   8   9
ENDBRANCH   7   8
ENDBRANCH   3   7
ENDBRANCH   2   3
TORSDOF 6
ENDMDL
MODEL       85
REMARK 921   NORMALIZED FREE ENERGY PREDICTED BY IDOCK:   -4.14 KCAL/MOL
REMARK 922        TOTAL FREE ENERGY PREDICTED BY IDOCK:   -6.49 KCAL/MOL
REMARK 923 INTER-LIGAND FREE ENERGY PREDICTED BY IDOCK:   -5.67 KCAL/MOL
REMARK 924 INTRA-LIGAND FREE ENERGY PREDICTED BY IDOCK:   -0.83 KCAL/MOL
REMARK 927      BINDING AFFINITY PREDICTED BY RF-SCORE:    0.00 PKD
ROOT
HETATM    1  C   UNL     1     -14.266   8.736  71.901  1.00  0.00    -0.467 C  
HETATM    2  C   UNL     1     -12.868   9.215  72.255  1.00  0.00    -0.401 C  
ENDROOT
BRANCH   2   3
HETATM    3  N   UNL     1     -11.723   8.275  71.787  1.00  0.00    -0.284 N  
HETATM    4  C   UNL     1     -10.878   7.875  73.009  1.00  0.00    -0.342 C  
BRANCH   3   5
HETATM    5  C   UNL     1     -12.242   6.991  71.111  1.00  0.00    -0.382 C  
HETATM    6  C   UNL     1     -11.343   6.480  69.995  1.00  0.00    -0.472 C  
ENDBRANCH   3   5
BRANCH   3   7
HETATM    7  C   UNL     1     -10.852   9.117  70.831  1.00  0.00    -0.278 C  
BRANCH   7   8
HETATM    8  C   UNL     1     -11.425  10.476  70.420  1.00  0.00    -0.341 C  
BRANCH   8   9
HETATM    9  O   UNL     1     -11.174  10.583  69.011  1.00  0.00    -0.234 OA 
BRANCH   9  10
HETATM   10  C   UNL     1     -10.126  11.386  68.645  1.00  0.00    -0.210 C  
HETATM   11  O   UNL     1     -10.105  12.596  68.820  1.00  0.00    -0.165 OA 
HETATM   12  C   UNL     1      -9.071  10.544  67.857  1.00  0.00    -0.136 C  
HETATM   13  C   UNL     1      -7.912  10.227  68.806  1.00  0.00    -0.113 A  
HETATM   14  O   UNL     1      -9.662   9.302  67.446  1.00  0.00    -0.148 OA 
HETATM   15  C   UNL     1      -8.641  11.351  66.581  1.00  0.00    -0.170 C  
HETATM   16  H   UNL     1      -9.021   8.789  66.967  1.00  0.00     0.000 HD 
HETATM   17  C   UNL     1      -7.548   8.898  69.098  1.00  0.00    -0.080 A  
HETATM   18  C   UNL     1      -7.561  10.659  65.725  1.00  0.00    -0.120 C  
HETATM   19  C   UNL     1      -6.513   8.612  69.990  1.00  0.00    -0.038 A  
HETATM   20  C   UNL     1      -8.082   9.493  64.889  1.00  0.00    -0.131 C  
HETATM   21  C   UNL     1      -9.262   9.896  64.010  1.00  0.00    -0.302 C  
HETATM   22  C   UNL     1      -5.823   9.647  70.608  1.00  0.00    -0.066 A  
HETATM   23  C   UNL     1      -6.162  10.968  70.333  1.00  0.00    -0.106 A  
HETATM   24  C   UNL     1     -10.358  10.631  64.768  1.00  0.00    -0.353 C  
HETATM   25  C   UNL     1      -9.814  11.754  65.650  1.00  0.00    -0.265 C  
HETATM   26  C   UNL     1      -7.194  11.257  69.439  1.00  0.00    -0.063 A  
ENDBRANCH   9  10
ENDBRANCH   8   9
ENDBRANCH   7   8
ENDBRANCH   3   7
ENDBRANCH   2   3
TORSDOF 6
ENDMDL
MODEL       86
REMARK 921   NORMALIZED FREE ENERGY PREDICTED BY IDOCK:   -4.12 KCAL/MOL
REMARK 922        TOTAL FREE ENERGY PREDICTED BY IDOCK:   -6.47 KCAL/MOL
REMARK 923 INTER-LIGAND FREE ENERGY PREDICTED BY IDOCK:   -5.96 KCAL/MOL
REMARK 924 INTRA-LIGAND FREE ENERGY PREDICTED BY IDOCK:   -0.51 KCAL/MOL
REMARK 927      BINDING AFFINITY PREDICTED BY RF-SCORE:    0.00 PKD
ROOT
HETATM    1  C   UNL     1      -8.831   6.063  65.841  1.00  0.00    -0.155 C  
HETATM    2  C   UNL     1      -8.671   7.152  66.888  1.00  0.00    -0.126 C  
ENDROOT
BRANCH   2   3
HETATM    3  N   UNL     1      -9.871   7.294  67.864  1.00  0.00    -0.140 N  
HETATM    4  C   UNL     1     -11.123   6.688  67.203  1.00  0.00    -0.357 C  
BRANCH   3   5
HETATM    5  C   UNL     1      -9.636   6.580  69.209  1.00  0.00    -0.139 C  
HETATM    6  C   UNL     1     -10.742   5.605  69.586  1.00  0.00    -0.398 C  
ENDBRANCH   3   5
BRANCH   3   7
HETATM    7  C   UNL     1     -10.088   8.811  68.047  1.00  0.00    -0.196 C  
BRANCH   7   8
HETATM    8  C   UNL     1      -8.874   9.611  68.527  1.00  0.00    -0.124 C  
BRANCH   8   9
HETATM    9  O   UNL     1      -9.257  10.989  68.410  1.00  0.00    -0.161 OA 
BRANCH   9  10
HETATM   10  C   UNL     1      -8.748  11.666  67.334  1.00  0.00    -0.155 C  
HETATM   11  O   UNL     1      -7.930  11.193  66.559  1.00  0.00    -0.153 OA 
HETATM   12  C   UNL     1      -9.260  13.143  67.355  1.00  0.00    -0.213 C  
HETATM   13  C   UNL     1     -10.391  13.269  66.330  1.00  0.00    -0.286 A  
HETATM   14  O   UNL     1      -9.798  13.444  68.651  1.00  0.00    -0.346 OA 
HETATM   15  C   UNL     1      -8.044  14.096  67.073  1.00  0.00    -0.044 C  
HETATM   16  H   UNL     1     -10.109  14.342  68.665  1.00  0.00     0.000 HD 
HETATM   17  C   UNL     1     -11.683  13.678  66.714  1.00  0.00    -0.426 A  
HETATM   18  C   UNL     1      -8.410  15.593  67.017  1.00  0.00    -0.261 C  
HETATM   19  C   UNL     1     -12.721  13.759  65.785  1.00  0.00    -0.494 A  
HETATM   20  C   UNL     1      -8.668  16.223  68.383  1.00  0.00    -0.205 C  
HETATM   21  C   UNL     1      -7.504  16.008  69.346  1.00  0.00    -0.201 C  
HETATM   22  C   UNL     1     -12.490  13.431  64.455  1.00  0.00    -0.359 A  
HETATM   23  C   UNL     1     -11.221  13.027  64.050  1.00  0.00    -0.448 A  
HETATM   24  C   UNL     1      -7.046  14.559  69.427  1.00  0.00    -0.140 C  
HETATM   25  C   UNL     1      -6.853  13.923  68.052  1.00  0.00    -0.146 C  
HETATM   26  C   UNL     1     -10.180  12.949  64.977  1.00  0.00    -0.289 A  
ENDBRANCH   9  10
ENDBRANCH   8   9
ENDBRANCH   7   8
ENDBRANCH   3   7
ENDBRANCH   2   3
TORSDOF 6
ENDMDL
MODEL       87
REMARK 921   NORMALIZED FREE ENERGY PREDICTED BY IDOCK:   -4.11 KCAL/MOL
REMARK 922        TOTAL FREE ENERGY PREDICTED BY IDOCK:   -6.46 KCAL/MOL
REMARK 923 INTER-LIGAND FREE ENERGY PREDICTED BY IDOCK:   -5.64 KCAL/MOL
REMARK 924 INTRA-LIGAND FREE ENERGY PREDICTED BY IDOCK:   -0.82 KCAL/MOL
REMARK 927      BINDING AFFINITY PREDICTED BY RF-SCORE:    0.00 PKD
ROOT
HETATM    1  C   UNL     1     -13.455   7.722  71.507  1.00  0.00    -0.379 C  
HETATM    2  C   UNL     1     -12.231   8.534  71.894  1.00  0.00    -0.352 C  
ENDROOT
BRANCH   2   3
HETATM    3  N   UNL     1     -10.920   7.710  72.016  1.00  0.00    -0.236 N  
HETATM    4  C   UNL     1     -10.850   7.094  73.426  1.00  0.00    -0.319 C  
BRANCH   3   5
HETATM    5  C   UNL     1     -10.830   6.571  70.982  1.00  0.00    -0.253 C  
HETATM    6  C   UNL     1     -10.581   5.203  71.598  1.00  0.00    -0.226 C  
ENDBRANCH   3   5
BRANCH   3   7
HETATM    7  C   UNL     1      -9.768   8.725  71.857  1.00  0.00    -0.316 C  
BRANCH   7   8
HETATM    8  C   UNL     1      -8.820   8.487  70.678  1.00  0.00    -0.155 C  
BRANCH   8   9
HETATM    9  O   UNL     1      -8.962   9.642  69.838  1.00  0.00    -0.189 OA 
BRANCH   9  10
HETATM   10  C   UNL     1      -8.369   9.567  68.605  1.00  0.00    -0.117 C  
HETATM   11  O   UNL     1      -7.165   9.666  68.424  1.00  0.00    -0.073 OA 
HETATM   12  C   UNL     1      -9.470   9.487  67.499  1.00  0.00    -0.130 C  
HETATM   13  C   UNL     1      -9.577   8.031  67.038  1.00  0.00    -0.252 A  
HETATM   14  O   UNL     1     -10.736   9.873  68.055  1.00  0.00    -0.224 OA 
HETATM   15  C   UNL     1      -9.093  10.487  66.348  1.00  0.00    -0.181 C  
HETATM   16  H   UNL     1     -11.406   9.825  67.383  1.00  0.00     0.000 HD 
HETATM   17  C   UNL     1     -10.788   7.318  67.143  1.00  0.00    -0.378 A  
HETATM   18  C   UNL     1     -10.073  10.483  65.157  1.00  0.00    -0.383 C  
HETATM   19  C   UNL     1     -10.874   5.980  66.755  1.00  0.00    -0.356 A  
HETATM   20  C   UNL     1     -11.392  11.199  65.432  1.00  0.00     0.124 C  
HETATM   21  C   UNL     1     -11.181  12.627  65.925  1.00  0.00    -0.350 C  
HETATM   22  C   UNL     1      -9.754   5.328  66.257  1.00  0.00    -0.185 A  
HETATM   23  C   UNL     1      -8.547   6.011  66.141  1.00  0.00    -0.142 A  
HETATM   24  C   UNL     1     -10.188  12.729  67.075  1.00  0.00    -0.245 C  
HETATM   25  C   UNL     1      -8.898  11.955  66.811  1.00  0.00    -0.193 C  
HETATM   26  C   UNL     1      -8.459   7.351  66.525  1.00  0.00    -0.128 A  
ENDBRANCH   9  10
ENDBRANCH   8   9
ENDBRANCH   7   8
ENDBRANCH   3   7
ENDBRANCH   2   3
TORSDOF 6
ENDMDL
MODEL       88
REMARK 921   NORMALIZED FREE ENERGY PREDICTED BY IDOCK:   -4.09 KCAL/MOL
REMARK 922        TOTAL FREE ENERGY PREDICTED BY IDOCK:   -6.43 KCAL/MOL
REMARK 923 INTER-LIGAND FREE ENERGY PREDICTED BY IDOCK:   -5.67 KCAL/MOL
REMARK 924 INTRA-LIGAND FREE ENERGY PREDICTED BY IDOCK:   -0.76 KCAL/MOL
REMARK 927      BINDING AFFINITY PREDICTED BY RF-SCORE:    0.00 PKD
ROOT
HETATM    1  C   UNL     1      -9.050   3.246  69.946  1.00  0.00    -0.199 C  
HETATM    2  C   UNL     1      -9.611   3.642  68.591  1.00  0.00    -0.089 C  
ENDROOT
BRANCH   2   3
HETATM    3  N   UNL     1      -8.553   4.166  67.581  1.00  0.00    -0.099 N  
HETATM    4  C   UNL     1      -7.753   2.969  67.035  1.00  0.00    -0.075 C  
BRANCH   3   5
HETATM    5  C   UNL     1      -9.182   4.916  66.391  1.00  0.00    -0.138 C  
HETATM    6  C   UNL     1     -10.660   5.224  66.573  1.00  0.00    -0.348 C  
ENDBRANCH   3   5
BRANCH   3   7
HETATM    7  C   UNL     1      -7.604   5.071  68.395  1.00  0.00    -0.078 C  
BRANCH   7   8
HETATM    8  C   UNL     1      -7.850   6.578  68.282  1.00  0.00    -0.106 C  
BRANCH   8   9
HETATM    9  O   UNL     1      -8.813   6.883  69.301  1.00  0.00    -0.138 OA 
BRANCH   9  10
HETATM   10  C   UNL     1      -8.705   8.120  69.880  1.00  0.00    -0.138 C  
HETATM   11  O   UNL     1      -7.725   8.492  70.508  1.00  0.00    -0.072 OA 
HETATM   12  C   UNL     1     -10.060   8.886  69.735  1.00  0.00    -0.199 C  
HETATM   13  C   UNL     1      -9.912   9.902  68.599  1.00  0.00    -0.177 A  
HETATM   14  O   UNL     1     -11.096   7.961  69.374  1.00  0.00    -0.433 OA 
HETATM   15  C   UNL     1     -10.416   9.535  71.120  1.00  0.00    -0.358 C  
HETATM   16  H   UNL     1     -11.920   8.426  69.285  1.00  0.00     0.000 HD 
HETATM   17  C   UNL     1     -10.754   9.863  67.469  1.00  0.00    -0.333 A  
HETATM   18  C   UNL     1     -11.714  10.369  71.116  1.00  0.00    -0.387 C  
HETATM   19  C   UNL     1     -10.595  10.768  66.419  1.00  0.00    -0.266 A  
HETATM   20  C   UNL     1     -12.990   9.533  71.109  1.00  0.00    -0.349 C  
HETATM   21  C   UNL     1     -13.025   8.524  72.251  1.00  0.00    -0.384 C  
HETATM   22  C   UNL     1      -9.593  11.728  66.475  1.00  0.00    -0.225 A  
HETATM   23  C   UNL     1      -8.750  11.788  67.581  1.00  0.00    -0.159 A  
HETATM   24  C   UNL     1     -11.758   7.687  72.358  1.00  0.00    -0.366 C  
HETATM   25  C   UNL     1     -10.487   8.532  72.300  1.00  0.00    -0.402 C  
HETATM   26  C   UNL     1      -8.910  10.887  68.635  1.00  0.00    -0.158 A  
ENDBRANCH   9  10
ENDBRANCH   8   9
ENDBRANCH   7   8
ENDBRANCH   3   7
ENDBRANCH   2   3
TORSDOF 6
ENDMDL
MODEL       89
REMARK 921   NORMALIZED FREE ENERGY PREDICTED BY IDOCK:   -4.09 KCAL/MOL
REMARK 922        TOTAL FREE ENERGY PREDICTED BY IDOCK:   -6.43 KCAL/MOL
REMARK 923 INTER-LIGAND FREE ENERGY PREDICTED BY IDOCK:   -5.89 KCAL/MOL
REMARK 924 INTRA-LIGAND FREE ENERGY PREDICTED BY IDOCK:   -0.54 KCAL/MOL
REMARK 927      BINDING AFFINITY PREDICTED BY RF-SCORE:    0.00 PKD
ROOT
HETATM    1  C   UNL     1      -7.377   7.532  64.462  1.00  0.00    -0.087 C  
HETATM    2  C   UNL     1      -7.072   6.721  65.710  1.00  0.00    -0.072 C  
ENDROOT
BRANCH   2   3
HETATM    3  N   UNL     1      -8.247   6.624  66.721  1.00  0.00    -0.112 N  
HETATM    4  C   UNL     1      -9.308   7.678  66.353  1.00  0.00    -0.172 C  
BRANCH   3   5
HETATM    5  C   UNL     1      -8.919   5.237  66.727  1.00  0.00    -0.111 C  
HETATM    6  C   UNL     1     -10.427   5.286  66.529  1.00  0.00    -0.354 C  
ENDBRANCH   3   5
BRANCH   3   7
HETATM    7  C   UNL     1      -7.648   6.978  68.099  1.00  0.00    -0.108 C  
BRANCH   7   8
HETATM    8  C   UNL     1      -8.260   8.191  68.806  1.00  0.00    -0.125 C  
BRANCH   8   9
HETATM    9  O   UNL     1      -9.257   7.653  69.687  1.00  0.00    -0.147 OA 
BRANCH   9  10
HETATM   10  C   UNL     1      -9.454   8.332  70.861  1.00  0.00    -0.162 C  
HETATM   11  O   UNL     1      -8.984   9.436  71.092  1.00  0.00    -0.267 OA 
HETATM   12  C   UNL     1     -10.226   7.422  71.869  1.00  0.00    -0.187 C  
HETATM   13  C   UNL     1     -11.691   7.869  71.888  1.00  0.00    -0.342 A  
HETATM   14  O   UNL     1     -10.181   6.061  71.416  1.00  0.00    -0.196 OA 
HETATM   15  C   UNL     1      -9.519   7.517  73.269  1.00  0.00    -0.293 C  
HETATM   16  H   UNL     1     -10.651   5.507  72.029  1.00  0.00     0.000 HD 
HETATM   17  C   UNL     1     -12.731   6.980  71.552  1.00  0.00    -0.425 A  
HETATM   18  C   UNL     1     -10.205   6.701  74.383  1.00  0.00    -0.289 C  
HETATM   19  C   UNL     1     -14.062   7.398  71.535  1.00  0.00    -0.541 A  
HETATM   20  C   UNL     1      -9.962   5.197  74.293  1.00  0.00    -0.231 C  
HETATM   21  C   UNL     1      -8.477   4.855  74.237  1.00  0.00    -0.104 C  
HETATM   22  C   UNL     1     -14.380   8.713  71.853  1.00  0.00    -0.492 A  
HETATM   23  C   UNL     1     -13.371   9.609  72.190  1.00  0.00    -0.545 A  
HETATM   24  C   UNL     1      -7.711   5.652  73.191  1.00  0.00    -0.100 C  
HETATM   25  C   UNL     1      -8.013   7.148  73.253  1.00  0.00    -0.114 C  
HETATM   26  C   UNL     1     -12.039   9.192  72.211  1.00  0.00    -0.311 A  
ENDBRANCH   9  10
ENDBRANCH   8   9
ENDBRANCH   7   8
ENDBRANCH   3   7
ENDBRANCH   2   3
TORSDOF 6
ENDMDL
MODEL       90
REMARK 921   NORMALIZED FREE ENERGY PREDICTED BY IDOCK:   -4.08 KCAL/MOL
REMARK 922        TOTAL FREE ENERGY PREDICTED BY IDOCK:   -6.42 KCAL/MOL
REMARK 923 INTER-LIGAND FREE ENERGY PREDICTED BY IDOCK:   -5.80 KCAL/MOL
REMARK 924 INTRA-LIGAND FREE ENERGY PREDICTED BY IDOCK:   -0.62 KCAL/MOL
REMARK 927      BINDING AFFINITY PREDICTED BY RF-SCORE:    0.00 PKD
ROOT
HETATM    1  C   UNL     1      -9.803   6.799  72.708  1.00  0.00    -0.183 C  
HETATM    2  C   UNL     1      -9.600   8.287  72.479  1.00  0.00    -0.295 C  
ENDROOT
BRANCH   2   3
HETATM    3  N   UNL     1     -10.094   8.802  71.099  1.00  0.00    -0.224 N  
HETATM    4  C   UNL     1     -10.516   7.596  70.240  1.00  0.00    -0.224 C  
BRANCH   3   5
HETATM    5  C   UNL     1     -11.294   9.763  71.213  1.00  0.00    -0.375 C  
HETATM    6  C   UNL     1     -12.471   9.183  71.983  1.00  0.00    -0.452 C  
ENDBRANCH   3   5
BRANCH   3   7
HETATM    7  C   UNL     1      -8.874   9.481  70.441  1.00  0.00    -0.234 C  
BRANCH   7   8
HETATM    8  C   UNL     1      -8.536   9.023  69.019  1.00  0.00    -0.132 C  
BRANCH   8   9
HETATM    9  O   UNL     1      -8.693  10.189  68.198  1.00  0.00    -0.120 OA 
BRANCH   9  10
HETATM   10  C   UNL     1      -9.797  10.212  67.388  1.00  0.00    -0.187 C  
HETATM   11  O   UNL     1     -10.802   9.547  67.593  1.00  0.00    -0.279 OA 
HETATM   12  C   UNL     1      -9.503  11.085  66.125  1.00  0.00    -0.203 C  
HETATM   13  C   UNL     1     -10.174  12.447  66.322  1.00  0.00    -0.258 A  
HETATM   14  O   UNL     1      -8.088  11.297  66.010  1.00  0.00    -0.308 OA 
HETATM   15  C   UNL     1     -10.008  10.310  64.856  1.00  0.00    -0.393 C  
HETATM   16  H   UNL     1      -7.909  11.828  65.243  1.00  0.00     0.000 HD 
HETATM   17  C   UNL     1      -9.425  13.640  66.312  1.00  0.00    -0.209 A  
HETATM   18  C   UNL     1      -9.824  11.075  63.530  1.00  0.00    -0.403 C  
HETATM   19  C   UNL     1     -10.033  14.877  66.526  1.00  0.00    -0.277 A  
HETATM   20  C   UNL     1      -8.387  11.102  63.019  1.00  0.00     0.097 C  
HETATM   21  C   UNL     1      -7.792   9.703  62.898  1.00  0.00    -0.125 C  
HETATM   22  C   UNL     1     -11.401  14.948  66.755  1.00  0.00    -0.328 A  
HETATM   23  C   UNL     1     -12.164  13.784  66.767  1.00  0.00    -0.440 A  
HETATM   24  C   UNL     1      -7.971   8.858  64.151  1.00  0.00    -0.148 C  
HETATM   25  C   UNL     1      -9.401   8.892  64.686  1.00  0.00     0.351 C  
HETATM   26  C   UNL     1     -11.558  12.545  66.550  1.00  0.00    -0.447 A  
ENDBRANCH   9  10
ENDBRANCH   8   9
ENDBRANCH   7   8
ENDBRANCH   3   7
ENDBRANCH   2   3
TORSDOF 6
ENDMDL
MODEL       91
REMARK 921   NORMALIZED FREE ENERGY PREDICTED BY IDOCK:   -4.08 KCAL/MOL
REMARK 922        TOTAL FREE ENERGY PREDICTED BY IDOCK:   -6.42 KCAL/MOL
REMARK 923 INTER-LIGAND FREE ENERGY PREDICTED BY IDOCK:   -5.85 KCAL/MOL
REMARK 924 INTRA-LIGAND FREE ENERGY PREDICTED BY IDOCK:   -0.58 KCAL/MOL
REMARK 927      BINDING AFFINITY PREDICTED BY RF-SCORE:    0.00 PKD
ROOT
HETATM    1  C   UNL     1     -10.720  15.434  65.064  1.00  0.00    -0.460 C  
HETATM    2  C   UNL     1     -10.047  14.582  66.126  1.00  0.00    -0.305 C  
ENDROOT
BRANCH   2   3
HETATM    3  N   UNL     1     -10.434  13.078  66.090  1.00  0.00    -0.274 N  
HETATM    4  C   UNL     1     -11.763  12.889  66.843  1.00  0.00    -0.382 C  
BRANCH   3   5
HETATM    5  C   UNL     1     -10.605  12.538  64.657  1.00  0.00    -0.316 C  
HETATM    6  C   UNL     1     -12.031  12.128  64.323  1.00  0.00    -0.466 C  
ENDBRANCH   3   5
BRANCH   3   7
HETATM    7  C   UNL     1      -9.317  12.337  66.855  1.00  0.00    -0.210 C  
BRANCH   7   8
HETATM    8  C   UNL     1      -9.708  11.751  68.214  1.00  0.00    -0.199 C  
BRANCH   8   9
HETATM    9  O   UNL     1      -9.182  10.416  68.217  1.00  0.00    -0.142 OA 
BRANCH   9  10
HETATM   10  C   UNL     1     -10.098   9.407  68.069  1.00  0.00    -0.191 C  
HETATM   11  O   UNL     1     -11.142   9.526  67.446  1.00  0.00    -0.148 OA 
HETATM   12  C   UNL     1      -9.664   8.175  68.928  1.00  0.00    -0.156 C  
HETATM   13  C   UNL     1      -9.040   7.138  67.990  1.00  0.00    -0.132 A  
HETATM   14  O   UNL     1      -8.663   8.581  69.874  1.00  0.00    -0.128 OA 
HETATM   15  C   UNL     1     -10.919   7.646  69.709  1.00  0.00    -0.178 C  
HETATM   16  H   UNL     1      -8.399   7.833  70.396  1.00  0.00     0.000 HD 
HETATM   17  C   UNL     1      -7.714   6.695  68.169  1.00  0.00    -0.105 A  
HETATM   18  C   UNL     1     -10.651   6.394  70.569  1.00  0.00    -0.291 C  
HETATM   19  C   UNL     1      -7.136   5.776  67.292  1.00  0.00    -0.074 A  
HETATM   20  C   UNL     1      -9.888   6.678  71.860  1.00  0.00    -0.174 C  
HETATM   21  C   UNL     1     -10.565   7.753  72.705  1.00  0.00    -0.401 C  
HETATM   22  C   UNL     1      -7.868   5.283  66.221  1.00  0.00    -0.103 A  
HETATM   23  C   UNL     1      -9.180   5.703  66.025  1.00  0.00    -0.164 A  
HETATM   24  C   UNL     1     -10.909   9.010  71.921  1.00  0.00    -0.413 C  
HETATM   25  C   UNL     1     -11.616   8.707  70.601  1.00  0.00    -0.225 C  
HETATM   26  C   UNL     1      -9.763   6.619  66.902  1.00  0.00    -0.209 A  
ENDBRANCH   9  10
ENDBRANCH   8   9
ENDBRANCH   7   8
ENDBRANCH   3   7
ENDBRANCH   2   3
TORSDOF 6
ENDMDL
MODEL       92
REMARK 921   NORMALIZED FREE ENERGY PREDICTED BY IDOCK:   -4.08 KCAL/MOL
REMARK 922        TOTAL FREE ENERGY PREDICTED BY IDOCK:   -6.41 KCAL/MOL
REMARK 923 INTER-LIGAND FREE ENERGY PREDICTED BY IDOCK:   -5.63 KCAL/MOL
REMARK 924 INTRA-LIGAND FREE ENERGY PREDICTED BY IDOCK:   -0.78 KCAL/MOL
REMARK 927      BINDING AFFINITY PREDICTED BY RF-SCORE:    0.00 PKD
ROOT
HETATM    1  C   UNL     1     -11.789  11.810  69.559  1.00  0.00    -0.402 C  
HETATM    2  C   UNL     1     -11.743  12.139  68.077  1.00  0.00    -0.344 C  
ENDROOT
BRANCH   2   3
HETATM    3  N   UNL     1     -10.340  12.546  67.548  1.00  0.00    -0.218 N  
HETATM    4  C   UNL     1     -10.298  12.317  66.025  1.00  0.00    -0.245 C  
BRANCH   3   5
HETATM    5  C   UNL     1      -9.999  14.022  67.828  1.00  0.00    -0.236 C  
HETATM    6  C   UNL     1      -8.998  14.616  66.848  1.00  0.00    -0.275 C  
ENDBRANCH   3   5
BRANCH   3   7
HETATM    7  C   UNL     1      -9.340  11.585  68.224  1.00  0.00    -0.190 C  
BRANCH   7   8
HETATM    8  C   UNL     1      -8.863  10.403  67.376  1.00  0.00    -0.132 C  
BRANCH   8   9
HETATM    9  O   UNL     1      -8.864   9.274  68.262  1.00  0.00    -0.128 OA 
BRANCH   9  10
HETATM   10  C   UNL     1      -9.968   8.465  68.207  1.00  0.00    -0.187 C  
HETATM   11  O   UNL     1     -10.972   8.730  67.563  1.00  0.00    -0.120 OA 
HETATM   12  C   UNL     1      -9.788   7.265  69.192  1.00  0.00    -0.166 C  
HETATM   13  C   UNL     1      -9.397   6.032  68.373  1.00  0.00    -0.120 A  
HETATM   14  O   UNL     1      -8.716   7.552  70.104  1.00  0.00    -0.140 OA 
HETATM   15  C   UNL     1     -11.117   7.086  70.009  1.00  0.00    -0.316 C  
HETATM   16  H   UNL     1      -8.606   6.823  70.703  1.00  0.00     0.000 HD 
HETATM   17  C   UNL     1      -8.189   5.347  68.612  1.00  0.00    -0.094 A  
HETATM   18  C   UNL     1     -11.103   5.901  70.995  1.00  0.00    -0.315 C  
HETATM   19  C   UNL     1      -7.819   4.244  67.841  1.00  0.00    -0.079 A  
HETATM   20  C   UNL     1     -10.287   6.154  72.260  1.00  0.00    -0.221 C  
HETATM   21  C   UNL     1     -10.721   7.425  72.982  1.00  0.00    -0.413 C  
HETATM   22  C   UNL     1      -8.647   3.804  66.817  1.00  0.00    -0.108 A  
HETATM   23  C   UNL     1      -9.847   4.461  66.563  1.00  0.00    -0.247 A  
HETATM   24  C   UNL     1     -10.808   8.640  72.069  1.00  0.00    -0.430 C  
HETATM   25  C   UNL     1     -11.574   8.354  70.778  1.00  0.00    -0.252 C  
HETATM   26  C   UNL     1     -10.222   5.563  67.335  1.00  0.00    -0.253 A  
ENDBRANCH   9  10
ENDBRANCH   8   9
ENDBRANCH   7   8
ENDBRANCH   3   7
ENDBRANCH   2   3
TORSDOF 6
ENDMDL
MODEL       93
REMARK 921   NORMALIZED FREE ENERGY PREDICTED BY IDOCK:   -4.06 KCAL/MOL
REMARK 922        TOTAL FREE ENERGY PREDICTED BY IDOCK:   -6.39 KCAL/MOL
REMARK 923 INTER-LIGAND FREE ENERGY PREDICTED BY IDOCK:   -5.13 KCAL/MOL
REMARK 924 INTRA-LIGAND FREE ENERGY PREDICTED BY IDOCK:   -1.27 KCAL/MOL
REMARK 927      BINDING AFFINITY PREDICTED BY RF-SCORE:    0.00 PKD
ROOT
HETATM    1  C   UNL     1      -9.627   4.703  72.455  1.00  0.00    -0.192 C  
HETATM    2  C   UNL     1      -8.631   5.693  71.874  1.00  0.00    -0.131 C  
ENDROOT
BRANCH   2   3
HETATM    3  N   UNL     1      -7.964   6.629  72.919  1.00  0.00    -0.103 N  
HETATM    4  C   UNL     1      -9.037   7.104  73.916  1.00  0.00    -0.214 C  
BRANCH   3   5
HETATM    5  C   UNL     1      -6.836   5.937  73.709  1.00  0.00    -0.081 C  
HETATM    6  C   UNL     1      -5.951   6.902  74.484  1.00  0.00    -0.071 C  
ENDBRANCH   3   5
BRANCH   3   7
HETATM    7  C   UNL     1      -7.447   7.847  72.125  1.00  0.00    -0.084 C  
BRANCH   7   8
HETATM    8  C   UNL     1      -6.760   7.537  70.791  1.00  0.00    -0.043 C  
BRANCH   8   9
HETATM    9  O   UNL     1      -7.218   8.551  69.885  1.00  0.00    -0.050 OA 
BRANCH   9  10
HETATM   10  C   UNL     1      -8.247   8.197  69.053  1.00  0.00    -0.127 C  
HETATM   11  O   UNL     1      -8.170   7.307  68.219  1.00  0.00    -0.122 OA 
HETATM   12  C   UNL     1      -9.440   9.189  69.244  1.00  0.00    -0.158 C  
HETATM   13  C   UNL     1     -10.498   8.500  70.110  1.00  0.00    -0.226 A  
HETATM   14  O   UNL     1      -8.983  10.357  69.943  1.00  0.00    -0.394 OA 
HETATM   15  C   UNL     1      -9.965   9.616  67.827  1.00  0.00    -0.211 C  
HETATM   16  H   UNL     1      -9.708  10.960  70.060  1.00  0.00     0.000 HD 
HETATM   17  C   UNL     1     -10.910   9.052  71.339  1.00  0.00    -0.400 A  
HETATM   18  C   UNL     1     -11.180  10.565  67.859  1.00  0.00    -0.358 C  
HETATM   19  C   UNL     1     -11.848   8.404  72.144  1.00  0.00    -0.441 A  
HETATM   20  C   UNL     1     -10.838  12.003  68.235  1.00  0.00    -0.263 C  
HETATM   21  C   UNL     1      -9.746  12.588  67.344  1.00  0.00    -0.194 C  
HETATM   22  C   UNL     1     -12.393   7.193  71.737  1.00  0.00    -0.385 A  
HETATM   23  C   UNL     1     -12.004   6.628  70.526  1.00  0.00    -0.377 A  
HETATM   24  C   UNL     1      -8.523  11.691  67.218  1.00  0.00    -0.156 C  
HETATM   25  C   UNL     1      -8.885  10.240  66.904  1.00  0.00    -0.141 C  
HETATM   26  C   UNL     1     -11.068   7.276  69.718  1.00  0.00    -0.203 A  
ENDBRANCH   9  10
ENDBRANCH   8   9
ENDBRANCH   7   8
ENDBRANCH   3   7
ENDBRANCH   2   3
TORSDOF 6
ENDMDL
MODEL       94
REMARK 921   NORMALIZED FREE ENERGY PREDICTED BY IDOCK:   -4.06 KCAL/MOL
REMARK 922        TOTAL FREE ENERGY PREDICTED BY IDOCK:   -6.39 KCAL/MOL
REMARK 923 INTER-LIGAND FREE ENERGY PREDICTED BY IDOCK:   -5.89 KCAL/MOL
REMARK 924 INTRA-LIGAND FREE ENERGY PREDICTED BY IDOCK:   -0.50 KCAL/MOL
REMARK 927      BINDING AFFINITY PREDICTED BY RF-SCORE:    0.00 PKD
ROOT
HETATM    1  C   UNL     1      -9.502  15.568  65.850  1.00  0.00    -0.377 C  
HETATM    2  C   UNL     1     -10.740  15.024  65.160  1.00  0.00    -0.415 C  
ENDROOT
BRANCH   2   3
HETATM    3  N   UNL     1     -11.159  13.597  65.610  1.00  0.00    -0.293 N  
HETATM    4  C   UNL     1     -12.559  13.668  66.245  1.00  0.00    -0.291 C  
BRANCH   3   5
HETATM    5  C   UNL     1     -11.202  12.590  64.444  1.00  0.00    -0.339 C  
HETATM    6  C   UNL     1     -12.190  12.963  63.349  1.00  0.00    -0.574 C  
ENDBRANCH   3   5
BRANCH   3   7
HETATM    7  C   UNL     1     -10.140  13.181  66.692  1.00  0.00    -0.264 C  
BRANCH   7   8
HETATM    8  C   UNL     1     -10.654  12.215  67.763  1.00  0.00    -0.204 C  
BRANCH   8   9
HETATM    9  O   UNL     1     -10.386  10.902  67.249  1.00  0.00    -0.197 OA 
BRANCH   9  10
HETATM   10  C   UNL     1      -9.278  10.273  67.752  1.00  0.00    -0.141 C  
HETATM   11  O   UNL     1      -8.419  10.837  68.413  1.00  0.00    -0.123 OA 
HETATM   12  C   UNL     1      -9.227   8.802  67.224  1.00  0.00    -0.139 C  
HETATM   13  C   UNL     1      -9.707   7.878  68.347  1.00  0.00    -0.170 A  
HETATM   14  O   UNL     1     -10.126   8.661  66.115  1.00  0.00    -0.437 OA 
HETATM   15  C   UNL     1      -7.765   8.498  66.737  1.00  0.00    -0.091 C  
HETATM   16  H   UNL     1     -10.096   7.767  65.794  1.00  0.00     0.000 HD 
HETATM   17  C   UNL     1     -10.822   7.035  68.173  1.00  0.00    -0.214 A  
HETATM   18  C   UNL     1      -7.551   7.058  66.230  1.00  0.00    -0.092 C  
HETATM   19  C   UNL     1     -11.279   6.219  69.208  1.00  0.00    -0.458 A  
HETATM   20  C   UNL     1      -8.134   6.792  64.845  1.00  0.00    -0.112 C  
HETATM   21  C   UNL     1      -7.630   7.789  63.806  1.00  0.00    -0.118 C  
HETATM   22  C   UNL     1     -10.632   6.229  70.438  1.00  0.00    -0.309 A  
HETATM   23  C   UNL     1      -9.526   7.051  70.633  1.00  0.00    -0.165 A  
HETATM   24  C   UNL     1      -7.761   9.240  64.247  1.00  0.00    -0.119 C  
HETATM   25  C   UNL     1      -7.230   9.477  65.660  1.00  0.00    -0.094 C  
HETATM   26  C   UNL     1      -9.065   7.865  69.598  1.00  0.00    -0.153 A  
ENDBRANCH   9  10
ENDBRANCH   8   9
ENDBRANCH   7   8
ENDBRANCH   3   7
ENDBRANCH   2   3
TORSDOF 6
ENDMDL
MODEL       95
REMARK 921   NORMALIZED FREE ENERGY PREDICTED BY IDOCK:   -4.05 KCAL/MOL
REMARK 922        TOTAL FREE ENERGY PREDICTED BY IDOCK:   -6.37 KCAL/MOL
REMARK 923 INTER-LIGAND FREE ENERGY PREDICTED BY IDOCK:   -5.30 KCAL/MOL
REMARK 924 INTRA-LIGAND FREE ENERGY PREDICTED BY IDOCK:   -1.07 KCAL/MOL
REMARK 927      BINDING AFFINITY PREDICTED BY RF-SCORE:    0.00 PKD
ROOT
HETATM    1  C   UNL     1     -11.132   5.361  73.386  1.00  0.00    -0.326 C  
HETATM    2  C   UNL     1     -11.053   6.877  73.325  1.00  0.00    -0.152 C  
ENDROOT
BRANCH   2   3
HETATM    3  N   UNL     1     -11.386   7.487  71.935  1.00  0.00    -0.252 N  
HETATM    4  C   UNL     1     -12.872   7.232  71.624  1.00  0.00    -0.375 C  
BRANCH   3   5
HETATM    5  C   UNL     1     -11.128   9.005  71.870  1.00  0.00    -0.363 C  
HETATM    6  C   UNL     1     -12.227   9.783  71.163  1.00  0.00    -0.453 C  
ENDBRANCH   3   5
BRANCH   3   7
HETATM    7  C   UNL     1     -10.523   6.712  70.917  1.00  0.00    -0.215 C  
BRANCH   7   8
HETATM    8  C   UNL     1     -11.260   6.156  69.696  1.00  0.00    -0.418 C  
BRANCH   8   9
HETATM    9  O   UNL     1     -10.255   6.004  68.683  1.00  0.00    -0.157 OA 
BRANCH   9  10
HETATM   10  C   UNL     1     -10.440   6.730  67.536  1.00  0.00    -0.239 C  
HETATM   11  O   UNL     1     -11.359   6.541  66.754  1.00  0.00    -0.272 OA 
HETATM   12  C   UNL     1      -9.234   7.703  67.333  1.00  0.00    -0.132 C  
HETATM   13  C   UNL     1      -9.677   9.105  67.758  1.00  0.00    -0.188 A  
HETATM   14  O   UNL     1      -8.148   7.302  68.182  1.00  0.00    -0.121 OA 
HETATM   15  C   UNL     1      -8.769   7.614  65.835  1.00  0.00    -0.176 C  
HETATM   16  H   UNL     1      -7.414   7.893  68.058  1.00  0.00     0.000 HD 
HETATM   17  C   UNL     1      -9.010   9.803  68.784  1.00  0.00    -0.133 A  
HETATM   18  C   UNL     1      -7.607   8.561  65.473  1.00  0.00    -0.090 C  
HETATM   19  C   UNL     1      -9.437  11.067  69.194  1.00  0.00    -0.064 A  
HETATM   20  C   UNL     1      -6.246   8.102  65.987  1.00  0.00    -0.045 C  
HETATM   21  C   UNL     1      -5.913   6.680  65.548  1.00  0.00    -0.034 C  
HETATM   22  C   UNL     1     -10.538  11.658  68.588  1.00  0.00    -0.236 A  
HETATM   23  C   UNL     1     -11.212  10.990  67.570  1.00  0.00    -0.372 A  
HETATM   24  C   UNL     1      -7.030   5.684  65.826  1.00  0.00    -0.065 C  
HETATM   25  C   UNL     1      -8.396   6.185  65.362  1.00  0.00    -0.150 C  
HETATM   26  C   UNL     1     -10.785   9.727  67.155  1.00  0.00    -0.273 A  
ENDBRANCH   9  10
ENDBRANCH   8   9
ENDBRANCH   7   8
ENDBRANCH   3   7
ENDBRANCH   2   3
TORSDOF 6
ENDMDL
MODEL       96
REMARK 921   NORMALIZED FREE ENERGY PREDICTED BY IDOCK:   -4.05 KCAL/MOL
REMARK 922        TOTAL FREE ENERGY PREDICTED BY IDOCK:   -6.37 KCAL/MOL
REMARK 923 INTER-LIGAND FREE ENERGY PREDICTED BY IDOCK:   -5.70 KCAL/MOL
REMARK 924 INTRA-LIGAND FREE ENERGY PREDICTED BY IDOCK:   -0.67 KCAL/MOL
REMARK 927      BINDING AFFINITY PREDICTED BY RF-SCORE:    0.00 PKD
ROOT
HETATM    1  C   UNL     1      -8.082   8.457  68.485  1.00  0.00    -0.123 C  
HETATM    2  C   UNL     1      -8.857   8.739  69.761  1.00  0.00    -0.142 C  
ENDROOT
BRANCH   2   3
HETATM    3  N   UNL     1     -10.377   8.982  69.555  1.00  0.00    -0.204 N  
HETATM    4  C   UNL     1     -10.658   9.119  68.047  1.00  0.00    -0.197 C  
BRANCH   3   5
HETATM    5  C   UNL     1     -11.248   7.839  70.111  1.00  0.00    -0.159 C  
HETATM    6  C   UNL     1     -11.303   6.616  69.208  1.00  0.00    -0.301 C  
ENDBRANCH   3   5
BRANCH   3   7
HETATM    7  C   UNL     1     -10.686  10.328  70.244  1.00  0.00    -0.250 C  
BRANCH   7   8
HETATM    8  C   UNL     1     -11.607  11.281  69.476  1.00  0.00    -0.328 C  
BRANCH   8   9
HETATM    9  O   UNL     1     -10.802  12.433  69.183  1.00  0.00    -0.197 OA 
BRANCH   9  10
HETATM   10  C   UNL     1     -11.432  13.457  68.527  1.00  0.00    -0.310 C  
HETATM   11  O   UNL     1     -12.521  13.905  68.856  1.00  0.00    -0.188 OA 
HETATM   12  C   UNL     1     -10.622  13.836  67.246  1.00  0.00    -0.275 C  
HETATM   13  C   UNL     1      -9.831  15.113  67.544  1.00  0.00    -0.220 A  
HETATM   14  O   UNL     1      -9.685  12.791  66.946  1.00  0.00    -0.222 OA 
HETATM   15  C   UNL     1     -11.625  13.981  66.046  1.00  0.00    -0.362 C  
HETATM   16  H   UNL     1      -9.192  13.021  66.168  1.00  0.00     0.000 HD 
HETATM   17  C   UNL     1      -8.425  15.141  67.447  1.00  0.00    -0.202 A  
HETATM   18  C   UNL     1     -10.968  14.401  64.716  1.00  0.00    -0.409 C  
HETATM   19  C   UNL     1      -7.704  16.296  67.754  1.00  0.00    -0.157 A  
HETATM   20  C   UNL     1     -10.199  13.282  64.020  1.00  0.00     0.091 C  
HETATM   21  C   UNL     1     -11.058  12.040  63.805  1.00  0.00    -0.510 C  
HETATM   22  C   UNL     1      -8.371  17.443  68.163  1.00  0.00    -0.240 A  
HETATM   23  C   UNL     1      -9.759  17.441  68.264  1.00  0.00    -0.299 A  
HETATM   24  C   UNL     1     -11.784  11.581  65.062  1.00  0.00     0.050 C  
HETATM   25  C   UNL     1     -12.496  12.724  65.782  1.00  0.00    -0.253 C  
HETATM   26  C   UNL     1     -10.483  16.289  67.954  1.00  0.00    -0.295 A  
ENDBRANCH   9  10
ENDBRANCH   8   9
ENDBRANCH   7   8
ENDBRANCH   3   7
ENDBRANCH   2   3
TORSDOF 6
ENDMDL
MODEL       97
REMARK 921   NORMALIZED FREE ENERGY PREDICTED BY IDOCK:   -4.03 KCAL/MOL
REMARK 922        TOTAL FREE ENERGY PREDICTED BY IDOCK:   -6.35 KCAL/MOL
REMARK 923 INTER-LIGAND FREE ENERGY PREDICTED BY IDOCK:   -5.52 KCAL/MOL
REMARK 924 INTRA-LIGAND FREE ENERGY PREDICTED BY IDOCK:   -0.83 KCAL/MOL
REMARK 927      BINDING AFFINITY PREDICTED BY RF-SCORE:    0.00 PKD
ROOT
HETATM    1  C   UNL     1      -9.506   7.102  69.064  1.00  0.00    -0.143 C  
HETATM    2  C   UNL     1     -10.387   7.960  69.957  1.00  0.00    -0.221 C  
ENDROOT
BRANCH   2   3
HETATM    3  N   UNL     1     -10.919   9.257  69.287  1.00  0.00    -0.146 N  
HETATM    4  C   UNL     1     -11.247   8.955  67.813  1.00  0.00     0.572 C  
BRANCH   3   5
HETATM    5  C   UNL     1     -12.189   9.804  69.968  1.00  0.00     0.198 C  
HETATM    6  C   UNL     1     -11.978  11.131  70.680  1.00  0.00    -0.459 C  
ENDBRANCH   3   5
BRANCH   3   7
HETATM    7  C   UNL     1      -9.755  10.268  69.343  1.00  0.00    -0.222 C  
BRANCH   7   8
HETATM    8  C   UNL     1      -9.578  11.157  68.109  1.00  0.00    -0.179 C  
BRANCH   8   9
HETATM    9  O   UNL     1      -9.651  12.504  68.598  1.00  0.00    -0.144 OA 
BRANCH   9  10
HETATM   10  C   UNL     1     -10.761  13.219  68.234  1.00  0.00    -0.252 C  
HETATM   11  O   UNL     1     -11.665  12.765  67.547  1.00  0.00    -0.337 OA 
HETATM   12  C   UNL     1     -10.608  14.702  68.702  1.00  0.00    -0.252 C  
HETATM   13  C   UNL     1     -11.452  14.892  69.965  1.00  0.00    -0.317 A  
HETATM   14  O   UNL     1      -9.236  14.956  69.040  1.00  0.00    -0.197 OA 
HETATM   15  C   UNL     1     -11.023  15.644  67.517  1.00  0.00    -0.309 C  
HETATM   16  H   UNL     1      -9.142  15.858  69.325  1.00  0.00     0.000 HD 
HETATM   17  C   UNL     1     -10.869  15.307  71.179  1.00  0.00    -0.134 A  
HETATM   18  C   UNL     1     -10.966  17.149  67.851  1.00  0.00    -0.208 C  
HETATM   19  C   UNL     1     -11.635  15.446  72.337  1.00  0.00    -0.545 A  
HETATM   20  C   UNL     1      -9.553  17.724  67.895  1.00  0.00    -0.280 C  
HETATM   21  C   UNL     1      -8.778  17.447  66.611  1.00  0.00    -0.286 C  
HETATM   22  C   UNL     1     -12.996  15.172  72.307  1.00  0.00    -0.442 A  
HETATM   23  C   UNL     1     -13.596  14.763  71.119  1.00  0.00    -0.432 A  
HETATM   24  C   UNL     1      -8.822  15.988  66.180  1.00  0.00    -0.366 C  
HETATM   25  C   UNL     1     -10.235  15.409  66.202  1.00  0.00    -0.324 C  
HETATM   26  C   UNL     1     -12.833  14.627  69.958  1.00  0.00    -0.094 A  
ENDBRANCH   9  10
ENDBRANCH   8   9
ENDBRANCH   7   8
ENDBRANCH   3   7
ENDBRANCH   2   3
TORSDOF 6
ENDMDL
MODEL       98
REMARK 921   NORMALIZED FREE ENERGY PREDICTED BY IDOCK:   -4.02 KCAL/MOL
REMARK 922        TOTAL FREE ENERGY PREDICTED BY IDOCK:   -6.34 KCAL/MOL
REMARK 923 INTER-LIGAND FREE ENERGY PREDICTED BY IDOCK:   -5.68 KCAL/MOL
REMARK 924 INTRA-LIGAND FREE ENERGY PREDICTED BY IDOCK:   -0.66 KCAL/MOL
REMARK 927      BINDING AFFINITY PREDICTED BY RF-SCORE:    0.00 PKD
ROOT
HETATM    1  C   UNL     1      -5.156  19.354  65.961  1.00  0.00    -0.159 C  
HETATM    2  C   UNL     1      -5.877  20.352  66.851  1.00  0.00    -0.172 C  
ENDROOT
BRANCH   2   3
HETATM    3  N   UNL     1      -6.964  19.731  67.771  1.00  0.00    -0.247 N  
HETATM    4  C   UNL     1      -6.598  20.020  69.238  1.00  0.00    -0.311 C  
BRANCH   3   5
HETATM    5  C   UNL     1      -8.372  20.296  67.500  1.00  0.00    -0.310 C  
HETATM    6  C   UNL     1      -8.958  19.864  66.164  1.00  0.00    -0.373 C  
ENDBRANCH   3   5
BRANCH   3   7
HETATM    7  C   UNL     1      -6.899  18.208  67.531  1.00  0.00    -0.196 C  
BRANCH   7   8
HETATM    8  C   UNL     1      -7.679  17.337  68.521  1.00  0.00    -0.261 C  
BRANCH   8   9
HETATM    9  O   UNL     1      -8.738  16.745  67.753  1.00  0.00    -0.205 OA 
BRANCH   9  10
HETATM   10  C   UNL     1      -9.312  15.621  68.285  1.00  0.00    -0.192 C  
HETATM   11  O   UNL     1      -9.878  15.596  69.368  1.00  0.00    -0.248 OA 
HETATM   12  C   UNL     1      -8.997  14.391  67.374  1.00  0.00    -0.199 C  
HETATM   13  C   UNL     1     -10.244  14.087  66.539  1.00  0.00    -0.279 A  
HETATM   14  O   UNL     1      -7.928  14.723  66.475  1.00  0.00    -0.269 OA 
HETATM   15  C   UNL     1      -8.542  13.197  68.288  1.00  0.00    -0.166 C  
HETATM   16  H   UNL     1      -7.736  13.976  65.921  1.00  0.00     0.000 HD 
HETATM   17  C   UNL     1     -10.203  14.105  65.131  1.00  0.00    -0.411 A  
HETATM   18  C   UNL     1      -8.241  11.892  67.524  1.00  0.00    -0.155 C  
HETATM   19  C   UNL     1     -11.348  13.862  64.371  1.00  0.00    -0.352 A  
HETATM   20  C   UNL     1      -6.914  11.903  66.771  1.00  0.00    -0.003 C  
HETATM   21  C   UNL     1      -5.739  12.257  67.677  1.00  0.00    -0.113 C  
HETATM   22  C   UNL     1     -12.556  13.597  65.003  1.00  0.00    -0.434 A  
HETATM   23  C   UNL     1     -12.622  13.570  66.393  1.00  0.00    -0.244 A  
HETATM   24  C   UNL     1      -5.972  13.512  68.506  1.00  0.00    -0.090 C  
HETATM   25  C   UNL     1      -7.331  13.515  69.203  1.00  0.00     0.074 C  
HETATM   26  C   UNL     1     -11.477  13.810  67.155  1.00  0.00    -0.365 A  
ENDBRANCH   9  10
ENDBRANCH   8   9
ENDBRANCH   7   8
ENDBRANCH   3   7
ENDBRANCH   2   3
TORSDOF 6
ENDMDL
MODEL       99
REMARK 921   NORMALIZED FREE ENERGY PREDICTED BY IDOCK:   -4.02 KCAL/MOL
REMARK 922        TOTAL FREE ENERGY PREDICTED BY IDOCK:   -6.33 KCAL/MOL
REMARK 923 INTER-LIGAND FREE ENERGY PREDICTED BY IDOCK:   -5.18 KCAL/MOL
REMARK 924 INTRA-LIGAND FREE ENERGY PREDICTED BY IDOCK:   -1.14 KCAL/MOL
REMARK 927      BINDING AFFINITY PREDICTED BY RF-SCORE:    0.00 PKD
ROOT
HETATM    1  C   UNL     1     -10.220   8.321  66.837  1.00  0.00    -0.388 C  
HETATM    2  C   UNL     1      -9.309   8.994  67.849  1.00  0.00    -0.141 C  
ENDROOT
BRANCH   2   3
HETATM    3  N   UNL     1      -8.004   9.588  67.251  1.00  0.00    -0.106 N  
HETATM    4  C   UNL     1      -6.959   8.464  67.126  1.00  0.00    -0.075 C  
BRANCH   3   5
HETATM    5  C   UNL     1      -8.214  10.216  65.859  1.00  0.00    -0.138 C  
HETATM    6  C   UNL     1      -7.389   9.561  64.762  1.00  0.00    -0.112 C  
ENDBRANCH   3   5
BRANCH   3   7
HETATM    7  C   UNL     1      -7.502  10.624  68.279  1.00  0.00    -0.091 C  
BRANCH   7   8
HETATM    8  C   UNL     1      -7.066  11.977  67.712  1.00  0.00    -0.108 C  
BRANCH   8   9
HETATM    9  O   UNL     1      -7.744  12.959  68.510  1.00  0.00    -0.129 OA 
BRANCH   9  10
HETATM   10  C   UNL     1      -8.352  13.977  67.824  1.00  0.00    -0.176 C  
HETATM   11  O   UNL     1      -7.744  14.899  67.298  1.00  0.00    -0.192 OA 
HETATM   12  C   UNL     1      -9.904  13.844  67.954  1.00  0.00    -0.228 C  
HETATM   13  C   UNL     1     -10.441  13.248  66.651  1.00  0.00    -0.279 A  
HETATM   14  O   UNL     1     -10.217  12.937  69.022  1.00  0.00    -0.431 OA 
HETATM   15  C   UNL     1     -10.498  15.257  68.295  1.00  0.00    -0.244 C  
HETATM   16  H   UNL     1     -11.160  12.856  69.102  1.00  0.00     0.000 HD 
HETATM   17  C   UNL     1     -11.159  12.035  66.642  1.00  0.00    -0.358 A  
HETATM   18  C   UNL     1     -12.036  15.289  68.408  1.00  0.00    -0.189 C  
HETATM   19  C   UNL     1     -11.617  11.476  65.449  1.00  0.00     0.012 A  
HETATM   20  C   UNL     1     -12.578  14.681  69.699  1.00  0.00    -0.105 C  
HETATM   21  C   UNL     1     -11.953  15.310  70.940  1.00  0.00    -0.391 C  
HETATM   22  C   UNL     1     -11.368  12.115  64.242  1.00  0.00    -0.426 A  
HETATM   23  C   UNL     1     -10.664  13.315  64.224  1.00  0.00    -0.408 A  
HETATM   24  C   UNL     1     -10.432  15.363  70.890  1.00  0.00     0.139 C  
HETATM   25  C   UNL     1      -9.904  15.915  69.568  1.00  0.00    -0.268 C  
HETATM   26  C   UNL     1     -10.207  13.879  65.416  1.00  0.00    -0.356 A  
ENDBRANCH   9  10
ENDBRANCH   8   9
ENDBRANCH   7   8
ENDBRANCH   3   7
ENDBRANCH   2   3
TORSDOF 6
ENDMDL
MODEL      100
REMARK 921   NORMALIZED FREE ENERGY PREDICTED BY IDOCK:   -3.99 KCAL/MOL
REMARK 922        TOTAL FREE ENERGY PREDICTED BY IDOCK:   -6.30 KCAL/MOL
REMARK 923 INTER-LIGAND FREE ENERGY PREDICTED BY IDOCK:   -5.99 KCAL/MOL
REMARK 924 INTRA-LIGAND FREE ENERGY PREDICTED BY IDOCK:   -0.31 KCAL/MOL
REMARK 927      BINDING AFFINITY PREDICTED BY RF-SCORE:    0.00 PKD
ROOT
HETATM    1  C   UNL     1      -9.350  11.056  64.809  1.00  0.00    -0.239 C  
HETATM    2  C   UNL     1     -10.589  10.859  65.666  1.00  0.00    -0.164 C  
ENDROOT
BRANCH   2   3
HETATM    3  N   UNL     1     -11.221  12.173  66.203  1.00  0.00    -0.323 N  
HETATM    4  C   UNL     1     -12.368  12.591  65.265  1.00  0.00    -0.403 C  
BRANCH   3   5
HETATM    5  C   UNL     1     -11.785  12.026  67.629  1.00  0.00    -0.294 C  
HETATM    6  C   UNL     1     -11.749  10.601  68.159  1.00  0.00    -0.092 C  
ENDBRANCH   3   5
BRANCH   3   7
HETATM    7  C   UNL     1     -10.105  13.237  66.131  1.00  0.00    -0.293 C  
BRANCH   7   8
HETATM    8  C   UNL     1      -9.450  13.614  67.463  1.00  0.00    -0.222 C  
BRANCH   8   9
HETATM    9  O   UNL     1      -9.635  15.031  67.589  1.00  0.00    -0.202 OA 
BRANCH   9  10
HETATM   10  C   UNL     1      -8.687  15.818  66.990  1.00  0.00    -0.224 C  
HETATM   11  O   UNL     1      -8.295  15.656  65.844  1.00  0.00     0.114 OA 
HETATM   12  C   UNL     1      -8.107  16.826  68.035  1.00  0.00    -0.187 C  
HETATM   13  C   UNL     1      -8.752  18.192  67.787  1.00  0.00    -0.259 A  
HETATM   14  O   UNL     1      -8.462  16.399  69.358  1.00  0.00    -0.166 OA 
HETATM   15  C   UNL     1      -6.542  16.833  67.904  1.00  0.00    -0.153 C  
HETATM   16  H   UNL     1      -8.109  17.011  69.994  1.00  0.00     0.000 HD 
HETATM   17  C   UNL     1      -9.494  18.843  68.791  1.00  0.00    -0.407 A  
HETATM   18  C   UNL     1      -5.830  17.823  68.848  1.00  0.00    -0.188 C  
HETATM   19  C   UNL     1     -10.111  20.072  68.552  1.00  0.00    -0.487 A  
HETATM   20  C   UNL     1      -5.769  17.363  70.302  1.00  0.00    -0.192 C  
HETATM   21  C   UNL     1      -5.150  15.976  70.442  1.00  0.00    -0.167 C  
HETATM   22  C   UNL     1      -9.998  20.674  67.305  1.00  0.00    -0.452 A  
HETATM   23  C   UNL     1      -9.267  20.053  66.298  1.00  0.00    -0.426 A  
HETATM   24  C   UNL     1      -5.765  14.942  69.508  1.00  0.00    -0.099 C  
HETATM   25  C   UNL     1      -5.877  15.441  68.069  1.00  0.00    -0.150 C  
HETATM   26  C   UNL     1      -8.647  18.825  66.535  1.00  0.00    -0.312 A  
ENDBRANCH   9  10
ENDBRANCH   8   9
ENDBRANCH   7   8
ENDBRANCH   3   7
ENDBRANCH   2   3
TORSDOF 6
ENDMDL
MODEL      101
REMARK 921   NORMALIZED FREE ENERGY PREDICTED BY IDOCK:   -3.96 KCAL/MOL
REMARK 922        TOTAL FREE ENERGY PREDICTED BY IDOCK:   -6.25 KCAL/MOL
REMARK 923 INTER-LIGAND FREE ENERGY PREDICTED BY IDOCK:   -5.80 KCAL/MOL
REMARK 924 INTRA-LIGAND FREE ENERGY PREDICTED BY IDOCK:   -0.45 KCAL/MOL
REMARK 927      BINDING AFFINITY PREDICTED BY RF-SCORE:    0.00 PKD
ROOT
HETATM    1  C   UNL     1     -10.794   5.908  69.277  1.00  0.00    -0.414 C  
HETATM    2  C   UNL     1     -11.002   7.153  70.122  1.00  0.00    -0.267 C  
ENDROOT
BRANCH   2   3
HETATM    3  N   UNL     1      -9.760   8.079  70.226  1.00  0.00    -0.175 N  
HETATM    4  C   UNL     1      -9.954   9.038  71.416  1.00  0.00    -0.318 C  
BRANCH   3   5
HETATM    5  C   UNL     1      -8.448   7.299  70.438  1.00  0.00    -0.139 C  
HETATM    6  C   UNL     1      -7.569   7.868  71.542  1.00  0.00    -0.083 C  
ENDBRANCH   3   5
BRANCH   3   7
HETATM    7  C   UNL     1      -9.736   8.902  68.921  1.00  0.00    -0.171 C  
BRANCH   7   8
HETATM    8  C   UNL     1      -8.873  10.167  68.939  1.00  0.00    -0.154 C  
BRANCH   8   9
HETATM    9  O   UNL     1      -9.337  10.959  67.836  1.00  0.00    -0.151 OA 
BRANCH   9  10
HETATM   10  C   UNL     1     -10.174  11.997  68.149  1.00  0.00    -0.201 C  
HETATM   11  O   UNL     1     -11.001  11.954  69.048  1.00  0.00    -0.223 OA 
HETATM   12  C   UNL     1     -10.000  13.144  67.102  1.00  0.00    -0.236 C  
HETATM   13  C   UNL     1      -9.138  14.239  67.736  1.00  0.00    -0.195 A  
HETATM   14  O   UNL     1      -9.306  12.640  65.951  1.00  0.00    -0.426 OA 
HETATM   15  C   UNL     1     -11.425  13.638  66.662  1.00  0.00    -0.365 C  
HETATM   16  H   UNL     1      -9.200  13.337  65.314  1.00  0.00     0.000 HD 
HETATM   17  C   UNL     1      -7.916  14.635  67.156  1.00  0.00    -0.184 A  
HETATM   18  C   UNL     1     -11.410  14.809  65.659  1.00  0.00    -0.343 C  
HETATM   19  C   UNL     1      -7.115  15.609  67.754  1.00  0.00    -0.174 A  
HETATM   20  C   UNL     1     -11.042  14.404  64.234  1.00  0.00    -0.063 C  
HETATM   21  C   UNL     1     -11.928  13.280  63.707  1.00  0.00    -0.551 C  
HETATM   22  C   UNL     1      -7.517  16.205  68.942  1.00  0.00    -0.197 A  
HETATM   23  C   UNL     1      -8.720  15.833  69.533  1.00  0.00    -0.160 A  
HETATM   24  C   UNL     1     -12.037  12.098  64.661  1.00  0.00    -0.389 C  
HETATM   25  C   UNL     1     -12.344  12.524  66.095  1.00  0.00    -0.011 C  
HETATM   26  C   UNL     1      -9.526  14.862  68.935  1.00  0.00    -0.209 A  
ENDBRANCH   9  10
ENDBRANCH   8   9
ENDBRANCH   7   8
ENDBRANCH   3   7
ENDBRANCH   2   3
TORSDOF 6
ENDMDL
MODEL      102
REMARK 921   NORMALIZED FREE ENERGY PREDICTED BY IDOCK:   -3.93 KCAL/MOL
REMARK 922        TOTAL FREE ENERGY PREDICTED BY IDOCK:   -6.21 KCAL/MOL
REMARK 923 INTER-LIGAND FREE ENERGY PREDICTED BY IDOCK:   -5.24 KCAL/MOL
REMARK 924 INTRA-LIGAND FREE ENERGY PREDICTED BY IDOCK:   -0.97 KCAL/MOL
REMARK 927      BINDING AFFINITY PREDICTED BY RF-SCORE:    0.00 PKD
ROOT
HETATM    1  C   UNL     1     -11.268   6.214  71.039  1.00  0.00    -0.361 C  
HETATM    2  C   UNL     1     -11.114   6.074  69.535  1.00  0.00    -0.398 C  
ENDROOT
BRANCH   2   3
HETATM    3  N   UNL     1      -9.760   5.466  69.077  1.00  0.00    -0.140 N  
HETATM    4  C   UNL     1      -8.618   6.172  69.830  1.00  0.00    -0.132 C  
BRANCH   3   5
HETATM    5  C   UNL     1      -9.661   3.952  69.349  1.00  0.00    -0.169 C  
HETATM    6  C   UNL     1      -9.363   3.125  68.108  1.00  0.00    -0.247 C  
ENDBRANCH   3   5
BRANCH   3   7
HETATM    7  C   UNL     1      -9.641   5.789  67.572  1.00  0.00    -0.114 C  
BRANCH   7   8
HETATM    8  C   UNL     1     -10.450   6.990  67.076  1.00  0.00    -0.316 C  
BRANCH   8   9
HETATM    9  O   UNL     1      -9.479   7.922  66.576  1.00  0.00    -0.196 OA 
BRANCH   9  10
HETATM   10  C   UNL     1      -9.856   9.238  66.568  1.00  0.00    -0.263 C  
HETATM   11  O   UNL     1     -10.536   9.744  65.688  1.00  0.00    -0.106 OA 
HETATM   12  C   UNL     1      -9.165   9.988  67.753  1.00  0.00    -0.134 C  
HETATM   13  C   UNL     1     -10.198  10.166  68.870  1.00  0.00    -0.213 A  
HETATM   14  O   UNL     1      -8.090   9.186  68.264  1.00  0.00    -0.103 OA 
HETATM   15  C   UNL     1      -8.580  11.342  67.213  1.00  0.00    -0.143 C  
HETATM   16  H   UNL     1      -7.670   9.642  68.985  1.00  0.00     0.000 HD 
HETATM   17  C   UNL     1      -9.983   9.633  70.156  1.00  0.00    -0.309 A  
HETATM   18  C   UNL     1      -7.905  12.216  68.289  1.00  0.00    -0.153 C  
HETATM   19  C   UNL     1     -10.941   9.766  71.162  1.00  0.00    -0.386 A  
HETATM   20  C   UNL     1      -6.528  11.721  68.721  1.00  0.00    -0.066 C  
HETATM   21  C   UNL     1      -5.585  11.535  67.537  1.00  0.00    -0.062 C  
HETATM   22  C   UNL     1     -12.132  10.431  70.903  1.00  0.00    -0.477 A  
HETATM   23  C   UNL     1     -12.367  10.969  69.642  1.00  0.00    -0.303 A  
HETATM   24  C   UNL     1      -6.191  10.719  66.403  1.00  0.00    -0.119 C  
HETATM   25  C   UNL     1      -7.595  11.187  66.025  1.00  0.00     0.023 C  
HETATM   26  C   UNL     1     -11.409  10.841  68.634  1.00  0.00    -0.356 A  
ENDBRANCH   9  10
ENDBRANCH   8   9
ENDBRANCH   7   8
ENDBRANCH   3   7
ENDBRANCH   2   3
TORSDOF 6
ENDMDL
MODEL      103
REMARK 921   NORMALIZED FREE ENERGY PREDICTED BY IDOCK:   -3.89 KCAL/MOL
REMARK 922        TOTAL FREE ENERGY PREDICTED BY IDOCK:   -6.16 KCAL/MOL
REMARK 923 INTER-LIGAND FREE ENERGY PREDICTED BY IDOCK:   -5.61 KCAL/MOL
REMARK 924 INTRA-LIGAND FREE ENERGY PREDICTED BY IDOCK:   -0.56 KCAL/MOL
REMARK 927      BINDING AFFINITY PREDICTED BY RF-SCORE:    0.00 PKD
ROOT
HETATM    1  C   UNL     1      -7.591  11.732  67.306  1.00  0.00    -0.150 C  
HETATM    2  C   UNL     1      -7.950  10.960  66.048  1.00  0.00    -0.132 C  
ENDROOT
BRANCH   2   3
HETATM    3  N   UNL     1      -9.440  11.072  65.623  1.00  0.00    -0.208 N  
HETATM    4  C   UNL     1     -10.020  12.382  66.187  1.00  0.00    -0.253 C  
BRANCH   3   5
HETATM    5  C   UNL     1      -9.628  11.074  64.094  1.00  0.00    -0.266 C  
HETATM    6  C   UNL     1     -10.476  12.230  63.583  1.00  0.00    -0.483 C  
ENDBRANCH   3   5
BRANCH   3   7
HETATM    7  C   UNL     1     -10.159   9.880  66.290  1.00  0.00    -0.241 C  
BRANCH   7   8
HETATM    8  C   UNL     1      -9.397   8.552  66.294  1.00  0.00    -0.224 C  
BRANCH   8   9
HETATM    9  O   UNL     1      -9.999   7.773  67.338  1.00  0.00    -0.162 OA 
BRANCH   9  10
HETATM   10  C   UNL     1      -9.306   7.710  68.519  1.00  0.00    -0.147 C  
HETATM   11  O   UNL     1      -8.326   8.396  68.768  1.00  0.00    -0.115 OA 
HETATM   12  C   UNL     1      -9.873   6.548  69.397  1.00  0.00    -0.146 C  
HETATM   13  C   UNL     1     -10.770   7.161  70.476  1.00  0.00    -0.259 A  
HETATM   14  O   UNL     1     -10.681   5.684  68.583  1.00  0.00    -0.229 OA 
HETATM   15  C   UNL     1      -8.666   5.724  69.973  1.00  0.00    -0.132 C  
HETATM   16  H   UNL     1     -11.025   4.977  69.116  1.00  0.00     0.000 HD 
HETATM   17  C   UNL     1     -12.130   6.808  70.583  1.00  0.00    -0.371 A  
HETATM   18  C   UNL     1      -9.075   4.564  70.903  1.00  0.00    -0.185 C  
HETATM   19  C   UNL     1     -12.955   7.394  71.544  1.00  0.00    -0.421 A  
HETATM   20  C   UNL     1      -9.637   3.348  70.173  1.00  0.00    -0.211 C  
HETATM   21  C   UNL     1      -8.692   2.837  69.091  1.00  0.00    -0.134 C  
HETATM   22  C   UNL     1     -12.438   8.344  72.416  1.00  0.00    -0.390 A  
HETATM   23  C   UNL     1     -11.097   8.707  72.333  1.00  0.00    -0.328 A  
HETATM   24  C   UNL     1      -8.200   3.930  68.152  1.00  0.00    -0.092 C  
HETATM   25  C   UNL     1      -7.698   5.166  68.896  1.00  0.00    -0.081 C  
HETATM   26  C   UNL     1     -10.269   8.119  71.374  1.00  0.00    -0.248 A  
ENDBRANCH   9  10
ENDBRANCH   8   9
ENDBRANCH   7   8
ENDBRANCH   3   7
ENDBRANCH   2   3
TORSDOF 6
ENDMDL
MODEL      104
REMARK 921   NORMALIZED FREE ENERGY PREDICTED BY IDOCK:   -3.88 KCAL/MOL
REMARK 922        TOTAL FREE ENERGY PREDICTED BY IDOCK:   -6.15 KCAL/MOL
REMARK 923 INTER-LIGAND FREE ENERGY PREDICTED BY IDOCK:   -5.68 KCAL/MOL
REMARK 924 INTRA-LIGAND FREE ENERGY PREDICTED BY IDOCK:   -0.47 KCAL/MOL
REMARK 927      BINDING AFFINITY PREDICTED BY RF-SCORE:    0.00 PKD
ROOT
HETATM    1  C   UNL     1     -10.380  15.699  65.454  1.00  0.00    -0.421 C  
HETATM    2  C   UNL     1     -10.271  14.296  66.028  1.00  0.00    -0.315 C  
ENDROOT
BRANCH   2   3
HETATM    3  N   UNL     1     -11.325  13.292  65.488  1.00  0.00    -0.291 N  
HETATM    4  C   UNL     1     -12.703  13.980  65.470  1.00  0.00    -0.486 C  
BRANCH   3   5
HETATM    5  C   UNL     1     -11.008  12.799  64.063  1.00  0.00    -0.415 C  
HETATM    6  C   UNL     1     -12.147  12.027  63.414  1.00  0.00    -0.597 C  
ENDBRANCH   3   5
BRANCH   3   7
HETATM    7  C   UNL     1     -11.361  12.131  66.504  1.00  0.00    -0.350 C  
BRANCH   7   8
HETATM    8  C   UNL     1     -10.002  11.639  67.011  1.00  0.00    -0.204 C  
BRANCH   8   9
HETATM    9  O   UNL     1      -9.886  10.289  66.539  1.00  0.00    -0.194 OA 
BRANCH   9  10
HETATM   10  C   UNL     1     -10.192   9.306  67.442  1.00  0.00    -0.243 C  
HETATM   11  O   UNL     1     -11.246   9.254  68.058  1.00  0.00     0.009 OA 
HETATM   12  C   UNL     1      -8.947   8.384  67.654  1.00  0.00    -0.135 C  
HETATM   13  C   UNL     1      -9.168   7.096  66.856  1.00  0.00    -0.174 A  
HETATM   14  O   UNL     1      -7.777   9.035  67.135  1.00  0.00    -0.097 OA 
HETATM   15  C   UNL     1      -8.758   8.148  69.195  1.00  0.00    -0.140 C  
HETATM   16  H   UNL     1      -7.020   8.475  67.263  1.00  0.00     0.000 HD 
HETATM   17  C   UNL     1      -8.269   6.697  65.848  1.00  0.00    -0.132 A  
HETATM   18  C   UNL     1      -7.587   7.212  69.556  1.00  0.00    -0.101 C  
HETATM   19  C   UNL     1      -8.491   5.541  65.099  1.00  0.00    -0.147 A  
HETATM   20  C   UNL     1      -6.210   7.857  69.422  1.00  0.00    -0.034 C  
HETATM   21  C   UNL     1      -6.101   9.154  70.217  1.00  0.00    -0.040 C  
HETATM   22  C   UNL     1      -9.615   4.762  65.341  1.00  0.00    -0.152 A  
HETATM   23  C   UNL     1     -10.517   5.134  66.333  1.00  0.00    -0.356 A  
HETATM   24  C   UNL     1      -7.248  10.121  69.956  1.00  0.00    -0.166 C  
HETATM   25  C   UNL     1      -8.616   9.448  70.031  1.00  0.00    -0.218 C  
HETATM   26  C   UNL     1     -10.295   6.288  67.087  1.00  0.00    -0.286 A  
ENDBRANCH   9  10
ENDBRANCH   8   9
ENDBRANCH   7   8
ENDBRANCH   3   7
ENDBRANCH   2   3
TORSDOF 6
ENDMDL
MODEL      105
REMARK 921   NORMALIZED FREE ENERGY PREDICTED BY IDOCK:   -3.87 KCAL/MOL
REMARK 922        TOTAL FREE ENERGY PREDICTED BY IDOCK:   -6.13 KCAL/MOL
REMARK 923 INTER-LIGAND FREE ENERGY PREDICTED BY IDOCK:   -5.48 KCAL/MOL
REMARK 924 INTRA-LIGAND FREE ENERGY PREDICTED BY IDOCK:   -0.66 KCAL/MOL
REMARK 927      BINDING AFFINITY PREDICTED BY RF-SCORE:    0.00 PKD
ROOT
HETATM    1  C   UNL     1     -12.820  15.427  69.715  1.00  0.00     0.080 C  
HETATM    2  C   UNL     1     -11.581  14.550  69.760  1.00  0.00    -0.295 C  
ENDROOT
BRANCH   2   3
HETATM    3  N   UNL     1     -11.229  13.856  68.416  1.00  0.00    -0.250 N  
HETATM    4  C   UNL     1     -11.754  12.409  68.452  1.00  0.00    -0.336 C  
BRANCH   3   5
HETATM    5  C   UNL     1     -11.845  14.568  67.196  1.00  0.00    -0.387 C  
HETATM    6  C   UNL     1     -12.190  13.629  66.049  1.00  0.00    -0.492 C  
ENDBRANCH   3   5
BRANCH   3   7
HETATM    7  C   UNL     1      -9.688  13.827  68.347  1.00  0.00    -0.219 C  
BRANCH   7   8
HETATM    8  C   UNL     1      -9.042  14.768  67.328  1.00  0.00    -0.204 C  
BRANCH   8   9
HETATM    9  O   UNL     1      -7.956  15.396  68.025  1.00  0.00    -0.124 OA 
BRANCH   9  10
HETATM   10  C   UNL     1      -7.383  16.474  67.404  1.00  0.00    -0.147 C  
HETATM   11  O   UNL     1      -6.678  16.389  66.409  1.00  0.00    -0.186 OA 
HETATM   12  C   UNL     1      -7.653  17.766  68.242  1.00  0.00    -0.256 C  
HETATM   13  C   UNL     1      -8.783  18.545  67.565  1.00  0.00    -0.272 A  
HETATM   14  O   UNL     1      -8.090  17.398  69.559  1.00  0.00     0.214 OA 
HETATM   15  C   UNL     1      -6.310  18.573  68.358  1.00  0.00    -0.217 C  
HETATM   16  H   UNL     1      -8.254  18.182  70.069  1.00  0.00     0.000 HD 
HETATM   17  C   UNL     1      -9.980  18.839  68.248  1.00  0.00    -0.432 A  
HETATM   18  C   UNL     1      -6.435  19.905  69.125  1.00  0.00    -0.370 C  
HETATM   19  C   UNL     1     -11.023  19.518  67.619  1.00  0.00    -0.340 A  
HETATM   20  C   UNL     1      -6.542  19.745  70.639  1.00  0.00     0.015 C  
HETATM   21  C   UNL     1      -5.395  18.919  71.213  1.00  0.00    -0.274 C  
HETATM   22  C   UNL     1     -10.893  19.917  66.295  1.00  0.00    -0.317 A  
HETATM   23  C   UNL     1      -9.719  19.641  65.599  1.00  0.00     0.029 A  
HETATM   24  C   UNL     1      -5.171  17.603  70.482  1.00  0.00    -0.264 C  
HETATM   25  C   UNL     1      -5.129  17.771  68.965  1.00  0.00    -0.174 C  
HETATM   26  C   UNL     1      -8.673  18.965  66.228  1.00  0.00    -0.260 A  
ENDBRANCH   9  10
ENDBRANCH   8   9
ENDBRANCH   7   8
ENDBRANCH   3   7
ENDBRANCH   2   3
TORSDOF 6
ENDMDL
MODEL      106
REMARK 921   NORMALIZED FREE ENERGY PREDICTED BY IDOCK:   -3.86 KCAL/MOL
REMARK 922        TOTAL FREE ENERGY PREDICTED BY IDOCK:   -6.12 KCAL/MOL
REMARK 923 INTER-LIGAND FREE ENERGY PREDICTED BY IDOCK:   -5.56 KCAL/MOL
REMARK 924 INTRA-LIGAND FREE ENERGY PREDICTED BY IDOCK:   -0.56 KCAL/MOL
REMARK 927      BINDING AFFINITY PREDICTED BY RF-SCORE:    0.00 PKD
ROOT
HETATM    1  C   UNL     1     -13.674   8.371  71.642  1.00  0.00    -0.403 C  
HETATM    2  C   UNL     1     -12.261   8.895  71.832  1.00  0.00    -0.374 C  
ENDROOT
BRANCH   2   3
HETATM    3  N   UNL     1     -11.160   7.799  71.838  1.00  0.00    -0.247 N  
HETATM    4  C   UNL     1     -10.442   7.824  73.200  1.00  0.00    -0.349 C  
BRANCH   3   5
HETATM    5  C   UNL     1     -11.724   6.383  71.610  1.00  0.00    -0.313 C  
HETATM    6  C   UNL     1     -11.372   5.398  72.716  1.00  0.00    -0.358 C  
ENDBRANCH   3   5
BRANCH   3   7
HETATM    7  C   UNL     1     -10.157   8.203  70.738  1.00  0.00    -0.189 C  
BRANCH   7   8
HETATM    8  C   UNL     1     -10.160   7.339  69.474  1.00  0.00    -0.182 C  
BRANCH   8   9
HETATM    9  O   UNL     1      -9.286   8.008  68.554  1.00  0.00    -0.137 OA 
BRANCH   9  10
HETATM   10  C   UNL     1      -9.850   8.416  67.374  1.00  0.00    -0.191 C  
HETATM   11  O   UNL     1     -10.840   7.897  66.881  1.00  0.00    -0.288 OA 
HETATM   12  C   UNL     1      -8.954   9.516  66.718  1.00  0.00    -0.138 C  
HETATM   13  C   UNL     1      -9.605  10.877  66.980  1.00  0.00    -0.197 A  
HETATM   14  O   UNL     1      -7.661   9.513  67.341  1.00  0.00    -0.094 OA 
HETATM   15  C   UNL     1      -8.787   9.179  65.193  1.00  0.00    -0.241 C  
HETATM   16  H   UNL     1      -7.116  10.182  66.942  1.00  0.00     0.000 HD 
HETATM   17  C   UNL     1      -8.921  11.893  67.676  1.00  0.00    -0.169 A  
HETATM   18  C   UNL     1      -7.960  10.212  64.401  1.00  0.00    -0.153 C  
HETATM   19  C   UNL     1      -9.528  13.120  67.945  1.00  0.00    -0.218 A  
HETATM   20  C   UNL     1      -6.456  10.127  64.649  1.00  0.00    -0.125 C  
HETATM   21  C   UNL     1      -5.910   8.725  64.403  1.00  0.00    -0.065 C  
HETATM   22  C   UNL     1     -10.831  13.357  67.524  1.00  0.00    -0.276 A  
HETATM   23  C   UNL     1     -11.527  12.370  66.832  1.00  0.00    -0.423 A  
HETATM   24  C   UNL     1      -6.700   7.634  65.113  1.00  0.00    -0.047 C  
HETATM   25  C   UNL     1      -8.207   7.769  64.907  1.00  0.00    -0.111 C  
HETATM   26  C   UNL     1     -10.920  11.143  66.559  1.00  0.00    -0.270 A  
ENDBRANCH   9  10
ENDBRANCH   8   9
ENDBRANCH   7   8
ENDBRANCH   3   7
ENDBRANCH   2   3
TORSDOF 6
ENDMDL
MODEL      107
REMARK 921   NORMALIZED FREE ENERGY PREDICTED BY IDOCK:   -3.85 KCAL/MOL
REMARK 922        TOTAL FREE ENERGY PREDICTED BY IDOCK:   -6.10 KCAL/MOL
REMARK 923 INTER-LIGAND FREE ENERGY PREDICTED BY IDOCK:   -5.16 KCAL/MOL
REMARK 924 INTRA-LIGAND FREE ENERGY PREDICTED BY IDOCK:   -0.94 KCAL/MOL
REMARK 927      BINDING AFFINITY PREDICTED BY RF-SCORE:    0.00 PKD
ROOT
HETATM    1  C   UNL     1     -10.512   5.557  69.160  1.00  0.00    -0.315 C  
HETATM    2  C   UNL     1     -10.481   7.073  69.065  1.00  0.00    -0.207 C  
ENDROOT
BRANCH   2   3
HETATM    3  N   UNL     1      -9.169   7.728  69.581  1.00  0.00    -0.153 N  
HETATM    4  C   UNL     1      -8.884   7.213  71.004  1.00  0.00    -0.145 C  
BRANCH   3   5
HETATM    5  C   UNL     1      -7.951   7.407  68.693  1.00  0.00    -0.123 C  
HETATM    6  C   UNL     1      -6.818   8.414  68.823  1.00  0.00    -0.062 C  
ENDBRANCH   3   5
BRANCH   3   7
HETATM    7  C   UNL     1      -9.452   9.243  69.645  1.00  0.00    -0.179 C  
BRANCH   7   8
HETATM    8  C   UNL     1     -10.923   9.657  69.554  1.00  0.00    -0.208 C  
BRANCH   8   9
HETATM    9  O   UNL     1     -11.010  10.500  68.395  1.00  0.00    -0.224 OA 
BRANCH   9  10
HETATM   10  C   UNL     1     -10.637  11.806  68.571  1.00  0.00    -0.217 C  
HETATM   11  O   UNL     1     -10.931  12.469  69.554  1.00  0.00    -0.077 OA 
HETATM   12  C   UNL     1      -9.930  12.327  67.278  1.00  0.00    -0.204 C  
HETATM   13  C   UNL     1      -8.420  12.332  67.531  1.00  0.00    -0.172 A  
HETATM   14  O   UNL     1     -10.198  11.427  66.191  1.00  0.00    -0.224 OA 
HETATM   15  C   UNL     1     -10.516  13.741  66.925  1.00  0.00    -0.272 C  
HETATM   16  H   UNL     1      -9.768  11.744  65.405  1.00  0.00     0.000 HD 
HETATM   17  C   UNL     1      -7.541  11.583  66.724  1.00  0.00    -0.126 A  
HETATM   18  C   UNL     1      -9.875  14.404  65.689  1.00  0.00    -0.322 C  
HETATM   19  C   UNL     1      -6.169  11.561  66.978  1.00  0.00    -0.134 A  
HETATM   20  C   UNL     1     -10.331  13.813  64.358  1.00  0.00    -0.168 C  
HETATM   21  C   UNL     1     -11.850  13.813  64.217  1.00  0.00    -0.451 C  
HETATM   22  C   UNL     1      -5.648  12.286  68.042  1.00  0.00    -0.064 A  
HETATM   23  C   UNL     1      -6.496  13.036  68.852  1.00  0.00    -0.094 A  
HETATM   24  C   UNL     1     -12.568  13.217  65.419  1.00  0.00    -0.512 C  
HETATM   25  C   UNL     1     -12.057  13.771  66.747  1.00  0.00    -0.460 C  
HETATM   26  C   UNL     1      -7.868  13.063  68.598  1.00  0.00    -0.050 A  
ENDBRANCH   9  10
ENDBRANCH   8   9
ENDBRANCH   7   8
ENDBRANCH   3   7
ENDBRANCH   2   3
TORSDOF 6
ENDMDL
MODEL      108
REMARK 921   NORMALIZED FREE ENERGY PREDICTED BY IDOCK:   -3.84 KCAL/MOL
REMARK 922        TOTAL FREE ENERGY PREDICTED BY IDOCK:   -6.08 KCAL/MOL
REMARK 923 INTER-LIGAND FREE ENERGY PREDICTED BY IDOCK:   -5.40 KCAL/MOL
REMARK 924 INTRA-LIGAND FREE ENERGY PREDICTED BY IDOCK:   -0.69 KCAL/MOL
REMARK 927      BINDING AFFINITY PREDICTED BY RF-SCORE:    0.00 PKD
ROOT
HETATM    1  C   UNL     1     -12.409   6.709  71.138  1.00  0.00    -0.310 C  
HETATM    2  C   UNL     1     -11.594   7.669  70.289  1.00  0.00    -0.060 C  
ENDROOT
BRANCH   2   3
HETATM    3  N   UNL     1     -11.172   8.976  71.014  1.00  0.00    -0.273 N  
HETATM    4  C   UNL     1     -12.439   9.730  71.457  1.00  0.00    -0.403 C  
BRANCH   3   5
HETATM    5  C   UNL     1     -10.300   8.716  72.257  1.00  0.00    -0.306 C  
HETATM    6  C   UNL     1      -8.921   8.161  71.933  1.00  0.00    -0.225 C  
ENDBRANCH   3   5
BRANCH   3   7
HETATM    7  C   UNL     1     -10.430   9.823  69.958  1.00  0.00    -0.270 C  
BRANCH   7   8
HETATM    8  C   UNL     1     -11.144  10.000  68.615  1.00  0.00    -0.174 C  
BRANCH   8   9
HETATM    9  O   UNL     1     -11.066  11.403  68.325  1.00  0.00    -0.207 OA 
BRANCH   9  10
HETATM   10  C   UNL     1     -10.262  11.757  67.275  1.00  0.00    -0.203 C  
HETATM   11  O   UNL     1     -10.333  11.250  66.165  1.00  0.00    -0.237 OA 
HETATM   12  C   UNL     1      -9.180  12.775  67.763  1.00  0.00    -0.199 C  
HETATM   13  C   UNL     1      -9.612  14.176  67.321  1.00  0.00    -0.234 A  
HETATM   14  O   UNL     1      -9.121  12.757  69.197  1.00  0.00    -0.170 OA 
HETATM   15  C   UNL     1      -7.786  12.333  67.189  1.00  0.00    -0.149 C  
HETATM   16  H   UNL     1      -8.463  13.376  69.494  1.00  0.00     0.000 HD 
HETATM   17  C   UNL     1      -9.825  15.205  68.260  1.00  0.00    -0.223 A  
HETATM   18  C   UNL     1      -6.622  13.277  67.553  1.00  0.00    -0.153 C  
HETATM   19  C   UNL     1     -10.252  16.471  67.858  1.00  0.00    -0.273 A  
HETATM   20  C   UNL     1      -6.141  13.145  68.995  1.00  0.00    -0.089 C  
HETATM   21  C   UNL     1      -5.775  11.708  69.352  1.00  0.00    -0.065 C  
HETATM   22  C   UNL     1     -10.475  16.735  66.513  1.00  0.00    -0.258 A  
HETATM   23  C   UNL     1     -10.269  15.736  65.566  1.00  0.00    -0.407 A  
HETATM   24  C   UNL     1      -6.854  10.700  68.982  1.00  0.00    -0.071 C  
HETATM   25  C   UNL     1      -7.370  10.884  67.557  1.00  0.00    -0.096 C  
HETATM   26  C   UNL     1      -9.838  14.469  65.965  1.00  0.00    -0.342 A  
ENDBRANCH   9  10
ENDBRANCH   8   9
ENDBRANCH   7   8
ENDBRANCH   3   7
ENDBRANCH   2   3
TORSDOF 6
ENDMDL
MODEL      109
REMARK 921   NORMALIZED FREE ENERGY PREDICTED BY IDOCK:   -3.82 KCAL/MOL
REMARK 922        TOTAL FREE ENERGY PREDICTED BY IDOCK:   -6.07 KCAL/MOL
REMARK 923 INTER-LIGAND FREE ENERGY PREDICTED BY IDOCK:   -5.25 KCAL/MOL
REMARK 924 INTRA-LIGAND FREE ENERGY PREDICTED BY IDOCK:   -0.82 KCAL/MOL
REMARK 927      BINDING AFFINITY PREDICTED BY RF-SCORE:    0.00 PKD
ROOT
HETATM    1  C   UNL     1     -10.458  13.851  64.763  1.00  0.00    -0.451 C  
HETATM    2  C   UNL     1      -9.741  12.512  64.788  1.00  0.00     0.049 C  
ENDROOT
BRANCH   2   3
HETATM    3  N   UNL     1     -10.470  11.373  64.024  1.00  0.00    -0.345 N  
HETATM    4  C   UNL     1     -11.912  11.822  63.721  1.00  0.00    -0.363 C  
BRANCH   3   5
HETATM    5  C   UNL     1      -9.784  11.008  62.694  1.00  0.00    -0.202 C  
HETATM    6  C   UNL     1      -8.318  11.413  62.630  1.00  0.00     0.078 C  
ENDBRANCH   3   5
BRANCH   3   7
HETATM    7  C   UNL     1     -10.515  10.175  64.997  1.00  0.00     0.164 C  
BRANCH   7   8
HETATM    8  C   UNL     1      -9.215   9.379  65.142  1.00  0.00    -0.225 C  
BRANCH   8   9
HETATM    9  O   UNL     1      -9.350   8.654  66.374  1.00  0.00    -0.178 OA 
BRANCH   9  10
HETATM   10  C   UNL     1      -8.784   9.233  67.478  1.00  0.00    -0.115 C  
HETATM   11  O   UNL     1      -7.578   9.344  67.643  1.00  0.00    -0.087 OA 
HETATM   12  C   UNL     1      -9.898   9.576  68.519  1.00  0.00    -0.158 C  
HETATM   13  C   UNL     1     -10.183  11.078  68.434  1.00  0.00    -0.198 A  
HETATM   14  O   UNL     1     -11.102   8.873  68.179  1.00  0.00    -0.472 OA 
HETATM   15  C   UNL     1      -9.416   9.104  69.938  1.00  0.00    -0.199 C  
HETATM   16  H   UNL     1     -11.780   9.081  68.812  1.00  0.00     0.000 HD 
HETATM   17  C   UNL     1     -11.469  11.561  68.122  1.00  0.00    -0.385 A  
HETATM   18  C   UNL     1     -10.401   9.421  71.081  1.00  0.00    -0.377 C  
HETATM   19  C   UNL     1     -11.719  12.930  68.010  1.00  0.00    -0.401 A  
HETATM   20  C   UNL     1     -11.622   8.507  71.123  1.00  0.00    -0.325 C  
HETATM   21  C   UNL     1     -11.237   7.032  71.164  1.00  0.00    -0.304 C  
HETATM   22  C   UNL     1     -10.689  13.841  68.206  1.00  0.00    -0.264 A  
HETATM   23  C   UNL     1      -9.411  13.389  68.518  1.00  0.00    -0.097 A  
HETATM   24  C   UNL     1     -10.227   6.641  70.094  1.00  0.00    -0.215 C  
HETATM   25  C   UNL     1      -9.042   7.601  70.022  1.00  0.00    -0.151 C  
HETATM   26  C   UNL     1      -9.159  12.021  68.634  1.00  0.00    -0.030 A  
ENDBRANCH   9  10
ENDBRANCH   8   9
ENDBRANCH   7   8
ENDBRANCH   3   7
ENDBRANCH   2   3
TORSDOF 6
ENDMDL
MODEL      110
REMARK 921   NORMALIZED FREE ENERGY PREDICTED BY IDOCK:   -3.82 KCAL/MOL
REMARK 922        TOTAL FREE ENERGY PREDICTED BY IDOCK:   -6.07 KCAL/MOL
REMARK 923 INTER-LIGAND FREE ENERGY PREDICTED BY IDOCK:   -5.61 KCAL/MOL
REMARK 924 INTRA-LIGAND FREE ENERGY PREDICTED BY IDOCK:   -0.46 KCAL/MOL
REMARK 927      BINDING AFFINITY PREDICTED BY RF-SCORE:    0.00 PKD
ROOT
HETATM    1  C   UNL     1      -5.997   9.553  67.593  1.00  0.00    -0.052 C  
HETATM    2  C   UNL     1      -7.017   8.550  67.080  1.00  0.00    -0.074 C  
ENDROOT
BRANCH   2   3
HETATM    3  N   UNL     1      -8.478   9.077  67.038  1.00  0.00    -0.119 N  
HETATM    4  C   UNL     1      -8.558  10.383  67.849  1.00  0.00    -0.118 C  
BRANCH   3   5
HETATM    5  C   UNL     1      -8.972   9.360  65.606  1.00  0.00    -0.193 C  
HETATM    6  C   UNL     1      -7.976   8.966  64.526  1.00  0.00    -0.135 C  
ENDBRANCH   3   5
BRANCH   3   7
HETATM    7  C   UNL     1      -9.334   8.001  67.740  1.00  0.00    -0.137 C  
BRANCH   7   8
HETATM    8  C   UNL     1      -8.564   6.943  68.536  1.00  0.00    -0.123 C  
BRANCH   8   9
HETATM    9  O   UNL     1      -9.443   6.557  69.602  1.00  0.00    -0.145 OA 
BRANCH   9  10
HETATM   10  C   UNL     1      -9.443   7.367  70.707  1.00  0.00    -0.167 C  
HETATM   11  O   UNL     1      -8.764   8.377  70.807  1.00  0.00    -0.133 OA 
HETATM   12  C   UNL     1     -10.313   6.718  71.832  1.00  0.00    -0.197 C  
HETATM   13  C   UNL     1     -11.666   7.436  71.860  1.00  0.00    -0.323 A  
HETATM   14  O   UNL     1     -10.548   5.337  71.518  1.00  0.00    -0.225 OA 
HETATM   15  C   UNL     1      -9.523   6.806  73.186  1.00  0.00    -0.166 C  
HETATM   16  H   UNL     1     -11.077   4.942  72.201  1.00  0.00     0.000 HD 
HETATM   17  C   UNL     1     -12.870   6.734  71.657  1.00  0.00    -0.328 A  
HETATM   18  C   UNL     1     -10.284   6.242  74.403  1.00  0.00    -0.339 C  
HETATM   19  C   UNL     1     -14.099   7.396  71.648  1.00  0.00    -0.552 A  
HETATM   20  C   UNL     1     -10.331   4.718  74.457  1.00  0.00    -0.324 C  
HETATM   21  C   UNL     1      -8.941   4.095  74.380  1.00  0.00    -0.105 C  
HETATM   22  C   UNL     1     -14.149   8.770  71.842  1.00  0.00    -0.488 A  
HETATM   23  C   UNL     1     -12.973   9.485  72.048  1.00  0.00    -0.514 A  
HETATM   24  C   UNL     1      -8.101   4.631  73.230  1.00  0.00    -0.100 C  
HETATM   25  C   UNL     1      -8.115   6.157  73.151  1.00  0.00    -0.111 C  
HETATM   26  C   UNL     1     -11.743   8.825  72.061  1.00  0.00    -0.442 A  
ENDBRANCH   9  10
ENDBRANCH   8   9
ENDBRANCH   7   8
ENDBRANCH   3   7
ENDBRANCH   2   3
TORSDOF 6
ENDMDL
MODEL      111
REMARK 921   NORMALIZED FREE ENERGY PREDICTED BY IDOCK:   -3.82 KCAL/MOL
REMARK 922        TOTAL FREE ENERGY PREDICTED BY IDOCK:   -6.06 KCAL/MOL
REMARK 923 INTER-LIGAND FREE ENERGY PREDICTED BY IDOCK:   -5.28 KCAL/MOL
REMARK 924 INTRA-LIGAND FREE ENERGY PREDICTED BY IDOCK:   -0.77 KCAL/MOL
REMARK 927      BINDING AFFINITY PREDICTED BY RF-SCORE:    0.00 PKD
ROOT
HETATM    1  C   UNL     1      -7.083   7.665  67.436  1.00  0.00    -0.086 C  
HETATM    2  C   UNL     1      -8.130   8.665  67.894  1.00  0.00    -0.108 C  
ENDROOT
BRANCH   2   3
HETATM    3  N   UNL     1      -9.102   9.142  66.780  1.00  0.00    -0.140 N  
HETATM    4  C   UNL     1      -8.945   8.219  65.557  1.00  0.00    -0.064 C  
BRANCH   3   5
HETATM    5  C   UNL     1     -10.578   9.119  67.222  1.00  0.00    -0.233 C  
HETATM    6  C   UNL     1     -10.772   8.779  68.692  1.00  0.00    -0.109 C  
ENDBRANCH   3   5
BRANCH   3   7
HETATM    7  C   UNL     1      -8.638  10.563  66.396  1.00  0.00    -0.144 C  
BRANCH   7   8
HETATM    8  C   UNL     1      -7.618  11.214  67.334  1.00  0.00    -0.113 C  
BRANCH   8   9
HETATM    9  O   UNL     1      -7.733  12.625  67.100  1.00  0.00    -0.158 OA 
BRANCH   9  10
HETATM   10  C   UNL     1      -8.705  13.276  67.813  1.00  0.00    -0.194 C  
HETATM   11  O   UNL     1      -8.983  13.017  68.974  1.00  0.00     0.245 OA 
HETATM   12  C   UNL     1      -9.469  14.266  66.874  1.00  0.00    -0.263 C  
HETATM   13  C   UNL     1      -8.949  15.679  67.150  1.00  0.00    -0.232 A  
HETATM   14  O   UNL     1      -9.180  13.944  65.505  1.00  0.00    -0.384 OA 
HETATM   15  C   UNL     1     -11.010  14.099  67.123  1.00  0.00    -0.304 C  
HETATM   16  H   UNL     1      -9.644  14.545  64.934  1.00  0.00     0.000 HD 
HETATM   17  C   UNL     1      -8.362  16.454  66.130  1.00  0.00    -0.291 A  
HETATM   18  C   UNL     1     -11.894  15.052  66.293  1.00  0.00    -0.024 C  
HETATM   19  C   UNL     1      -7.857  17.729  66.392  1.00  0.00    -0.312 A  
HETATM   20  C   UNL     1     -12.026  14.659  64.825  1.00  0.00    -0.439 C  
HETATM   21  C   UNL     1     -12.508  13.222  64.653  1.00  0.00    -0.408 C  
HETATM   22  C   UNL     1      -7.930  18.254  67.676  1.00  0.00    -0.245 A  
HETATM   23  C   UNL     1      -8.509  17.510  68.699  1.00  0.00    -0.258 A  
HETATM   24  C   UNL     1     -11.717  12.216  65.478  1.00  0.00    -0.384 C  
HETATM   25  C   UNL     1     -11.540  12.654  66.930  1.00  0.00    -0.438 C  
HETATM   26  C   UNL     1      -9.017  16.236  68.439  1.00  0.00    -0.203 A  
ENDBRANCH   9  10
ENDBRANCH   8   9
ENDBRANCH   7   8
ENDBRANCH   3   7
ENDBRANCH   2   3
TORSDOF 6
ENDMDL
MODEL      112
REMARK 921   NORMALIZED FREE ENERGY PREDICTED BY IDOCK:   -3.81 KCAL/MOL
REMARK 922        TOTAL FREE ENERGY PREDICTED BY IDOCK:   -6.05 KCAL/MOL
REMARK 923 INTER-LIGAND FREE ENERGY PREDICTED BY IDOCK:   -5.88 KCAL/MOL
REMARK 924 INTRA-LIGAND FREE ENERGY PREDICTED BY IDOCK:   -0.18 KCAL/MOL
REMARK 927      BINDING AFFINITY PREDICTED BY RF-SCORE:    0.00 PKD
ROOT
HETATM    1  C   UNL     1     -10.429  16.407  69.443  1.00  0.00    -0.309 C  
HETATM    2  C   UNL     1     -11.824  15.827  69.290  1.00  0.00    -0.346 C  
ENDROOT
BRANCH   2   3
HETATM    3  N   UNL     1     -12.249  14.856  70.427  1.00  0.00    -0.313 N  
HETATM    4  C   UNL     1     -11.303  15.051  71.626  1.00  0.00    -0.253 C  
BRANCH   3   5
HETATM    5  C   UNL     1     -13.696  15.091  70.904  1.00  0.00    -0.259 C  
HETATM    6  C   UNL     1     -13.800  15.485  72.369  1.00  0.00    -0.662 C  
ENDBRANCH   3   5
BRANCH   3   7
HETATM    7  C   UNL     1     -12.053  13.434  69.861  1.00  0.00    -0.322 C  
BRANCH   7   8
HETATM    8  C   UNL     1     -12.112  13.302  68.337  1.00  0.00    -0.209 C  
BRANCH   8   9
HETATM    9  O   UNL     1     -11.638  11.977  68.052  1.00  0.00    -0.305 OA 
BRANCH   9  10
HETATM   10  C   UNL     1     -10.303  11.756  68.265  1.00  0.00    -0.206 C  
HETATM   11  O   UNL     1      -9.524  12.619  68.643  1.00  0.00    -0.128 OA 
HETATM   12  C   UNL     1      -9.934  10.306  67.814  1.00  0.00    -0.173 C  
HETATM   13  C   UNL     1      -9.819   9.433  69.066  1.00  0.00    -0.171 A  
HETATM   14  O   UNL     1     -10.989   9.777  66.996  1.00  0.00    -0.162 OA 
HETATM   15  C   UNL     1      -8.614  10.369  66.965  1.00  0.00    -0.130 C  
HETATM   16  H   UNL     1     -10.765   8.895  66.722  1.00  0.00     0.000 HD 
HETATM   17  C   UNL     1     -10.630   8.294  69.240  1.00  0.00    -0.191 A  
HETATM   18  C   UNL     1      -8.100   8.996  66.487  1.00  0.00    -0.111 C  
HETATM   19  C   UNL     1     -10.548   7.519  70.398  1.00  0.00    -0.236 A  
HETATM   20  C   UNL     1      -8.893   8.404  65.325  1.00  0.00    -0.113 C  
HETATM   21  C   UNL     1      -8.988   9.363  64.143  1.00  0.00    -0.187 C  
HETATM   22  C   UNL     1      -9.656   7.867  71.405  1.00  0.00    -0.187 A  
HETATM   23  C   UNL     1      -8.843   8.986  71.255  1.00  0.00    -0.259 A  
HETATM   24  C   UNL     1      -9.445  10.761  64.534  1.00  0.00    -0.297 C  
HETATM   25  C   UNL     1      -8.685  11.315  65.737  1.00  0.00    -0.111 C  
HETATM   26  C   UNL     1      -8.920   9.760  70.096  1.00  0.00    -0.235 A  
ENDBRANCH   9  10
ENDBRANCH   8   9
ENDBRANCH   7   8
ENDBRANCH   3   7
ENDBRANCH   2   3
TORSDOF 6
ENDMDL
MODEL      113
REMARK 921   NORMALIZED FREE ENERGY PREDICTED BY IDOCK:   -3.79 KCAL/MOL
REMARK 922        TOTAL FREE ENERGY PREDICTED BY IDOCK:   -6.03 KCAL/MOL
REMARK 923 INTER-LIGAND FREE ENERGY PREDICTED BY IDOCK:   -5.32 KCAL/MOL
REMARK 924 INTRA-LIGAND FREE ENERGY PREDICTED BY IDOCK:   -0.71 KCAL/MOL
REMARK 927      BINDING AFFINITY PREDICTED BY RF-SCORE:    0.00 PKD
ROOT
HETATM    1  C   UNL     1      -9.258   9.072  65.863  1.00  0.00    -0.290 C  
HETATM    2  C   UNL     1      -8.266  10.223  65.858  1.00  0.00    -0.148 C  
ENDROOT
BRANCH   2   3
HETATM    3  N   UNL     1      -6.774   9.790  65.849  1.00  0.00    -0.087 N  
HETATM    4  C   UNL     1      -6.555   8.738  66.952  1.00  0.00    -0.061 C  
BRANCH   3   5
HETATM    5  C   UNL     1      -6.334   9.184  64.502  1.00  0.00    -0.075 C  
HETATM    6  C   UNL     1      -6.144  10.215  63.400  1.00  0.00    -0.143 C  
ENDBRANCH   3   5
BRANCH   3   7
HETATM    7  C   UNL     1      -5.966  11.057  66.201  1.00  0.00    -0.132 C  
BRANCH   7   8
HETATM    8  C   UNL     1      -6.333  11.744  67.520  1.00  0.00    -0.095 C  
BRANCH   8   9
HETATM    9  O   UNL     1      -6.890  13.012  67.146  1.00  0.00    -0.094 OA 
BRANCH   9  10
HETATM   10  C   UNL     1      -7.644  13.644  68.099  1.00  0.00    -0.137 C  
HETATM   11  O   UNL     1      -7.503  13.470  69.300  1.00  0.00     0.048 OA 
HETATM   12  C   UNL     1      -8.772  14.476  67.407  1.00  0.00    -0.199 C  
HETATM   13  C   UNL     1      -8.348  15.947  67.411  1.00  0.00    -0.192 A  
HETATM   14  O   UNL     1      -8.908  14.055  66.042  1.00  0.00    -0.398 OA 
HETATM   15  C   UNL     1     -10.124  14.206  68.161  1.00  0.00    -0.239 C  
HETATM   16  H   UNL     1      -9.593  14.560  65.621  1.00  0.00     0.000 HD 
HETATM   17  C   UNL     1      -8.208  16.671  66.211  1.00  0.00    -0.365 A  
HETATM   18  C   UNL     1     -11.326  15.002  67.614  1.00  0.00    -0.342 C  
HETATM   19  C   UNL     1      -7.787  18.002  66.215  1.00  0.00    -0.288 A  
HETATM   20  C   UNL     1     -11.881  14.467  66.297  1.00  0.00    -0.391 C  
HETATM   21  C   UNL     1     -12.234  12.985  66.380  1.00  0.00    -0.350 C  
HETATM   22  C   UNL     1      -7.498  18.635  67.417  1.00  0.00    -0.226 A  
HETATM   23  C   UNL     1      -7.632  17.942  68.616  1.00  0.00    -0.285 A  
HETATM   24  C   UNL     1     -11.115  12.128  66.956  1.00  0.00    -0.347 C  
HETATM   25  C   UNL     1     -10.527  12.710  68.240  1.00  0.00    -0.249 C  
HETATM   26  C   UNL     1      -8.056  16.612  68.615  1.00  0.00    -0.237 A  
ENDBRANCH   9  10
ENDBRANCH   8   9
ENDBRANCH   7   8
ENDBRANCH   3   7
ENDBRANCH   2   3
TORSDOF 6
ENDMDL
MODEL      114
REMARK 921   NORMALIZED FREE ENERGY PREDICTED BY IDOCK:   -3.78 KCAL/MOL
REMARK 922        TOTAL FREE ENERGY PREDICTED BY IDOCK:   -6.01 KCAL/MOL
REMARK 923 INTER-LIGAND FREE ENERGY PREDICTED BY IDOCK:   -5.12 KCAL/MOL
REMARK 924 INTRA-LIGAND FREE ENERGY PREDICTED BY IDOCK:   -0.88 KCAL/MOL
REMARK 927      BINDING AFFINITY PREDICTED BY RF-SCORE:    0.00 PKD
ROOT
HETATM    1  C   UNL     1      -8.410  13.269  68.036  1.00  0.00    -0.162 C  
HETATM    2  C   UNL     1      -8.694  12.176  67.019  1.00  0.00    -0.190 C  
ENDROOT
BRANCH   2   3
HETATM    3  N   UNL     1      -7.807  10.910  67.165  1.00  0.00    -0.122 N  
HETATM    4  C   UNL     1      -8.397   9.787  66.292  1.00  0.00    -0.116 C  
BRANCH   3   5
HETATM    5  C   UNL     1      -6.347  11.148  66.731  1.00  0.00    -0.125 C  
HETATM    6  C   UNL     1      -6.078  10.804  65.274  1.00  0.00    -0.002 C  
ENDBRANCH   3   5
BRANCH   3   7
HETATM    7  C   UNL     1      -7.906  10.494  68.648  1.00  0.00    -0.116 C  
BRANCH   7   8
HETATM    8  C   UNL     1      -7.297   9.136  69.007  1.00  0.00    -0.073 C  
BRANCH   8   9
HETATM    9  O   UNL     1      -8.042   8.675  70.144  1.00  0.00    -0.102 OA 
BRANCH   9  10
HETATM   10  C   UNL     1      -9.255   8.099  69.877  1.00  0.00    -0.151 C  
HETATM   11  O   UNL     1      -9.490   7.448  68.869  1.00  0.00    -0.145 OA 
HETATM   12  C   UNL     1     -10.291   8.530  70.966  1.00  0.00    -0.209 C  
HETATM   13  C   UNL     1     -10.460   7.366  71.947  1.00  0.00    -0.229 A  
HETATM   14  O   UNL     1      -9.778   9.656  71.694  1.00  0.00    -0.159 OA 
HETATM   15  C   UNL     1     -11.623   8.950  70.248  1.00  0.00    -0.049 C  
HETATM   16  H   UNL     1     -10.407   9.918  72.356  1.00  0.00     0.000 HD 
HETATM   17  C   UNL     1     -10.183   7.521  73.319  1.00  0.00    -0.398 A  
HETATM   18  C   UNL     1     -12.760   9.358  71.207  1.00  0.00    -0.391 C  
HETATM   19  C   UNL     1     -10.305   6.450  74.206  1.00  0.00    -0.311 A  
HETATM   20  C   UNL     1     -12.585  10.740  71.829  1.00  0.00    -0.382 C  
HETATM   21  C   UNL     1     -12.380  11.824  70.775  1.00  0.00    -0.433 C  
HETATM   22  C   UNL     1     -10.704   5.204  73.739  1.00  0.00    -0.352 A  
HETATM   23  C   UNL     1     -10.987   5.027  72.388  1.00  0.00    -0.198 A  
HETATM   24  C   UNL     1     -11.304  11.481  69.755  1.00  0.00    -0.303 C  
HETATM   25  C   UNL     1     -11.456  10.071  69.189  1.00  0.00    -0.090 C  
HETATM   26  C   UNL     1     -10.870   6.098  71.500  1.00  0.00    -0.313 A  
ENDBRANCH   9  10
ENDBRANCH   8   9
ENDBRANCH   7   8
ENDBRANCH   3   7
ENDBRANCH   2   3
TORSDOF 6
ENDMDL
MODEL      115
REMARK 921   NORMALIZED FREE ENERGY PREDICTED BY IDOCK:   -3.77 KCAL/MOL
REMARK 922        TOTAL FREE ENERGY PREDICTED BY IDOCK:   -6.00 KCAL/MOL
REMARK 923 INTER-LIGAND FREE ENERGY PREDICTED BY IDOCK:   -5.13 KCAL/MOL
REMARK 924 INTRA-LIGAND FREE ENERGY PREDICTED BY IDOCK:   -0.86 KCAL/MOL
REMARK 927      BINDING AFFINITY PREDICTED BY RF-SCORE:    0.00 PKD
ROOT
HETATM    1  C   UNL     1      -7.457  11.406  66.722  1.00  0.00    -0.137 C  
HETATM    2  C   UNL     1      -8.320  10.351  66.050  1.00  0.00    -0.149 C  
ENDROOT
BRANCH   2   3
HETATM    3  N   UNL     1      -9.428  10.918  65.121  1.00  0.00    -0.215 N  
HETATM    4  C   UNL     1      -9.174  12.421  64.905  1.00  0.00     0.555 C  
BRANCH   3   5
HETATM    5  C   UNL     1      -9.466  10.227  63.744  1.00  0.00    -0.300 C  
HETATM    6  C   UNL     1      -8.168   9.524  63.376  1.00  0.00    -0.163 C  
ENDBRANCH   3   5
BRANCH   3   7
HETATM    7  C   UNL     1     -10.754  10.741  65.890  1.00  0.00    -0.073 C  
BRANCH   7   8
HETATM    8  C   UNL     1     -11.600  12.005  66.072  1.00  0.00    -0.305 C  
BRANCH   8   9
HETATM    9  O   UNL     1     -12.029  11.981  67.441  1.00  0.00    -0.583 OA 
BRANCH   9  10
HETATM   10  C   UNL     1     -11.100  12.363  68.371  1.00  0.00    -0.250 C  
HETATM   11  O   UNL     1     -10.297  11.597  68.882  1.00  0.00    -0.209 OA 
HETATM   12  C   UNL     1     -11.334  13.858  68.762  1.00  0.00    -0.277 C  
HETATM   13  C   UNL     1     -10.293  14.710  68.030  1.00  0.00    -0.235 A  
HETATM   14  O   UNL     1     -12.637  14.269  68.320  1.00  0.00    -0.494 OA 
HETATM   15  C   UNL     1     -11.264  13.981  70.326  1.00  0.00     0.063 C  
HETATM   16  H   UNL     1     -12.780  15.178  68.557  1.00  0.00     0.000 HD 
HETATM   17  C   UNL     1     -10.679  15.734  67.143  1.00  0.00    -0.312 A  
HETATM   18  C   UNL     1     -11.433  15.419  70.858  1.00  0.00    -0.396 C  
HETATM   19  C   UNL     1      -9.729  16.486  66.450  1.00  0.00    -0.305 A  
HETATM   20  C   UNL     1     -12.869  15.933  70.819  1.00  0.00    -0.111 C  
HETATM   21  C   UNL     1     -13.836  14.997  71.537  1.00  0.00    -0.570 C  
HETATM   22  C   UNL     1      -8.376  16.229  66.630  1.00  0.00    -0.315 A  
HETATM   23  C   UNL     1      -7.969  15.225  67.503  1.00  0.00    -0.197 A  
HETATM   24  C   UNL     1     -13.705  13.544  71.104  1.00  0.00     0.163 C  
HETATM   25  C   UNL     1     -12.255  13.062  71.087  1.00  0.00    -0.139 C  
HETATM   26  C   UNL     1      -8.917  14.474  68.200  1.00  0.00    -0.182 A  
ENDBRANCH   9  10
ENDBRANCH   8   9
ENDBRANCH   7   8
ENDBRANCH   3   7
ENDBRANCH   2   3
TORSDOF 6
ENDMDL
MODEL      116
REMARK 921   NORMALIZED FREE ENERGY PREDICTED BY IDOCK:   -3.76 KCAL/MOL
REMARK 922        TOTAL FREE ENERGY PREDICTED BY IDOCK:   -5.99 KCAL/MOL
REMARK 923 INTER-LIGAND FREE ENERGY PREDICTED BY IDOCK:   -5.18 KCAL/MOL
REMARK 924 INTRA-LIGAND FREE ENERGY PREDICTED BY IDOCK:   -0.80 KCAL/MOL
REMARK 927      BINDING AFFINITY PREDICTED BY RF-SCORE:    0.00 PKD
ROOT
HETATM    1  C   UNL     1      -6.522  10.306  69.485  1.00  0.00    -0.060 C  
HETATM    2  C   UNL     1      -7.115   9.438  70.582  1.00  0.00    -0.124 C  
ENDROOT
BRANCH   2   3
HETATM    3  N   UNL     1      -8.353   8.604  70.151  1.00  0.00    -0.119 N  
HETATM    4  C   UNL     1      -8.177   8.179  68.681  1.00  0.00    -0.125 C  
BRANCH   3   5
HETATM    5  C   UNL     1      -8.548   7.337  71.005  1.00  0.00    -0.128 C  
HETATM    6  C   UNL     1      -8.928   6.106  70.196  1.00  0.00    -0.149 C  
ENDBRANCH   3   5
BRANCH   3   7
HETATM    7  C   UNL     1      -9.561   9.559  70.252  1.00  0.00    -0.265 C  
BRANCH   7   8
HETATM    8  C   UNL     1     -10.474   9.621  69.025  1.00  0.00    -0.213 C  
BRANCH   8   9
HETATM    9  O   UNL     1     -10.806  11.008  68.868  1.00  0.00    -0.190 OA 
BRANCH   9  10
HETATM   10  C   UNL     1      -9.882  11.778  68.212  1.00  0.00    -0.198 C  
HETATM   11  O   UNL     1      -9.023  12.437  68.778  1.00  0.00    -0.016 OA 
HETATM   12  C   UNL     1     -10.199  11.786  66.681  1.00  0.00    -0.210 C  
HETATM   13  C   UNL     1      -9.227  10.827  65.989  1.00  0.00    -0.210 A  
HETATM   14  O   UNL     1     -11.533  11.302  66.467  1.00  0.00    -0.335 OA 
HETATM   15  C   UNL     1     -10.104  13.265  66.161  1.00  0.00    -0.293 C  
HETATM   16  H   UNL     1     -11.727  11.307  65.537  1.00  0.00     0.000 HD 
HETATM   17  C   UNL     1      -9.694   9.724  65.247  1.00  0.00    -0.371 A  
HETATM   18  C   UNL     1     -10.349  13.423  64.647  1.00  0.00    -0.400 C  
HETATM   19  C   UNL     1      -8.806   8.830  64.645  1.00  0.00    -0.054 A  
HETATM   20  C   UNL     1     -11.814  13.307  64.237  1.00  0.00    -0.469 C  
HETATM   21  C   UNL     1     -12.707  14.272  65.011  1.00  0.00    -0.297 C  
HETATM   22  C   UNL     1      -7.436   9.020  64.774  1.00  0.00    -0.102 A  
HETATM   23  C   UNL     1      -6.951  10.104  65.500  1.00  0.00    -0.131 A  
HETATM   24  C   UNL     1     -12.496  14.216  66.517  1.00  0.00    -0.306 C  
HETATM   25  C   UNL     1     -11.021  14.269  66.909  1.00  0.00    -0.304 C  
HETATM   26  C   UNL     1      -7.837  11.001  66.099  1.00  0.00    -0.117 A  
ENDBRANCH   9  10
ENDBRANCH   8   9
ENDBRANCH   7   8
ENDBRANCH   3   7
ENDBRANCH   2   3
TORSDOF 6
ENDMDL
MODEL      117
REMARK 921   NORMALIZED FREE ENERGY PREDICTED BY IDOCK:   -3.76 KCAL/MOL
REMARK 922        TOTAL FREE ENERGY PREDICTED BY IDOCK:   -5.98 KCAL/MOL
REMARK 923 INTER-LIGAND FREE ENERGY PREDICTED BY IDOCK:   -5.19 KCAL/MOL
REMARK 924 INTRA-LIGAND FREE ENERGY PREDICTED BY IDOCK:   -0.79 KCAL/MOL
REMARK 927      BINDING AFFINITY PREDICTED BY RF-SCORE:    0.00 PKD
ROOT
HETATM    1  C   UNL     1      -7.797   8.000  68.400  1.00  0.00    -0.122 C  
HETATM    2  C   UNL     1      -8.422   8.768  69.552  1.00  0.00    -0.128 C  
ENDROOT
BRANCH   2   3
HETATM    3  N   UNL     1      -9.966   8.921  69.466  1.00  0.00    -0.186 N  
HETATM    4  C   UNL     1     -10.429   8.500  68.059  1.00  0.00    -0.191 C  
BRANCH   3   5
HETATM    5  C   UNL     1     -10.712   8.060  70.503  1.00  0.00    -0.229 C  
HETATM    6  C   UNL     1     -11.527   8.871  71.500  1.00  0.00    -0.391 C  
ENDBRANCH   3   5
BRANCH   3   7
HETATM    7  C   UNL     1     -10.251  10.426  69.655  1.00  0.00    -0.209 C  
BRANCH   7   8
HETATM    8  C   UNL     1     -11.317  11.029  68.736  1.00  0.00    -0.283 C  
BRANCH   8   9
HETATM    9  O   UNL     1     -10.937  12.402  68.564  1.00  0.00    -0.222 OA 
BRANCH   9  10
HETATM   10  C   UNL     1     -10.092  12.667  67.519  1.00  0.00    -0.212 C  
HETATM   11  O   UNL     1     -10.041  11.994  66.500  1.00  0.00    -0.197 OA 
HETATM   12  C   UNL     1      -9.137  13.843  67.903  1.00  0.00    -0.194 C  
HETATM   13  C   UNL     1      -9.651  15.115  67.223  1.00  0.00    -0.211 A  
HETATM   14  O   UNL     1      -9.178  14.048  69.323  1.00  0.00    -0.374 OA 
HETATM   15  C   UNL     1      -7.674  13.452  67.487  1.00  0.00    -0.182 C  
HETATM   16  H   UNL     1      -8.598  14.763  69.557  1.00  0.00     0.000 HD 
HETATM   17  C   UNL     1     -10.015  16.250  67.974  1.00  0.00    -0.240 A  
HETATM   18  C   UNL     1      -6.621  14.544  67.764  1.00  0.00    -0.189 C  
HETATM   19  C   UNL     1     -10.517  17.396  67.356  1.00  0.00    -0.336 A  
HETATM   20  C   UNL     1      -6.234  14.678  69.234  1.00  0.00    -0.111 C  
HETATM   21  C   UNL     1      -5.776  13.352  69.832  1.00  0.00    -0.119 C  
HETATM   22  C   UNL     1     -10.665  17.431  65.975  1.00  0.00    -0.122 A  
HETATM   23  C   UNL     1     -10.309  16.324  65.210  1.00  0.00    -0.247 A  
HETATM   24  C   UNL     1      -6.738  12.203  69.564  1.00  0.00    -0.017 C  
HETATM   25  C   UNL     1      -7.166  12.121  68.100  1.00  0.00    -0.096 C  
HETATM   26  C   UNL     1      -9.804  15.178  65.827  1.00  0.00    -0.384 A  
ENDBRANCH   9  10
ENDBRANCH   8   9
ENDBRANCH   7   8
ENDBRANCH   3   7
ENDBRANCH   2   3
TORSDOF 6
ENDMDL
MODEL      118
REMARK 921   NORMALIZED FREE ENERGY PREDICTED BY IDOCK:   -3.75 KCAL/MOL
REMARK 922        TOTAL FREE ENERGY PREDICTED BY IDOCK:   -5.97 KCAL/MOL
REMARK 923 INTER-LIGAND FREE ENERGY PREDICTED BY IDOCK:   -5.13 KCAL/MOL
REMARK 924 INTRA-LIGAND FREE ENERGY PREDICTED BY IDOCK:   -0.84 KCAL/MOL
REMARK 927      BINDING AFFINITY PREDICTED BY RF-SCORE:    0.00 PKD
ROOT
HETATM    1  C   UNL     1     -10.235  16.717  68.223  1.00  0.00    -0.295 C  
HETATM    2  C   UNL     1     -10.131  15.367  67.534  1.00  0.00    -0.233 C  
ENDROOT
BRANCH   2   3
HETATM    3  N   UNL     1     -11.199  14.330  67.978  1.00  0.00    -0.269 N  
HETATM    4  C   UNL     1     -12.068  14.956  69.085  1.00  0.00    -0.231 C  
BRANCH   3   5
HETATM    5  C   UNL     1     -12.121  13.889  66.825  1.00  0.00    -0.439 C  
HETATM    6  C   UNL     1     -11.849  12.475  66.332  1.00  0.00    -0.445 C  
ENDBRANCH   3   5
BRANCH   3   7
HETATM    7  C   UNL     1     -10.412  13.143  68.573  1.00  0.00    -0.251 C  
BRANCH   7   8
HETATM    8  C   UNL     1      -8.890  13.195  68.407  1.00  0.00    -0.117 C  
BRANCH   8   9
HETATM    9  O   UNL     1      -8.562  12.077  67.569  1.00  0.00    -0.152 OA 
BRANCH   9  10
HETATM   10  C   UNL     1      -7.811  11.089  68.149  1.00  0.00    -0.116 C  
HETATM   11  O   UNL     1      -6.705  11.274  68.634  1.00  0.00    -0.062 OA 
HETATM   12  C   UNL     1      -8.520   9.709  67.955  1.00  0.00    -0.122 C  
HETATM   13  C   UNL     1      -9.208   9.339  69.271  1.00  0.00    -0.152 A  
HETATM   14  O   UNL     1      -9.531   9.830  66.942  1.00  0.00    -0.151 OA 
HETATM   15  C   UNL     1      -7.450   8.661  67.484  1.00  0.00    -0.090 C  
HETATM   16  H   UNL     1      -9.962   8.992  66.824  1.00  0.00     0.000 HD 
HETATM   17  C   UNL     1     -10.598   9.120  69.334  1.00  0.00    -0.232 A  
HETATM   18  C   UNL     1      -7.999   7.233  67.295  1.00  0.00    -0.111 C  
HETATM   19  C   UNL     1     -11.228   8.817  70.542  1.00  0.00    -0.278 A  
HETATM   20  C   UNL     1      -8.830   7.047  66.028  1.00  0.00    -0.155 C  
HETATM   21  C   UNL     1      -8.076   7.483  64.776  1.00  0.00    -0.112 C  
HETATM   22  C   UNL     1     -10.482   8.726  71.710  1.00  0.00    -0.417 A  
HETATM   23  C   UNL     1      -9.106   8.934  71.674  1.00  0.00    -0.280 A  
HETATM   24  C   UNL     1      -7.458   8.869  64.894  1.00  0.00    -0.098 C  
HETATM   25  C   UNL     1      -6.683   9.060  66.196  1.00  0.00    -0.070 C  
HETATM   26  C   UNL     1      -8.474   9.234  70.466  1.00  0.00    -0.251 A  
ENDBRANCH   9  10
ENDBRANCH   8   9
ENDBRANCH   7   8
ENDBRANCH   3   7
ENDBRANCH   2   3
TORSDOF 6
ENDMDL
MODEL      119
REMARK 921   NORMALIZED FREE ENERGY PREDICTED BY IDOCK:   -3.75 KCAL/MOL
REMARK 922        TOTAL FREE ENERGY PREDICTED BY IDOCK:   -5.97 KCAL/MOL
REMARK 923 INTER-LIGAND FREE ENERGY PREDICTED BY IDOCK:   -5.14 KCAL/MOL
REMARK 924 INTRA-LIGAND FREE ENERGY PREDICTED BY IDOCK:   -0.82 KCAL/MOL
REMARK 927      BINDING AFFINITY PREDICTED BY RF-SCORE:    0.00 PKD
ROOT
HETATM    1  C   UNL     1      -5.937  10.721  66.264  1.00  0.00    -0.126 C  
HETATM    2  C   UNL     1      -5.859  10.615  67.777  1.00  0.00    -0.043 C  
ENDROOT
BRANCH   2   3
HETATM    3  N   UNL     1      -6.225  11.919  68.538  1.00  0.00    -0.050 N  
HETATM    4  C   UNL     1      -5.161  12.988  68.229  1.00  0.00    -0.083 C  
BRANCH   3   5
HETATM    5  C   UNL     1      -7.606  12.476  68.143  1.00  0.00    -0.127 C  
HETATM    6  C   UNL     1      -7.562  13.900  67.610  1.00  0.00    -0.188 C  
ENDBRANCH   3   5
BRANCH   3   7
HETATM    7  C   UNL     1      -6.155  11.565  70.039  1.00  0.00    -0.151 C  
BRANCH   7   8
HETATM    8  C   UNL     1      -6.497  10.118  70.405  1.00  0.00    -0.131 C  
BRANCH   8   9
HETATM    9  O   UNL     1      -7.879  10.142  70.792  1.00  0.00    -0.079 OA 
BRANCH   9  10
HETATM   10  C   UNL     1      -8.488   8.922  70.928  1.00  0.00    -0.186 C  
HETATM   11  O   UNL     1      -8.063   8.028  71.645  1.00  0.00    -0.098 OA 
HETATM   12  C   UNL     1      -9.688   8.821  69.931  1.00  0.00    -0.178 C  
HETATM   13  C   UNL     1     -10.981   9.052  70.718  1.00  0.00    -0.315 A  
HETATM   14  O   UNL     1      -9.576   9.857  68.943  1.00  0.00    -0.159 OA 
HETATM   15  C   UNL     1      -9.624   7.425  69.215  1.00  0.00    -0.154 C  
HETATM   16  H   UNL     1     -10.305   9.796  68.337  1.00  0.00     0.000 HD 
HETATM   17  C   UNL     1     -11.859  10.103  70.390  1.00  0.00    -0.373 A  
HETATM   18  C   UNL     1     -10.781   7.164  68.228  1.00  0.00    -0.202 C  
HETATM   19  C   UNL     1     -13.019  10.333  71.130  1.00  0.00    -0.503 A  
HETATM   20  C   UNL     1     -10.655   7.917  66.907  1.00  0.00    -0.333 C  
HETATM   21  C   UNL     1      -9.318   7.657  66.221  1.00  0.00    -0.189 C  
HETATM   22  C   UNL     1     -13.325   9.518  72.212  1.00  0.00    -0.526 A  
HETATM   23  C   UNL     1     -12.475   8.471  72.554  1.00  0.00    -0.358 A  
HETATM   24  C   UNL     1      -8.119   7.847  67.139  1.00  0.00    -0.117 C  
HETATM   25  C   UNL     1      -8.287   7.139  68.482  1.00  0.00    -0.125 C  
HETATM   26  C   UNL     1     -11.315   8.237  71.813  1.00  0.00    -0.350 A  
ENDBRANCH   9  10
ENDBRANCH   8   9
ENDBRANCH   7   8
ENDBRANCH   3   7
ENDBRANCH   2   3
TORSDOF 6
ENDMDL
MODEL      120
REMARK 921   NORMALIZED FREE ENERGY PREDICTED BY IDOCK:   -3.75 KCAL/MOL
REMARK 922        TOTAL FREE ENERGY PREDICTED BY IDOCK:   -5.97 KCAL/MOL
REMARK 923 INTER-LIGAND FREE ENERGY PREDICTED BY IDOCK:   -5.29 KCAL/MOL
REMARK 924 INTRA-LIGAND FREE ENERGY PREDICTED BY IDOCK:   -0.67 KCAL/MOL
REMARK 927      BINDING AFFINITY PREDICTED BY RF-SCORE:    0.00 PKD
ROOT
HETATM    1  C   UNL     1     -11.126  11.425  68.330  1.00  0.00    -0.300 C  
HETATM    2  C   UNL     1     -10.812  12.393  69.457  1.00  0.00     0.169 C  
ENDROOT
BRANCH   2   3
HETATM    3  N   UNL     1     -11.923  13.441  69.740  1.00  0.00    -0.326 N  
HETATM    4  C   UNL     1     -12.493  13.935  68.397  1.00  0.00     0.287 C  
BRANCH   3   5
HETATM    5  C   UNL     1     -13.082  12.873  70.582  1.00  0.00     0.291 C  
HETATM    6  C   UNL     1     -13.479  13.757  71.754  1.00  0.00    -0.456 C  
ENDBRANCH   3   5
BRANCH   3   7
HETATM    7  C   UNL     1     -11.221  14.619  70.448  1.00  0.00    -0.124 C  
BRANCH   7   8
HETATM    8  C   UNL     1     -11.486  16.009  69.863  1.00  0.00    -0.326 C  
BRANCH   8   9
HETATM    9  O   UNL     1     -10.230  16.699  69.941  1.00  0.00    -0.107 OA 
BRANCH   9  10
HETATM   10  C   UNL     1      -9.178  16.112  69.287  1.00  0.00    -0.223 C  
HETATM   11  O   UNL     1      -8.453  15.268  69.790  1.00  0.00    -0.200 OA 
HETATM   12  C   UNL     1      -8.983  16.793  67.893  1.00  0.00    -0.219 C  
HETATM   13  C   UNL     1      -9.578  15.871  66.826  1.00  0.00    -0.252 A  
HETATM   14  O   UNL     1      -9.703  18.034  67.862  1.00  0.00    -0.279 OA 
HETATM   15  C   UNL     1      -7.453  17.086  67.693  1.00  0.00    -0.179 C  
HETATM   16  H   UNL     1      -9.584  18.448  67.016  1.00  0.00     0.000 HD 
HETATM   17  C   UNL     1     -10.615  16.307  65.979  1.00  0.00    -0.288 A  
HETATM   18  C   UNL     1      -7.100  17.720  66.332  1.00  0.00    -0.299 C  
HETATM   19  C   UNL     1     -11.180  15.453  65.030  1.00  0.00    -0.393 A  
HETATM   20  C   UNL     1      -7.463  19.198  66.220  1.00  0.00    -0.286 C  
HETATM   21  C   UNL     1      -6.859  20.026  67.350  1.00  0.00    -0.261 C  
HETATM   22  C   UNL     1     -10.721  14.148  64.909  1.00  0.00    -0.444 A  
HETATM   23  C   UNL     1      -9.695  13.695  65.733  1.00  0.00    -0.162 A  
HETATM   24  C   UNL     1      -7.120  19.445  68.732  1.00  0.00    -0.382 C  
HETATM   25  C   UNL     1      -6.813  17.950  68.811  1.00  0.00    -0.255 C  
HETATM   26  C   UNL     1      -9.126  14.547  66.680  1.00  0.00    -0.277 A  
ENDBRANCH   9  10
ENDBRANCH   8   9
ENDBRANCH   7   8
ENDBRANCH   3   7
ENDBRANCH   2   3
TORSDOF 6
ENDMDL
MODEL      121
REMARK 921   NORMALIZED FREE ENERGY PREDICTED BY IDOCK:   -3.70 KCAL/MOL
REMARK 922        TOTAL FREE ENERGY PREDICTED BY IDOCK:   -5.90 KCAL/MOL
REMARK 923 INTER-LIGAND FREE ENERGY PREDICTED BY IDOCK:   -5.47 KCAL/MOL
REMARK 924 INTRA-LIGAND FREE ENERGY PREDICTED BY IDOCK:   -0.43 KCAL/MOL
REMARK 927      BINDING AFFINITY PREDICTED BY RF-SCORE:    0.00 PKD
ROOT
HETATM    1  C   UNL     1      -6.657   7.409  64.852  1.00  0.00    -0.043 C  
HETATM    2  C   UNL     1      -7.498   6.145  64.892  1.00  0.00    -0.083 C  
ENDROOT
BRANCH   2   3
HETATM    3  N   UNL     1      -8.115   5.821  66.281  1.00  0.00    -0.105 N  
HETATM    4  C   UNL     1      -9.583   5.398  66.085  1.00  0.00    -0.153 C  
BRANCH   3   5
HETATM    5  C   UNL     1      -7.374   4.688  67.016  1.00  0.00    -0.081 C  
HETATM    6  C   UNL     1      -8.216   3.993  68.076  1.00  0.00    -0.095 C  
ENDBRANCH   3   5
BRANCH   3   7
HETATM    7  C   UNL     1      -8.079   7.143  67.076  1.00  0.00    -0.117 C  
BRANCH   7   8
HETATM    8  C   UNL     1      -9.438   7.720  67.484  1.00  0.00    -0.141 C  
BRANCH   8   9
HETATM    9  O   UNL     1      -9.489   9.026  66.891  1.00  0.00    -0.148 OA 
BRANCH   9  10
HETATM   10  C   UNL     1      -9.227  10.078  67.727  1.00  0.00    -0.134 C  
HETATM   11  O   UNL     1      -8.109  10.358  68.135  1.00  0.00    -0.107 OA 
HETATM   12  C   UNL     1     -10.570  10.741  68.174  1.00  0.00    -0.203 C  
HETATM   13  C   UNL     1     -10.764  12.021  67.357  1.00  0.00    -0.266 A  
HETATM   14  O   UNL     1     -11.661   9.854  67.880  1.00  0.00    -0.583 OA 
HETATM   15  C   UNL     1     -10.515  10.984  69.725  1.00  0.00     0.025 C  
HETATM   16  H   UNL     1     -12.478  10.257  68.151  1.00  0.00     0.000 HD 
HETATM   17  C   UNL     1     -11.896  12.201  66.537  1.00  0.00    -0.322 A  
HETATM   18  C   UNL     1     -11.764  11.679  70.304  1.00  0.00    -0.355 C  
HETATM   19  C   UNL     1     -12.053  13.354  65.766  1.00  0.00    -0.481 A  
HETATM   20  C   UNL     1     -12.983  10.770  70.426  1.00  0.00    -0.196 C  
HETATM   21  C   UNL     1     -12.679   9.503  71.220  1.00  0.00    -0.416 C  
HETATM   22  C   UNL     1     -11.084  14.348  65.798  1.00  0.00    -0.316 A  
HETATM   23  C   UNL     1      -9.958  14.194  66.601  1.00  0.00    -0.280 A  
HETATM   24  C   UNL     1     -11.430   8.775  70.743  1.00  0.00    -0.309 C  
HETATM   25  C   UNL     1     -10.235   9.710  70.565  1.00  0.00    -0.351 C  
HETATM   26  C   UNL     1      -9.800  13.044  67.376  1.00  0.00    -0.215 A  
ENDBRANCH   9  10
ENDBRANCH   8   9
ENDBRANCH   7   8
ENDBRANCH   3   7
ENDBRANCH   2   3
TORSDOF 6
ENDMDL
MODEL      122
REMARK 921   NORMALIZED FREE ENERGY PREDICTED BY IDOCK:   -3.69 KCAL/MOL
REMARK 922        TOTAL FREE ENERGY PREDICTED BY IDOCK:   -5.89 KCAL/MOL
REMARK 923 INTER-LIGAND FREE ENERGY PREDICTED BY IDOCK:   -5.10 KCAL/MOL
REMARK 924 INTRA-LIGAND FREE ENERGY PREDICTED BY IDOCK:   -0.79 KCAL/MOL
REMARK 927      BINDING AFFINITY PREDICTED BY RF-SCORE:    0.00 PKD
ROOT
HETATM    1  C   UNL     1      -7.612   2.298  66.747  1.00  0.00    -0.066 C  
HETATM    2  C   UNL     1      -7.520   3.759  66.342  1.00  0.00    -0.083 C  
ENDROOT
BRANCH   2   3
HETATM    3  N   UNL     1      -8.696   4.262  65.460  1.00  0.00    -0.118 N  
HETATM    4  C   UNL     1      -8.490   5.759  65.163  1.00  0.00    -0.138 C  
BRANCH   3   5
HETATM    5  C   UNL     1      -8.804   3.509  64.120  1.00  0.00    -0.101 C  
HETATM    6  C   UNL     1     -10.126   2.779  63.932  1.00  0.00    -0.152 C  
ENDBRANCH   3   5
BRANCH   3   7
HETATM    7  C   UNL     1      -9.968   4.094  66.319  1.00  0.00    -0.166 C  
BRANCH   7   8
HETATM    8  C   UNL     1     -10.631   5.388  66.798  1.00  0.00    -0.271 C  
BRANCH   8   9
HETATM    9  O   UNL     1     -10.537   5.354  68.230  1.00  0.00    -0.160 OA 
BRANCH   9  10
HETATM   10  C   UNL     1      -9.546   6.118  68.788  1.00  0.00    -0.125 C  
HETATM   11  O   UNL     1      -8.420   5.704  69.018  1.00  0.00    -0.102 OA 
HETATM   12  C   UNL     1     -10.126   7.509  69.202  1.00  0.00    -0.192 C  
HETATM   13  C   UNL     1      -9.703   8.534  68.146  1.00  0.00    -0.175 A  
HETATM   14  O   UNL     1     -11.561   7.444  69.211  1.00  0.00    -0.344 OA 
HETATM   15  C   UNL     1      -9.622   7.848  70.650  1.00  0.00    -0.167 C  
HETATM   16  H   UNL     1     -11.914   8.290  69.463  1.00  0.00     0.000 HD 
HETATM   17  C   UNL     1     -10.659   9.269  67.416  1.00  0.00    -0.324 A  
HETATM   18  C   UNL     1     -10.080   9.223  71.177  1.00  0.00    -0.374 C  
HETATM   19  C   UNL     1     -10.272  10.177  66.430  1.00  0.00    -0.288 A  
HETATM   20  C   UNL     1     -11.543   9.268  71.608  1.00  0.00    -0.463 C  
HETATM   21  C   UNL     1     -11.877   8.184  72.628  1.00  0.00    -0.389 C  
HETATM   22  C   UNL     1      -8.924  10.369  66.153  1.00  0.00    -0.175 A  
HETATM   23  C   UNL     1      -7.962   9.657  66.862  1.00  0.00    -0.105 A  
HETATM   24  C   UNL     1     -11.415   6.796  72.208  1.00  0.00    -0.314 C  
HETATM   25  C   UNL     1      -9.969   6.778  71.718  1.00  0.00    -0.184 C  
HETATM   26  C   UNL     1      -8.346   8.751  67.852  1.00  0.00    -0.118 A  
ENDBRANCH   9  10
ENDBRANCH   8   9
ENDBRANCH   7   8
ENDBRANCH   3   7
ENDBRANCH   2   3
TORSDOF 6
ENDMDL
MODEL      123
REMARK 921   NORMALIZED FREE ENERGY PREDICTED BY IDOCK:   -3.69 KCAL/MOL
REMARK 922        TOTAL FREE ENERGY PREDICTED BY IDOCK:   -5.88 KCAL/MOL
REMARK 923 INTER-LIGAND FREE ENERGY PREDICTED BY IDOCK:   -5.40 KCAL/MOL
REMARK 924 INTRA-LIGAND FREE ENERGY PREDICTED BY IDOCK:   -0.48 KCAL/MOL
REMARK 927      BINDING AFFINITY PREDICTED BY RF-SCORE:    0.00 PKD
ROOT
HETATM    1  C   UNL     1     -10.516  16.445  69.700  1.00  0.00    -0.278 C  
HETATM    2  C   UNL     1     -11.900  15.834  69.570  1.00  0.00    -0.347 C  
ENDROOT
BRANCH   2   3
HETATM    3  N   UNL     1     -12.349  14.982  70.789  1.00  0.00    -0.315 N  
HETATM    4  C   UNL     1     -11.669  15.532  72.056  1.00  0.00    -0.455 C  
BRANCH   3   5
HETATM    5  C   UNL     1     -13.874  15.003  71.006  1.00  0.00    -0.310 C  
HETATM    6  C   UNL     1     -14.286  15.346  72.429  1.00  0.00    -0.584 C  
ENDBRANCH   3   5
BRANCH   3   7
HETATM    7  C   UNL     1     -11.825  13.555  70.521  1.00  0.00    -0.178 C  
BRANCH   7   8
HETATM    8  C   UNL     1     -11.969  13.044  69.085  1.00  0.00    -0.271 C  
BRANCH   8   9
HETATM    9  O   UNL     1     -10.920  12.079  68.918  1.00  0.00    -0.221 OA 
BRANCH   9  10
HETATM   10  C   UNL     1      -9.768  12.536  68.335  1.00  0.00    -0.189 C  
HETATM   11  O   UNL     1      -9.545  13.715  68.106  1.00  0.00    -0.210 OA 
HETATM   12  C   UNL     1      -8.887  11.322  67.893  1.00  0.00    -0.142 C  
HETATM   13  C   UNL     1      -7.766  11.149  68.922  1.00  0.00    -0.137 A  
HETATM   14  O   UNL     1      -9.684  10.128  67.897  1.00  0.00    -0.144 OA 
HETATM   15  C   UNL     1      -8.371  11.587  66.434  1.00  0.00    -0.118 C  
HETATM   16  H   UNL     1      -9.149   9.390  67.628  1.00  0.00     0.000 HD 
HETATM   17  C   UNL     1      -7.613   9.948  69.641  1.00  0.00    -0.136 A  
HETATM   18  C   UNL     1      -7.444  10.486  65.879  1.00  0.00    -0.147 C  
HETATM   19  C   UNL     1      -6.612   9.804  70.603  1.00  0.00    -0.113 A  
HETATM   20  C   UNL     1      -8.172   9.213  65.458  1.00  0.00    -0.124 C  
HETATM   21  C   UNL     1      -9.297   9.492  64.467  1.00  0.00    -0.164 C  
HETATM   22  C   UNL     1      -5.745  10.857  70.865  1.00  0.00    -0.062 A  
HETATM   23  C   UNL     1      -5.874  12.053  70.165  1.00  0.00    -0.162 A  
HETATM   24  C   UNL     1     -10.236  10.603  64.915  1.00  0.00    -0.395 C  
HETATM   25  C   UNL     1      -9.491  11.848  65.394  1.00  0.00    -0.123 C  
HETATM   26  C   UNL     1      -6.872  12.198  69.200  1.00  0.00    -0.078 A  
ENDBRANCH   9  10
ENDBRANCH   8   9
ENDBRANCH   7   8
ENDBRANCH   3   7
ENDBRANCH   2   3
TORSDOF 6
ENDMDL
MODEL      124
REMARK 921   NORMALIZED FREE ENERGY PREDICTED BY IDOCK:   -3.68 KCAL/MOL
REMARK 922        TOTAL FREE ENERGY PREDICTED BY IDOCK:   -5.88 KCAL/MOL
REMARK 923 INTER-LIGAND FREE ENERGY PREDICTED BY IDOCK:   -5.49 KCAL/MOL
REMARK 924 INTRA-LIGAND FREE ENERGY PREDICTED BY IDOCK:   -0.39 KCAL/MOL
REMARK 927      BINDING AFFINITY PREDICTED BY RF-SCORE:    0.00 PKD
ROOT
HETATM    1  C   UNL     1      -9.227   8.114  72.846  1.00  0.00    -0.343 C  
HETATM    2  C   UNL     1     -10.742   8.036  72.765  1.00  0.00    -0.362 C  
ENDROOT
BRANCH   2   3
HETATM    3  N   UNL     1     -11.308   7.932  71.322  1.00  0.00    -0.256 N  
HETATM    4  C   UNL     1     -11.362   6.448  70.916  1.00  0.00    -0.338 C  
BRANCH   3   5
HETATM    5  C   UNL     1     -12.725   8.525  71.191  1.00  0.00    -0.110 C  
HETATM    6  C   UNL     1     -12.866   9.913  71.797  1.00  0.00    -0.540 C  
ENDBRANCH   3   5
BRANCH   3   7
HETATM    7  C   UNL     1     -10.293   8.662  70.417  1.00  0.00    -0.200 C  
BRANCH   7   8
HETATM    8  C   UNL     1     -10.087   8.065  69.022  1.00  0.00    -0.201 C  
BRANCH   8   9
HETATM    9  O   UNL     1     -10.621   9.037  68.111  1.00  0.00    -0.219 OA 
BRANCH   9  10
HETATM   10  C   UNL     1      -9.986   9.143  66.902  1.00  0.00    -0.238 C  
HETATM   11  O   UNL     1     -10.142   8.354  65.982  1.00  0.00    -0.104 OA 
HETATM   12  C   UNL     1      -8.953  10.315  66.954  1.00  0.00    -0.136 C  
HETATM   13  C   UNL     1      -9.564  11.520  66.232  1.00  0.00    -0.239 A  
HETATM   14  O   UNL     1      -8.720  10.687  68.321  1.00  0.00    -0.125 OA 
HETATM   15  C   UNL     1      -7.603   9.819  66.323  1.00  0.00    -0.100 C  
HETATM   16  H   UNL     1      -8.093  11.399  68.353  1.00  0.00     0.000 HD 
HETATM   17  C   UNL     1      -9.758  12.748  66.893  1.00  0.00    -0.234 A  
HETATM   18  C   UNL     1      -6.497  10.891  66.264  1.00  0.00    -0.129 C  
HETATM   19  C   UNL     1     -10.347  13.834  66.244  1.00  0.00    -0.294 A  
HETATM   20  C   UNL     1      -5.836  11.179  67.608  1.00  0.00    -0.048 C  
HETATM   21  C   UNL     1      -5.297   9.914  68.268  1.00  0.00    -0.036 C  
HETATM   22  C   UNL     1     -10.754  13.713  64.921  1.00  0.00    -0.400 A  
HETATM   23  C   UNL     1     -10.571  12.511  64.245  1.00  0.00    -0.395 A  
HETATM   24  C   UNL     1      -6.313   8.783  68.327  1.00  0.00    -0.055 C  
HETATM   25  C   UNL     1      -7.013   8.548  66.990  1.00  0.00    -0.074 C  
HETATM   26  C   UNL     1      -9.978  11.425  64.891  1.00  0.00    -0.311 A  
ENDBRANCH   9  10
ENDBRANCH   8   9
ENDBRANCH   7   8
ENDBRANCH   3   7
ENDBRANCH   2   3
TORSDOF 6
ENDMDL
MODEL      125
REMARK 921   NORMALIZED FREE ENERGY PREDICTED BY IDOCK:   -3.68 KCAL/MOL
REMARK 922        TOTAL FREE ENERGY PREDICTED BY IDOCK:   -5.87 KCAL/MOL
REMARK 923 INTER-LIGAND FREE ENERGY PREDICTED BY IDOCK:   -5.34 KCAL/MOL
REMARK 924 INTRA-LIGAND FREE ENERGY PREDICTED BY IDOCK:   -0.54 KCAL/MOL
REMARK 927      BINDING AFFINITY PREDICTED BY RF-SCORE:    0.00 PKD
ROOT
HETATM    1  C   UNL     1     -10.278   6.655  73.323  1.00  0.00    -0.256 C  
HETATM    2  C   UNL     1     -11.273   7.780  73.096  1.00  0.00    -0.218 C  
ENDROOT
BRANCH   2   3
HETATM    3  N   UNL     1     -11.446   8.203  71.611  1.00  0.00    -0.262 N  
HETATM    4  C   UNL     1     -12.515   7.305  70.961  1.00  0.00    -0.285 C  
BRANCH   3   5
HETATM    5  C   UNL     1     -11.882   9.673  71.454  1.00  0.00    -0.406 C  
HETATM    6  C   UNL     1     -13.312   9.938  71.898  1.00  0.00    -0.524 C  
ENDBRANCH   3   5
BRANCH   3   7
HETATM    7  C   UNL     1     -10.086   7.930  70.935  1.00  0.00    -0.190 C  
BRANCH   7   8
HETATM    8  C   UNL     1     -10.139   7.512  69.463  1.00  0.00    -0.189 C  
BRANCH   8   9
HETATM    9  O   UNL     1     -10.124   8.740  68.719  1.00  0.00    -0.187 OA 
BRANCH   9  10
HETATM   10  C   UNL     1      -8.913   9.117  68.203  1.00  0.00    -0.129 C  
HETATM   11  O   UNL     1      -8.038   9.666  68.857  1.00  0.00    -0.092 OA 
HETATM   12  C   UNL     1      -8.902   8.873  66.659  1.00  0.00    -0.129 C  
HETATM   13  C   UNL     1      -8.112   7.590  66.386  1.00  0.00    -0.114 A  
HETATM   14  O   UNL     1     -10.247   8.675  66.197  1.00  0.00    -0.434 OA 
HETATM   15  C   UNL     1      -8.304  10.144  65.958  1.00  0.00    -0.130 C  
HETATM   16  H   UNL     1     -10.241   8.526  65.259  1.00  0.00     0.000 HD 
HETATM   17  C   UNL     1      -8.704   6.492  65.731  1.00  0.00    -0.129 A  
HETATM   18  C   UNL     1      -8.187  10.028  64.424  1.00  0.00    -0.165 C  
HETATM   19  C   UNL     1      -7.992   5.311  65.514  1.00  0.00    -0.107 A  
HETATM   20  C   UNL     1      -9.515  10.169  63.686  1.00  0.00    -0.320 C  
HETATM   21  C   UNL     1     -10.247  11.455  64.055  1.00  0.00    -0.398 C  
HETATM   22  C   UNL     1      -6.678   5.203  65.949  1.00  0.00    -0.053 A  
HETATM   23  C   UNL     1      -6.070   6.274  66.597  1.00  0.00    -0.029 A  
HETATM   24  C   UNL     1     -10.366  11.674  65.557  1.00  0.00    -0.309 C  
HETATM   25  C   UNL     1      -9.041  11.468  66.290  1.00  0.00    -0.215 C  
HETATM   26  C   UNL     1      -6.778   7.458  66.811  1.00  0.00    -0.064 A  
ENDBRANCH   9  10
ENDBRANCH   8   9
ENDBRANCH   7   8
ENDBRANCH   3   7
ENDBRANCH   2   3
TORSDOF 6
ENDMDL
MODEL      126
REMARK 921   NORMALIZED FREE ENERGY PREDICTED BY IDOCK:   -3.68 KCAL/MOL
REMARK 922        TOTAL FREE ENERGY PREDICTED BY IDOCK:   -5.87 KCAL/MOL
REMARK 923 INTER-LIGAND FREE ENERGY PREDICTED BY IDOCK:   -5.23 KCAL/MOL
REMARK 924 INTRA-LIGAND FREE ENERGY PREDICTED BY IDOCK:   -0.64 KCAL/MOL
REMARK 927      BINDING AFFINITY PREDICTED BY RF-SCORE:    0.00 PKD
ROOT
HETATM    1  C   UNL     1     -12.448  14.062  66.739  1.00  0.00    -0.238 C  
HETATM    2  C   UNL     1     -11.439  14.932  67.468  1.00  0.00    -0.348 C  
ENDROOT
BRANCH   2   3
HETATM    3  N   UNL     1     -10.899  14.325  68.793  1.00  0.00    -0.246 N  
HETATM    4  C   UNL     1     -10.197  15.435  69.597  1.00  0.00    -0.277 C  
BRANCH   3   5
HETATM    5  C   UNL     1     -12.011  13.717  69.670  1.00  0.00    -0.342 C  
HETATM    6  C   UNL     1     -11.901  12.209  69.839  1.00  0.00    -0.392 C  
ENDBRANCH   3   5
BRANCH   3   7
HETATM    7  C   UNL     1      -9.852  13.271  68.378  1.00  0.00    -0.218 C  
BRANCH   7   8
HETATM    8  C   UNL     1      -9.157  13.506  67.033  1.00  0.00    -0.244 C  
BRANCH   8   9
HETATM    9  O   UNL     1      -8.549  12.251  66.696  1.00  0.00    -0.179 OA 
BRANCH   9  10
HETATM   10  C   UNL     1      -9.312  11.394  65.947  1.00  0.00    -0.228 C  
HETATM   11  O   UNL     1     -10.328  11.729  65.357  1.00  0.00    -0.247 OA 
HETATM   12  C   UNL     1      -8.762   9.938  66.095  1.00  0.00    -0.136 C  
HETATM   13  C   UNL     1      -7.955   9.604  64.837  1.00  0.00    -0.124 A  
HETATM   14  O   UNL     1      -7.876   9.874  67.223  1.00  0.00    -0.101 OA 
HETATM   15  C   UNL     1      -9.974   8.971  66.343  1.00  0.00    -0.370 C  
HETATM   16  H   UNL     1      -7.542   8.989  67.313  1.00  0.00     0.000 HD 
HETATM   17  C   UNL     1      -6.594   9.250  64.914  1.00  0.00    -0.075 A  
HETATM   18  C   UNL     1      -9.586   7.483  66.463  1.00  0.00    -0.239 C  
HETATM   19  C   UNL     1      -5.852   8.980  63.764  1.00  0.00    -0.072 A  
HETATM   20  C   UNL     1      -8.938   7.114  67.794  1.00  0.00    -0.122 C  
HETATM   21  C   UNL     1      -9.796   7.524  68.987  1.00  0.00    -0.170 C  
HETATM   22  C   UNL     1      -6.454   9.059  62.514  1.00  0.00    -0.094 A  
HETATM   23  C   UNL     1      -7.798   9.403  62.412  1.00  0.00    -0.122 A  
HETATM   24  C   UNL     1     -10.265   8.971  68.925  1.00  0.00    -0.223 C  
HETATM   25  C   UNL     1     -10.853   9.344  67.566  1.00  0.00    -0.208 C  
HETATM   26  C   UNL     1      -8.544   9.670  63.562  1.00  0.00    -0.215 A  
ENDBRANCH   9  10
ENDBRANCH   8   9
ENDBRANCH   7   8
ENDBRANCH   3   7
ENDBRANCH   2   3
TORSDOF 6
ENDMDL
MODEL      127
REMARK 921   NORMALIZED FREE ENERGY PREDICTED BY IDOCK:   -3.67 KCAL/MOL
REMARK 922        TOTAL FREE ENERGY PREDICTED BY IDOCK:   -5.87 KCAL/MOL
REMARK 923 INTER-LIGAND FREE ENERGY PREDICTED BY IDOCK:   -5.59 KCAL/MOL
REMARK 924 INTRA-LIGAND FREE ENERGY PREDICTED BY IDOCK:   -0.28 KCAL/MOL
REMARK 927      BINDING AFFINITY PREDICTED BY RF-SCORE:    0.00 PKD
ROOT
HETATM    1  C   UNL     1      -6.191  19.902  69.085  1.00  0.00    -0.344 C  
HETATM    2  C   UNL     1      -7.450  20.224  68.298  1.00  0.00    -0.139 C  
ENDROOT
BRANCH   2   3
HETATM    3  N   UNL     1      -8.345  18.995  67.978  1.00  0.00    -0.291 N  
HETATM    4  C   UNL     1      -9.728  19.206  68.622  1.00  0.00    -0.417 C  
BRANCH   3   5
HETATM    5  C   UNL     1      -8.540  18.774  66.466  1.00  0.00    -0.305 C  
HETATM    6  C   UNL     1      -9.812  19.401  65.915  1.00  0.00    -0.266 C  
ENDBRANCH   3   5
BRANCH   3   7
HETATM    7  C   UNL     1      -7.660  17.788  68.652  1.00  0.00    -0.276 C  
BRANCH   7   8
HETATM    8  C   UNL     1      -8.585  16.653  69.100  1.00  0.00    -0.110 C  
BRANCH   8   9
HETATM    9  O   UNL     1      -7.776  15.468  69.070  1.00  0.00    -0.158 OA 
BRANCH   9  10
HETATM   10  C   UNL     1      -7.600  14.891  67.840  1.00  0.00    -0.136 C  
HETATM   11  O   UNL     1      -6.921  15.382  66.950  1.00  0.00    -0.207 OA 
HETATM   12  C   UNL     1      -8.503  13.621  67.724  1.00  0.00    -0.183 C  
HETATM   13  C   UNL     1      -7.620  12.387  67.932  1.00  0.00    -0.130 A  
HETATM   14  O   UNL     1      -9.492  13.641  68.765  1.00  0.00    -0.380 OA 
HETATM   15  C   UNL     1      -9.229  13.651  66.332  1.00  0.00    -0.142 C  
HETATM   16  H   UNL     1     -10.042  12.869  68.695  1.00  0.00     0.000 HD 
HETATM   17  C   UNL     1      -7.875  11.471  68.971  1.00  0.00    -0.005 A  
HETATM   18  C   UNL     1     -10.126  12.427  66.056  1.00  0.00    -0.269 C  
HETATM   19  C   UNL     1      -7.048  10.367  69.180  1.00  0.00    -0.080 A  
HETATM   20  C   UNL     1     -11.449  12.441  66.816  1.00  0.00    -0.423 C  
HETATM   21  C   UNL     1     -12.236  13.725  66.579  1.00  0.00    -0.475 C  
HETATM   22  C   UNL     1      -5.950  10.157  68.356  1.00  0.00    -0.041 A  
HETATM   23  C   UNL     1      -5.678  11.046  67.321  1.00  0.00    -0.052 A  
HETATM   24  C   UNL     1     -11.411  14.987  66.784  1.00  0.00    -0.293 C  
HETATM   25  C   UNL     1     -10.062  14.933  66.069  1.00  0.00    -0.331 C  
HETATM   26  C   UNL     1      -6.506  12.149  67.107  1.00  0.00    -0.135 A  
ENDBRANCH   9  10
ENDBRANCH   8   9
ENDBRANCH   7   8
ENDBRANCH   3   7
ENDBRANCH   2   3
TORSDOF 6
ENDMDL
MODEL      128
REMARK 921   NORMALIZED FREE ENERGY PREDICTED BY IDOCK:   -3.67 KCAL/MOL
REMARK 922        TOTAL FREE ENERGY PREDICTED BY IDOCK:   -5.86 KCAL/MOL
REMARK 923 INTER-LIGAND FREE ENERGY PREDICTED BY IDOCK:   -5.13 KCAL/MOL
REMARK 924 INTRA-LIGAND FREE ENERGY PREDICTED BY IDOCK:   -0.73 KCAL/MOL
REMARK 927      BINDING AFFINITY PREDICTED BY RF-SCORE:    0.00 PKD
ROOT
HETATM    1  C   UNL     1     -10.455  12.288  64.873  1.00  0.00    -0.321 C  
HETATM    2  C   UNL     1     -10.313  11.456  66.137  1.00  0.00    -0.248 C  
ENDROOT
BRANCH   2   3
HETATM    3  N   UNL     1      -9.769  12.234  67.366  1.00  0.00    -0.183 N  
HETATM    4  C   UNL     1      -9.124  13.544  66.879  1.00  0.00    -0.239 C  
BRANCH   3   5
HETATM    5  C   UNL     1     -10.869  12.583  68.388  1.00  0.00    -0.243 C  
HETATM    6  C   UNL     1     -11.899  11.480  68.579  1.00  0.00    -0.365 C  
ENDBRANCH   3   5
BRANCH   3   7
HETATM    7  C   UNL     1      -8.675  11.337  67.982  1.00  0.00    -0.144 C  
BRANCH   7   8
HETATM    8  C   UNL     1      -8.625   9.893  67.475  1.00  0.00    -0.122 C  
BRANCH   8   9
HETATM    9  O   UNL     1      -9.382   9.130  68.426  1.00  0.00    -0.135 OA 
BRANCH   9  10
HETATM   10  C   UNL     1      -9.848   7.918  67.992  1.00  0.00    -0.165 C  
HETATM   11  O   UNL     1     -10.682   7.788  67.107  1.00  0.00    -0.333 OA 
HETATM   12  C   UNL     1      -9.265   6.780  68.891  1.00  0.00    -0.131 C  
HETATM   13  C   UNL     1      -8.121   6.108  68.126  1.00  0.00    -0.111 A  
HETATM   14  O   UNL     1      -8.724   7.350  70.092  1.00  0.00    -0.141 OA 
HETATM   15  C   UNL     1     -10.431   5.799  69.272  1.00  0.00    -0.358 C  
HETATM   16  H   UNL     1      -8.369   6.658  70.639  1.00  0.00     0.000 HD 
HETATM   17  C   UNL     1      -6.814   6.072  68.649  1.00  0.00    -0.070 A  
HETATM   18  C   UNL     1      -9.992   4.592  70.126  1.00  0.00    -0.278 C  
HETATM   19  C   UNL     1      -5.765   5.490  67.935  1.00  0.00    -0.013 A  
HETATM   20  C   UNL     1      -9.715   4.931  71.587  1.00  0.00    -0.231 C  
HETATM   21  C   UNL     1     -10.895   5.634  72.250  1.00  0.00    -0.295 C  
HETATM   22  C   UNL     1      -6.002   4.935  66.684  1.00  0.00    -0.027 A  
HETATM   23  C   UNL     1      -7.285   4.955  66.147  1.00  0.00    -0.077 A  
HETATM   24  C   UNL     1     -11.425   6.814  71.448  1.00  0.00    -0.336 C  
HETATM   25  C   UNL     1     -11.637   6.477  69.973  1.00  0.00    -0.455 C  
HETATM   26  C   UNL     1      -8.336   5.533  66.861  1.00  0.00    -0.108 A  
ENDBRANCH   9  10
ENDBRANCH   8   9
ENDBRANCH   7   8
ENDBRANCH   3   7
ENDBRANCH   2   3
TORSDOF 6
ENDMDL
MODEL      129
REMARK 921   NORMALIZED FREE ENERGY PREDICTED BY IDOCK:   -3.62 KCAL/MOL
REMARK 922        TOTAL FREE ENERGY PREDICTED BY IDOCK:   -5.80 KCAL/MOL
REMARK 923 INTER-LIGAND FREE ENERGY PREDICTED BY IDOCK:   -4.82 KCAL/MOL
REMARK 924 INTRA-LIGAND FREE ENERGY PREDICTED BY IDOCK:   -0.97 KCAL/MOL
REMARK 927      BINDING AFFINITY PREDICTED BY RF-SCORE:    0.00 PKD
ROOT
HETATM    1  C   UNL     1     -10.557  16.465  69.431  1.00  0.00    -0.317 C  
HETATM    2  C   UNL     1     -11.891  15.778  69.194  1.00  0.00    -0.354 C  
ENDROOT
BRANCH   2   3
HETATM    3  N   UNL     1     -12.401  14.926  70.389  1.00  0.00    -0.325 N  
HETATM    4  C   UNL     1     -11.637  15.343  71.659  1.00  0.00    -0.423 C  
BRANCH   3   5
HETATM    5  C   UNL     1     -13.910  15.102  70.648  1.00  0.00     0.059 C  
HETATM    6  C   UNL     1     -14.254  15.371  72.105  1.00  0.00    -0.660 C  
ENDBRANCH   3   5
BRANCH   3   7
HETATM    7  C   UNL     1     -12.042  13.464  70.048  1.00  0.00    -0.334 C  
BRANCH   7   8
HETATM    8  C   UNL     1     -11.869  13.143  68.561  1.00  0.00    -0.342 C  
BRANCH   8   9
HETATM    9  O   UNL     1     -10.705  12.308  68.486  1.00  0.00    -0.223 OA 
BRANCH   9  10
HETATM   10  C   UNL     1      -9.782  12.644  67.531  1.00  0.00    -0.196 C  
HETATM   11  O   UNL     1     -10.072  12.929  66.378  1.00  0.00    -0.257 OA 
HETATM   12  C   UNL     1      -8.341  12.461  68.107  1.00  0.00    -0.178 C  
HETATM   13  C   UNL     1      -7.798  13.844  68.478  1.00  0.00    -0.139 A  
HETATM   14  O   UNL     1      -8.402  11.671  69.304  1.00  0.00    -0.355 OA 
HETATM   15  C   UNL     1      -7.470  11.705  67.041  1.00  0.00    -0.150 C  
HETATM   16  H   UNL     1      -7.526  11.559  69.655  1.00  0.00     0.000 HD 
HETATM   17  C   UNL     1      -7.403  14.146  69.796  1.00  0.00     0.252 A  
HETATM   18  C   UNL     1      -6.000  11.493  67.456  1.00  0.00    -0.071 C  
HETATM   19  C   UNL     1      -6.941  15.417  70.138  1.00  0.00     0.070 A  
HETATM   20  C   UNL     1      -5.798  10.392  68.494  1.00  0.00    -0.040 C  
HETATM   21  C   UNL     1      -6.410   9.066  68.054  1.00  0.00    -0.055 C  
HETATM   22  C   UNL     1      -6.865  16.412  69.172  1.00  0.00    -0.210 A  
HETATM   23  C   UNL     1      -7.247  16.138  67.862  1.00  0.00    -0.144 A  
HETATM   24  C   UNL     1      -7.851   9.192  67.581  1.00  0.00    -0.096 C  
HETATM   25  C   UNL     1      -8.050  10.338  66.591  1.00  0.00    -0.119 C  
HETATM   26  C   UNL     1      -7.706  14.866  67.516  1.00  0.00    -0.214 A  
ENDBRANCH   9  10
ENDBRANCH   8   9
ENDBRANCH   7   8
ENDBRANCH   3   7
ENDBRANCH   2   3
TORSDOF 6
ENDMDL
MODEL      130
REMARK 921   NORMALIZED FREE ENERGY PREDICTED BY IDOCK:   -3.61 KCAL/MOL
REMARK 922        TOTAL FREE ENERGY PREDICTED BY IDOCK:   -5.78 KCAL/MOL
REMARK 923 INTER-LIGAND FREE ENERGY PREDICTED BY IDOCK:   -5.41 KCAL/MOL
REMARK 924 INTRA-LIGAND FREE ENERGY PREDICTED BY IDOCK:   -0.37 KCAL/MOL
REMARK 927      BINDING AFFINITY PREDICTED BY RF-SCORE:    0.00 PKD
ROOT
HETATM    1  C   UNL     1     -11.266   4.558  73.438  1.00  0.00    -0.404 C  
HETATM    2  C   UNL     1     -10.204   5.605  73.726  1.00  0.00    -0.231 C  
ENDROOT
BRANCH   2   3
HETATM    3  N   UNL     1      -9.617   6.295  72.465  1.00  0.00    -0.143 N  
HETATM    4  C   UNL     1      -8.633   7.392  72.912  1.00  0.00    -0.126 C  
BRANCH   3   5
HETATM    5  C   UNL     1      -8.867   5.316  71.541  1.00  0.00    -0.134 C  
HETATM    6  C   UNL     1      -9.781   4.528  70.614  1.00  0.00    -0.282 C  
ENDBRANCH   3   5
BRANCH   3   7
HETATM    7  C   UNL     1     -10.813   6.959  71.751  1.00  0.00    -0.225 C  
BRANCH   7   8
HETATM    8  C   UNL     1     -10.831   8.490  71.750  1.00  0.00    -0.304 C  
BRANCH   8   9
HETATM    9  O   UNL     1     -10.778   8.869  70.367  1.00  0.00    -0.212 OA 
BRANCH   9  10
HETATM   10  C   UNL     1      -9.542   8.832  69.779  1.00  0.00    -0.172 C  
HETATM   11  O   UNL     1      -8.492   8.923  70.399  1.00  0.00    -0.133 OA 
HETATM   12  C   UNL     1      -9.702   8.805  68.224  1.00  0.00    -0.158 C  
HETATM   13  C   UNL     1      -9.476   7.368  67.747  1.00  0.00    -0.154 A  
HETATM   14  O   UNL     1     -11.041   9.186  67.875  1.00  0.00    -0.508 OA 
HETATM   15  C   UNL     1      -8.699   9.842  67.602  1.00  0.00    -0.125 C  
HETATM   16  H   UNL     1     -11.139   9.170  66.930  1.00  0.00     0.000 HD 
HETATM   17  C   UNL     1     -10.474   6.666  67.042  1.00  0.00    -0.369 A  
HETATM   18  C   UNL     1      -8.712   9.892  66.061  1.00  0.00    -0.152 C  
HETATM   19  C   UNL     1     -10.279   5.344  66.639  1.00  0.00    -0.285 A  
HETATM   20  C   UNL     1      -9.921  10.614  65.472  1.00  0.00    -0.333 C  
HETATM   21  C   UNL     1     -10.086  12.020  66.039  1.00  0.00    -0.257 C  
HETATM   22  C   UNL     1      -9.086   4.698  66.933  1.00  0.00    -0.123 A  
HETATM   23  C   UNL     1      -8.084   5.370  67.625  1.00  0.00    -0.100 A  
HETATM   24  C   UNL     1     -10.038  12.069  67.559  1.00  0.00    -0.205 C  
HETATM   25  C   UNL     1      -8.858  11.289  68.137  1.00  0.00    -0.159 C  
HETATM   26  C   UNL     1      -8.274   6.694  68.026  1.00  0.00    -0.117 A  
ENDBRANCH   9  10
ENDBRANCH   8   9
ENDBRANCH   7   8
ENDBRANCH   3   7
ENDBRANCH   2   3
TORSDOF 6
ENDMDL
MODEL      131
REMARK 921   NORMALIZED FREE ENERGY PREDICTED BY IDOCK:   -3.61 KCAL/MOL
REMARK 922        TOTAL FREE ENERGY PREDICTED BY IDOCK:   -5.78 KCAL/MOL
REMARK 923 INTER-LIGAND FREE ENERGY PREDICTED BY IDOCK:   -5.25 KCAL/MOL
REMARK 924 INTRA-LIGAND FREE ENERGY PREDICTED BY IDOCK:   -0.53 KCAL/MOL
REMARK 927      BINDING AFFINITY PREDICTED BY RF-SCORE:    0.00 PKD
ROOT
HETATM    1  C   UNL     1     -11.812   6.413  71.946  1.00  0.00    -0.380 C  
HETATM    2  C   UNL     1     -11.510   6.801  70.509  1.00  0.00    -0.360 C  
ENDROOT
BRANCH   2   3
HETATM    3  N   UNL     1     -10.130   6.317  69.984  1.00  0.00    -0.170 N  
HETATM    4  C   UNL     1      -9.030   6.836  70.929  1.00  0.00    -0.150 C  
BRANCH   3   5
HETATM    5  C   UNL     1     -10.023   4.781  69.910  1.00  0.00    -0.236 C  
HETATM    6  C   UNL     1      -9.317   4.277  68.660  1.00  0.00    -0.213 C  
ENDBRANCH   3   5
BRANCH   3   7
HETATM    7  C   UNL     1      -9.951   6.974  68.600  1.00  0.00    -0.156 C  
BRANCH   7   8
HETATM    8  C   UNL     1     -10.422   8.426  68.479  1.00  0.00    -0.164 C  
BRANCH   8   9
HETATM    9  O   UNL     1      -9.231   9.221  68.572  1.00  0.00    -0.135 OA 
BRANCH   9  10
HETATM   10  C   UNL     1      -8.910   9.958  67.463  1.00  0.00    -0.128 C  
HETATM   11  O   UNL     1      -8.728   9.474  66.356  1.00  0.00    -0.131 OA 
HETATM   12  C   UNL     1      -8.677  11.448  67.874  1.00  0.00    -0.145 C  
HETATM   13  C   UNL     1      -9.926  12.247  67.491  1.00  0.00    -0.201 A  
HETATM   14  O   UNL     1      -8.514  11.531  69.298  1.00  0.00    -0.366 OA 
HETATM   15  C   UNL     1      -7.364  11.957  67.179  1.00  0.00    -0.142 C  
HETATM   16  H   UNL     1      -8.373  12.437  69.548  1.00  0.00     0.000 HD 
HETATM   17  C   UNL     1     -10.669  12.952  68.459  1.00  0.00    -0.275 A  
HETATM   18  C   UNL     1      -7.031  13.437  67.458  1.00  0.00    -0.153 C  
HETATM   19  C   UNL     1     -11.826  13.650  68.114  1.00  0.00    -0.407 A  
HETATM   20  C   UNL     1      -6.468  13.697  68.853  1.00  0.00    -0.101 C  
HETATM   21  C   UNL     1      -5.254  12.825  69.157  1.00  0.00    -0.069 C  
HETATM   22  C   UNL     1     -12.265  13.659  66.796  1.00  0.00    -0.416 A  
HETATM   23  C   UNL     1     -11.547  12.974  65.821  1.00  0.00    -0.396 A  
HETATM   24  C   UNL     1      -5.481  11.348  68.864  1.00  0.00    -0.039 C  
HETATM   25  C   UNL     1      -6.103  11.108  67.489  1.00  0.00    -0.052 C  
HETATM   26  C   UNL     1     -10.387  12.277  66.163  1.00  0.00    -0.269 A  
ENDBRANCH   9  10
ENDBRANCH   8   9
ENDBRANCH   7   8
ENDBRANCH   3   7
ENDBRANCH   2   3
TORSDOF 6
ENDMDL
MODEL      132
REMARK 921   NORMALIZED FREE ENERGY PREDICTED BY IDOCK:   -3.61 KCAL/MOL
REMARK 922        TOTAL FREE ENERGY PREDICTED BY IDOCK:   -5.78 KCAL/MOL
REMARK 923 INTER-LIGAND FREE ENERGY PREDICTED BY IDOCK:   -5.35 KCAL/MOL
REMARK 924 INTRA-LIGAND FREE ENERGY PREDICTED BY IDOCK:   -0.43 KCAL/MOL
REMARK 927      BINDING AFFINITY PREDICTED BY RF-SCORE:    0.00 PKD
ROOT
HETATM    1  C   UNL     1     -10.413   9.543  69.826  1.00  0.00    -0.253 C  
HETATM    2  C   UNL     1     -11.085  10.024  71.101  1.00  0.00    -0.200 C  
ENDROOT
BRANCH   2   3
HETATM    3  N   UNL     1     -12.437  10.757  70.882  1.00  0.00    -0.367 N  
HETATM    4  C   UNL     1     -12.627  11.010  69.375  1.00  0.00     0.163 C  
BRANCH   3   5
HETATM    5  C   UNL     1     -13.645   9.952  71.397  1.00  0.00    -0.223 C  
HETATM    6  C   UNL     1     -13.278   8.581  71.946  1.00  0.00    -0.398 C  
ENDBRANCH   3   5
BRANCH   3   7
HETATM    7  C   UNL     1     -12.301  12.115  71.603  1.00  0.00     0.269 C  
BRANCH   7   8
HETATM    8  C   UNL     1     -12.778  13.342  70.821  1.00  0.00    -0.228 C  
BRANCH   8   9
HETATM    9  O   UNL     1     -11.581  14.030  70.429  1.00  0.00    -0.240 OA 
BRANCH   9  10
HETATM   10  C   UNL     1     -11.716  14.944  69.417  1.00  0.00    -0.319 C  
HETATM   11  O   UNL     1     -12.643  15.736  69.337  1.00  0.00    -0.055 OA 
HETATM   12  C   UNL     1     -10.604  14.707  68.345  1.00  0.00    -0.241 C  
HETATM   13  C   UNL     1      -9.514  15.763  68.548  1.00  0.00    -0.201 A  
HETATM   14  O   UNL     1     -10.014  13.413  68.547  1.00  0.00    -0.246 OA 
HETATM   15  C   UNL     1     -11.267  14.749  66.922  1.00  0.00    -0.347 C  
HETATM   16  H   UNL     1      -9.338  13.268  67.895  1.00  0.00     0.000 HD 
HETATM   17  C   UNL     1      -8.182  15.395  68.822  1.00  0.00    -0.172 A  
HETATM   18  C   UNL     1     -10.275  14.574  65.754  1.00  0.00    -0.354 C  
HETATM   19  C   UNL     1      -7.197  16.360  69.042  1.00  0.00    -0.215 A  
HETATM   20  C   UNL     1      -9.792  13.140  65.555  1.00  0.00    -0.153 C  
HETATM   21  C   UNL     1     -10.949  12.158  65.405  1.00  0.00    -0.346 C  
HETATM   22  C   UNL     1      -7.523  17.709  68.992  1.00  0.00    -0.168 A  
HETATM   23  C   UNL     1      -8.832  18.097  68.719  1.00  0.00    -0.227 A  
HETATM   24  C   UNL     1     -12.003  12.293  66.495  1.00  0.00    -0.274 C  
HETATM   25  C   UNL     1     -12.430  13.742  66.725  1.00  0.00    -0.254 C  
HETATM   26  C   UNL     1      -9.818  17.134  68.496  1.00  0.00    -0.297 A  
ENDBRANCH   9  10
ENDBRANCH   8   9
ENDBRANCH   7   8
ENDBRANCH   3   7
ENDBRANCH   2   3
TORSDOF 6
ENDMDL
MODEL      133
REMARK 921   NORMALIZED FREE ENERGY PREDICTED BY IDOCK:   -3.60 KCAL/MOL
REMARK 922        TOTAL FREE ENERGY PREDICTED BY IDOCK:   -5.76 KCAL/MOL
REMARK 923 INTER-LIGAND FREE ENERGY PREDICTED BY IDOCK:   -5.32 KCAL/MOL
REMARK 924 INTRA-LIGAND FREE ENERGY PREDICTED BY IDOCK:   -0.44 KCAL/MOL
REMARK 927      BINDING AFFINITY PREDICTED BY RF-SCORE:    0.00 PKD
ROOT
HETATM    1  C   UNL     1     -13.092   8.598  72.367  1.00  0.00    -0.396 C  
HETATM    2  C   UNL     1     -11.573   8.579  72.375  1.00  0.00    -0.354 C  
ENDROOT
BRANCH   2   3
HETATM    3  N   UNL     1     -10.937   7.360  71.651  1.00  0.00    -0.224 N  
HETATM    4  C   UNL     1      -9.518   7.139  72.205  1.00  0.00    -0.138 C  
BRANCH   3   5
HETATM    5  C   UNL     1     -11.744   6.062  71.843  1.00  0.00    -0.226 C  
HETATM    6  C   UNL     1     -11.362   5.283  73.093  1.00  0.00    -0.358 C  
ENDBRANCH   3   5
BRANCH   3   7
HETATM    7  C   UNL     1     -10.836   7.760  70.164  1.00  0.00    -0.244 C  
BRANCH   7   8
HETATM    8  C   UNL     1     -10.901   9.261  69.865  1.00  0.00    -0.234 C  
BRANCH   8   9
HETATM    9  O   UNL     1     -10.679   9.376  68.452  1.00  0.00    -0.219 OA 
BRANCH   9  10
HETATM   10  C   UNL     1      -9.439   9.819  68.071  1.00  0.00    -0.131 C  
HETATM   11  O   UNL     1      -8.748  10.566  68.747  1.00  0.00    -0.137 OA 
HETATM   12  C   UNL     1      -9.138   9.342  66.613  1.00  0.00    -0.149 C  
HETATM   13  C   UNL     1      -8.191   8.142  66.691  1.00  0.00    -0.103 A  
HETATM   14  O   UNL     1     -10.357   8.909  65.991  1.00  0.00    -0.333 OA 
HETATM   15  C   UNL     1      -8.555  10.555  65.803  1.00  0.00    -0.180 C  
HETATM   16  H   UNL     1     -10.175   8.619  65.105  1.00  0.00     0.000 HD 
HETATM   17  C   UNL     1      -8.550   6.891  66.152  1.00  0.00    -0.147 A  
HETATM   18  C   UNL     1      -8.166  10.219  64.350  1.00  0.00    -0.159 C  
HETATM   19  C   UNL     1      -7.700   5.789  66.255  1.00  0.00    -0.099 A  
HETATM   20  C   UNL     1      -9.354  10.077  63.403  1.00  0.00    -0.300 C  
HETATM   21  C   UNL     1     -10.260  11.304  63.427  1.00  0.00    -0.454 C  
HETATM   22  C   UNL     1      -6.476   5.914  66.899  1.00  0.00    -0.050 A  
HETATM   23  C   UNL     1      -6.097   7.140  67.437  1.00  0.00    -0.037 A  
HETATM   24  C   UNL     1     -10.657  11.735  64.832  1.00  0.00    -0.344 C  
HETATM   25  C   UNL     1      -9.465  11.811  65.784  1.00  0.00    -0.232 C  
HETATM   26  C   UNL     1      -6.944   8.245  67.332  1.00  0.00    -0.075 A  
ENDBRANCH   9  10
ENDBRANCH   8   9
ENDBRANCH   7   8
ENDBRANCH   3   7
ENDBRANCH   2   3
TORSDOF 6
ENDMDL
MODEL      134
REMARK 921   NORMALIZED FREE ENERGY PREDICTED BY IDOCK:   -3.59 KCAL/MOL
REMARK 922        TOTAL FREE ENERGY PREDICTED BY IDOCK:   -5.75 KCAL/MOL
REMARK 923 INTER-LIGAND FREE ENERGY PREDICTED BY IDOCK:   -5.16 KCAL/MOL
REMARK 924 INTRA-LIGAND FREE ENERGY PREDICTED BY IDOCK:   -0.59 KCAL/MOL
REMARK 927      BINDING AFFINITY PREDICTED BY RF-SCORE:    0.00 PKD
ROOT
HETATM    1  C   UNL     1      -7.048   8.624  64.594  1.00  0.00    -0.081 C  
HETATM    2  C   UNL     1      -6.445   8.497  65.982  1.00  0.00    -0.053 C  
ENDROOT
BRANCH   2   3
HETATM    3  N   UNL     1      -7.408   7.919  67.056  1.00  0.00    -0.089 N  
HETATM    4  C   UNL     1      -8.649   7.341  66.350  1.00  0.00    -0.138 C  
BRANCH   3   5
HETATM    5  C   UNL     1      -6.763   6.802  67.899  1.00  0.00    -0.068 C  
HETATM    6  C   UNL     1      -6.535   5.509  67.131  1.00  0.00    -0.044 C  
ENDBRANCH   3   5
BRANCH   3   7
HETATM    7  C   UNL     1      -7.841   9.119  67.924  1.00  0.00    -0.100 C  
BRANCH   7   8
HETATM    8  C   UNL     1      -9.184   9.759  67.564  1.00  0.00    -0.130 C  
BRANCH   8   9
HETATM    9  O   UNL     1      -9.039  11.151  67.884  1.00  0.00    -0.143 OA 
BRANCH   9  10
HETATM   10  C   UNL     1      -8.676  11.973  66.851  1.00  0.00    -0.193 C  
HETATM   11  O   UNL     1      -7.642  11.844  66.212  1.00  0.00     0.136 OA 
HETATM   12  C   UNL     1      -9.699  13.149  66.733  1.00  0.00    -0.246 C  
HETATM   13  C   UNL     1     -10.642  12.844  65.566  1.00  0.00    -0.298 A  
HETATM   14  O   UNL     1     -10.484  13.222  67.933  1.00  0.00    -0.230 OA 
HETATM   15  C   UNL     1      -8.899  14.490  66.565  1.00  0.00    -0.156 C  
HETATM   16  H   UNL     1     -11.106  13.937  67.862  1.00  0.00     0.000 HD 
HETATM   17  C   UNL     1     -12.034  12.737  65.759  1.00  0.00    -0.502 A  
HETATM   18  C   UNL     1      -9.785  15.740  66.389  1.00  0.00    -0.305 C  
HETATM   19  C   UNL     1     -12.888  12.425  64.701  1.00  0.00    -0.252 A  
HETATM   20  C   UNL     1     -10.445  16.223  67.678  1.00  0.00    -0.295 C  
HETATM   21  C   UNL     1      -9.430  16.458  68.792  1.00  0.00    -0.247 C  
HETATM   22  C   UNL     1     -12.370  12.212  63.430  1.00  0.00    -0.648 A  
HETATM   23  C   UNL     1     -10.999  12.316  63.213  1.00  0.00    -0.373 A  
HETATM   24  C   UNL     1      -8.481  15.287  69.003  1.00  0.00    -0.221 C  
HETATM   25  C   UNL     1      -7.877  14.774  67.697  1.00  0.00    -0.191 C  
HETATM   26  C   UNL     1     -10.143  12.632  64.269  1.00  0.00    -0.292 A  
ENDBRANCH   9  10
ENDBRANCH   8   9
ENDBRANCH   7   8
ENDBRANCH   3   7
ENDBRANCH   2   3
TORSDOF 6
ENDMDL
MODEL      135
REMARK 921   NORMALIZED FREE ENERGY PREDICTED BY IDOCK:   -3.58 KCAL/MOL
REMARK 922        TOTAL FREE ENERGY PREDICTED BY IDOCK:   -5.74 KCAL/MOL
REMARK 923 INTER-LIGAND FREE ENERGY PREDICTED BY IDOCK:   -4.86 KCAL/MOL
REMARK 924 INTRA-LIGAND FREE ENERGY PREDICTED BY IDOCK:   -0.88 KCAL/MOL
REMARK 927      BINDING AFFINITY PREDICTED BY RF-SCORE:    0.00 PKD
ROOT
HETATM    1  C   UNL     1      -9.780   4.172  70.165  1.00  0.00    -0.278 C  
HETATM    2  C   UNL     1      -8.961   4.171  68.886  1.00  0.00    -0.113 C  
ENDROOT
BRANCH   2   3
HETATM    3  N   UNL     1      -7.485   4.623  69.062  1.00  0.00    -0.056 N  
HETATM    4  C   UNL     1      -7.286   5.112  70.509  1.00  0.00    -0.061 C  
BRANCH   3   5
HETATM    5  C   UNL     1      -6.475   3.492  68.787  1.00  0.00    -0.033 C  
HETATM    6  C   UNL     1      -6.997   2.422  67.839  1.00  0.00    -0.047 C  
ENDBRANCH   3   5
BRANCH   3   7
HETATM    7  C   UNL     1      -7.292   5.814  68.101  1.00  0.00    -0.077 C  
BRANCH   7   8
HETATM    8  C   UNL     1      -8.450   6.099  67.141  1.00  0.00    -0.104 C  
BRANCH   8   9
HETATM    9  O   UNL     1      -8.671   7.515  67.222  1.00  0.00    -0.120 OA 
BRANCH   9  10
HETATM   10  C   UNL     1      -9.947   7.909  67.530  1.00  0.00    -0.192 C  
HETATM   11  O   UNL     1     -10.949   7.390  67.061  1.00  0.00    -0.332 OA 
HETATM   12  C   UNL     1      -9.897   9.184  68.432  1.00  0.00    -0.164 C  
HETATM   13  C   UNL     1     -10.162   8.754  69.878  1.00  0.00    -0.206 A  
HETATM   14  O   UNL     1      -8.584   9.761  68.372  1.00  0.00    -0.117 OA 
HETATM   15  C   UNL     1     -10.938  10.224  67.882  1.00  0.00    -0.350 C  
HETATM   16  H   UNL     1      -8.554  10.537  68.920  1.00  0.00     0.000 HD 
HETATM   17  C   UNL     1      -9.219   8.996  70.897  1.00  0.00    -0.320 A  
HETATM   18  C   UNL     1     -11.033  11.524  68.707  1.00  0.00    -0.271 C  
HETATM   19  C   UNL     1      -9.447   8.573  72.207  1.00  0.00    -0.365 A  
HETATM   20  C   UNL     1      -9.867  12.484  68.494  1.00  0.00    -0.153 C  
HETATM   21  C   UNL     1      -9.657  12.818  67.021  1.00  0.00    -0.229 C  
HETATM   22  C   UNL     1     -10.619   7.899  72.525  1.00  0.00    -0.378 A  
HETATM   23  C   UNL     1     -11.567   7.651  71.537  1.00  0.00    -0.304 A  
HETATM   24  C   UNL     1      -9.597  11.590  66.124  1.00  0.00    -0.248 C  
HETATM   25  C   UNL     1     -10.736  10.608  66.393  1.00  0.00    -0.198 C  
HETATM   26  C   UNL     1     -11.343   8.077  70.226  1.00  0.00    -0.145 A  
ENDBRANCH   9  10
ENDBRANCH   8   9
ENDBRANCH   7   8
ENDBRANCH   3   7
ENDBRANCH   2   3
TORSDOF 6
ENDMDL
MODEL      136
REMARK 921   NORMALIZED FREE ENERGY PREDICTED BY IDOCK:   -3.56 KCAL/MOL
REMARK 922        TOTAL FREE ENERGY PREDICTED BY IDOCK:   -5.71 KCAL/MOL
REMARK 923 INTER-LIGAND FREE ENERGY PREDICTED BY IDOCK:   -5.39 KCAL/MOL
REMARK 924 INTRA-LIGAND FREE ENERGY PREDICTED BY IDOCK:   -0.32 KCAL/MOL
REMARK 927      BINDING AFFINITY PREDICTED BY RF-SCORE:    0.00 PKD
ROOT
HETATM    1  C   UNL     1      -7.457   5.461  68.198  1.00  0.00    -0.076 C  
HETATM    2  C   UNL     1      -8.655   5.654  69.112  1.00  0.00    -0.105 C  
ENDROOT
BRANCH   2   3
HETATM    3  N   UNL     1      -9.819   6.473  68.489  1.00  0.00    -0.136 N  
HETATM    4  C   UNL     1     -10.313   5.749  67.223  1.00  0.00    -0.230 C  
BRANCH   3   5
HETATM    5  C   UNL     1     -11.011   6.644  69.450  1.00  0.00    -0.309 C  
HETATM    6  C   UNL     1     -10.889   5.830  70.729  1.00  0.00    -0.330 C  
ENDBRANCH   3   5
BRANCH   3   7
HETATM    7  C   UNL     1      -9.209   7.830  68.081  1.00  0.00    -0.138 C  
BRANCH   7   8
HETATM    8  C   UNL     1      -9.560   8.331  66.678  1.00  0.00    -0.233 C  
BRANCH   8   9
HETATM    9  O   UNL     1     -10.648   9.248  66.863  1.00  0.00    -0.236 OA 
BRANCH   9  10
HETATM   10  C   UNL     1     -10.420  10.289  67.723  1.00  0.00    -0.226 C  
HETATM   11  O   UNL     1     -10.839  10.326  68.870  1.00  0.00    -0.206 OA 
HETATM   12  C   UNL     1      -9.687  11.443  66.965  1.00  0.00    -0.190 C  
HETATM   13  C   UNL     1      -8.204  11.394  67.343  1.00  0.00    -0.145 A  
HETATM   14  O   UNL     1      -9.795  11.229  65.550  1.00  0.00    -0.210 OA 
HETATM   15  C   UNL     1     -10.387  12.801  67.329  1.00  0.00    -0.235 C  
HETATM   16  H   UNL     1      -9.350  11.930  65.088  1.00  0.00     0.000 HD 
HETATM   17  C   UNL     1      -7.206  11.222  66.364  1.00  0.00    -0.052 A  
HETATM   18  C   UNL     1      -9.738  14.043  66.686  1.00  0.00    -0.296 C  
HETATM   19  C   UNL     1      -5.857  11.143  66.714  1.00  0.00    -0.111 A  
HETATM   20  C   UNL     1     -10.048  14.210  65.201  1.00  0.00    -0.348 C  
HETATM   21  C   UNL     1     -11.547  14.204  64.921  1.00  0.00    -0.379 C  
HETATM   22  C   UNL     1      -5.480  11.233  68.047  1.00  0.00    -0.042 A  
HETATM   23  C   UNL     1      -6.447  11.406  69.033  1.00  0.00    -0.069 A  
HETATM   24  C   UNL     1     -12.278  13.032  65.562  1.00  0.00    -0.521 C  
HETATM   25  C   UNL     1     -11.909  12.839  67.031  1.00  0.00    -0.428 C  
HETATM   26  C   UNL     1      -7.796  11.490  68.685  1.00  0.00    -0.137 A  
ENDBRANCH   9  10
ENDBRANCH   8   9
ENDBRANCH   7   8
ENDBRANCH   3   7
ENDBRANCH   2   3
TORSDOF 6
ENDMDL
MODEL      137
REMARK 921   NORMALIZED FREE ENERGY PREDICTED BY IDOCK:   -3.55 KCAL/MOL
REMARK 922        TOTAL FREE ENERGY PREDICTED BY IDOCK:   -5.71 KCAL/MOL
REMARK 923 INTER-LIGAND FREE ENERGY PREDICTED BY IDOCK:   -4.92 KCAL/MOL
REMARK 924 INTRA-LIGAND FREE ENERGY PREDICTED BY IDOCK:   -0.78 KCAL/MOL
REMARK 927      BINDING AFFINITY PREDICTED BY RF-SCORE:    0.00 PKD
ROOT
HETATM    1  C   UNL     1      -5.460   7.752  68.723  1.00  0.00    -0.027 C  
HETATM    2  C   UNL     1      -5.610   8.640  67.499  1.00  0.00    -0.039 C  
ENDROOT
BRANCH   2   3
HETATM    3  N   UNL     1      -6.387   7.992  66.321  1.00  0.00    -0.046 N  
HETATM    4  C   UNL     1      -5.386   7.258  65.410  1.00  0.00    -0.028 C  
BRANCH   3   5
HETATM    5  C   UNL     1      -7.453   6.982  66.789  1.00  0.00    -0.082 C  
HETATM    6  C   UNL     1      -8.630   6.848  65.834  1.00  0.00    -0.152 C  
ENDBRANCH   3   5
BRANCH   3   7
HETATM    7  C   UNL     1      -7.011   9.164  65.533  1.00  0.00    -0.081 C  
BRANCH   7   8
HETATM    8  C   UNL     1      -7.196  10.472  66.308  1.00  0.00    -0.133 C  
BRANCH   8   9
HETATM    9  O   UNL     1      -8.306  11.130  65.681  1.00  0.00    -0.118 OA 
BRANCH   9  10
HETATM   10  C   UNL     1      -9.551  10.678  66.031  1.00  0.00    -0.198 C  
HETATM   11  O   UNL     1     -10.284  10.056  65.276  1.00  0.00    -0.296 OA 
HETATM   12  C   UNL     1      -9.919  11.205  67.455  1.00  0.00    -0.181 C  
HETATM   13  C   UNL     1      -9.716  10.062  68.453  1.00  0.00    -0.157 A  
HETATM   14  O   UNL     1      -9.029  12.273  67.814  1.00  0.00    -0.162 OA 
HETATM   15  C   UNL     1     -11.389  11.757  67.418  1.00  0.00    -0.376 C  
HETATM   16  H   UNL     1      -9.252  12.594  68.680  1.00  0.00     0.000 HD 
HETATM   17  C   UNL     1      -8.820  10.185  69.533  1.00  0.00    -0.198 A  
HETATM   18  C   UNL     1     -11.908  12.273  68.776  1.00  0.00    -0.356 C  
HETATM   19  C   UNL     1      -8.610   9.129  70.421  1.00  0.00    -0.236 A  
HETATM   20  C   UNL     1     -11.343  13.630  69.185  1.00  0.00    -0.335 C  
HETATM   21  C   UNL     1     -11.556  14.691  68.110  1.00  0.00    -0.362 C  
HETATM   22  C   UNL     1      -9.289   7.930  70.247  1.00  0.00    -0.159 A  
HETATM   23  C   UNL     1     -10.182   7.785  69.190  1.00  0.00    -0.210 A  
HETATM   24  C   UNL     1     -11.112  14.246  66.724  1.00  0.00    -0.316 C  
HETATM   25  C   UNL     1     -11.634  12.859  66.354  1.00  0.00    -0.425 C  
HETATM   26  C   UNL     1     -10.396   8.841  68.302  1.00  0.00    -0.252 A  
ENDBRANCH   9  10
ENDBRANCH   8   9
ENDBRANCH   7   8
ENDBRANCH   3   7
ENDBRANCH   2   3
TORSDOF 6
ENDMDL
MODEL      138
REMARK 921   NORMALIZED FREE ENERGY PREDICTED BY IDOCK:   -3.51 KCAL/MOL
REMARK 922        TOTAL FREE ENERGY PREDICTED BY IDOCK:   -5.65 KCAL/MOL
REMARK 923 INTER-LIGAND FREE ENERGY PREDICTED BY IDOCK:   -5.11 KCAL/MOL
REMARK 924 INTRA-LIGAND FREE ENERGY PREDICTED BY IDOCK:   -0.55 KCAL/MOL
REMARK 927      BINDING AFFINITY PREDICTED BY RF-SCORE:    0.00 PKD
ROOT
HETATM    1  C   UNL     1      -7.625  15.452  69.762  1.00  0.00    -0.091 C  
HETATM    2  C   UNL     1      -8.256  15.211  68.401  1.00  0.00    -0.145 C  
ENDROOT
BRANCH   2   3
HETATM    3  N   UNL     1      -9.806  15.310  68.379  1.00  0.00    -0.212 N  
HETATM    4  C   UNL     1     -10.231  16.598  69.109  1.00  0.00    -0.309 C  
BRANCH   3   5
HETATM    5  C   UNL     1     -10.383  15.346  66.950  1.00  0.00    -0.277 C  
HETATM    6  C   UNL     1      -9.680  16.334  66.031  1.00  0.00    -0.370 C  
ENDBRANCH   3   5
BRANCH   3   7
HETATM    7  C   UNL     1     -10.317  14.092  69.176  1.00  0.00    -0.089 C  
BRANCH   7   8
HETATM    8  C   UNL     1     -10.594  12.824  68.363  1.00  0.00    -0.248 C  
BRANCH   8   9
HETATM    9  O   UNL     1     -10.784  11.785  69.334  1.00  0.00    -0.137 OA 
BRANCH   9  10
HETATM   10  C   UNL     1     -11.218  10.580  68.849  1.00  0.00    -0.266 C  
HETATM   11  O   UNL     1     -12.267  10.432  68.239  1.00  0.00    -0.034 OA 
HETATM   12  C   UNL     1     -10.254   9.445  69.323  1.00  0.00    -0.202 C  
HETATM   13  C   UNL     1      -9.339   9.077  68.152  1.00  0.00    -0.151 A  
HETATM   14  O   UNL     1      -9.432   9.934  70.394  1.00  0.00    -0.358 OA 
HETATM   15  C   UNL     1     -11.118   8.244  69.851  1.00  0.00    -0.100 C  
HETATM   16  H   UNL     1      -8.845   9.244  70.683  1.00  0.00     0.000 HD 
HETATM   17  C   UNL     1      -7.939   9.188  68.255  1.00  0.00    -0.103 A  
HETATM   18  C   UNL     1     -10.296   7.024  70.313  1.00  0.00    -0.219 C  
HETATM   19  C   UNL     1      -7.109   8.886  67.174  1.00  0.00    -0.082 A  
HETATM   20  C   UNL     1      -9.614   7.209  71.666  1.00  0.00    -0.163 C  
HETATM   21  C   UNL     1     -10.598   7.615  72.757  1.00  0.00    -0.381 C  
HETATM   22  C   UNL     1      -7.661   8.468  65.970  1.00  0.00    -0.089 A  
HETATM   23  C   UNL     1      -9.041   8.348  65.845  1.00  0.00    -0.225 A  
HETATM   24  C   UNL     1     -11.486   8.787  72.365  1.00  0.00    -0.301 C  
HETATM   25  C   UNL     1     -12.112   8.617  70.982  1.00  0.00    -0.247 C  
HETATM   26  C   UNL     1      -9.874   8.646  66.925  1.00  0.00    -0.305 A  
ENDBRANCH   9  10
ENDBRANCH   8   9
ENDBRANCH   7   8
ENDBRANCH   3   7
ENDBRANCH   2   3
TORSDOF 6
ENDMDL
MODEL      139
REMARK 921   NORMALIZED FREE ENERGY PREDICTED BY IDOCK:   -3.51 KCAL/MOL
REMARK 922        TOTAL FREE ENERGY PREDICTED BY IDOCK:   -5.64 KCAL/MOL
REMARK 923 INTER-LIGAND FREE ENERGY PREDICTED BY IDOCK:   -5.44 KCAL/MOL
REMARK 924 INTRA-LIGAND FREE ENERGY PREDICTED BY IDOCK:   -0.20 KCAL/MOL
REMARK 927      BINDING AFFINITY PREDICTED BY RF-SCORE:    0.00 PKD
ROOT
HETATM    1  C   UNL     1     -11.459  15.524  67.681  1.00  0.00    -0.211 C  
HETATM    2  C   UNL     1     -10.621  14.655  66.758  1.00  0.00    -0.288 C  
ENDROOT
BRANCH   2   3
HETATM    3  N   UNL     1     -11.441  13.813  65.741  1.00  0.00    -0.312 N  
HETATM    4  C   UNL     1     -12.745  14.564  65.413  1.00  0.00    -0.180 C  
BRANCH   3   5
HETATM    5  C   UNL     1     -10.681  13.558  64.425  1.00  0.00    -0.388 C  
HETATM    6  C   UNL     1     -11.366  12.556  63.507  1.00  0.00    -0.556 C  
ENDBRANCH   3   5
BRANCH   3   7
HETATM    7  C   UNL     1     -11.791  12.498  66.468  1.00  0.00    -0.367 C  
BRANCH   7   8
HETATM    8  C   UNL     1     -10.951  12.169  67.705  1.00  0.00    -0.243 C  
BRANCH   8   9
HETATM    9  O   UNL     1     -11.216  10.787  67.987  1.00  0.00    -0.269 OA 
BRANCH   9  10
HETATM   10  C   UNL     1     -10.315  10.154  68.802  1.00  0.00    -0.194 C  
HETATM   11  O   UNL     1     -10.301  10.271  70.018  1.00  0.00    -0.258 OA 
HETATM   12  C   UNL     1      -9.254   9.408  67.929  1.00  0.00    -0.129 C  
HETATM   13  C   UNL     1      -9.610   7.919  67.919  1.00  0.00    -0.169 A  
HETATM   14  O   UNL     1      -9.321   9.892  66.579  1.00  0.00    -0.153 OA 
HETATM   15  C   UNL     1      -7.827   9.713  68.510  1.00  0.00    -0.085 C  
HETATM   16  H   UNL     1      -8.676   9.438  66.048  1.00  0.00     0.000 HD 
HETATM   17  C   UNL     1      -9.878   7.239  66.714  1.00  0.00    -0.281 A  
HETATM   18  C   UNL     1      -6.675   9.000  67.772  1.00  0.00    -0.065 C  
HETATM   19  C   UNL     1     -10.236   5.890  66.710  1.00  0.00    -0.269 A  
HETATM   20  C   UNL     1      -6.325   9.616  66.421  1.00  0.00    -0.069 C  
HETATM   21  C   UNL     1      -6.029  11.109  66.528  1.00  0.00    -0.143 C  
HETATM   22  C   UNL     1     -10.334   5.194  67.908  1.00  0.00    -0.148 A  
HETATM   23  C   UNL     1     -10.071   5.843  69.111  1.00  0.00    -0.244 A  
HETATM   24  C   UNL     1      -7.097  11.885  67.286  1.00  0.00    -0.143 C  
HETATM   25  C   UNL     1      -7.482  11.222  68.607  1.00  0.00    -0.118 C  
HETATM   26  C   UNL     1      -9.709   7.191  69.117  1.00  0.00    -0.158 A  
ENDBRANCH   9  10
ENDBRANCH   8   9
ENDBRANCH   7   8
ENDBRANCH   3   7
ENDBRANCH   2   3
TORSDOF 6
ENDMDL
MODEL      140
REMARK 921   NORMALIZED FREE ENERGY PREDICTED BY IDOCK:   -3.50 KCAL/MOL
REMARK 922        TOTAL FREE ENERGY PREDICTED BY IDOCK:   -5.64 KCAL/MOL
REMARK 923 INTER-LIGAND FREE ENERGY PREDICTED BY IDOCK:   -4.76 KCAL/MOL
REMARK 924 INTRA-LIGAND FREE ENERGY PREDICTED BY IDOCK:   -0.88 KCAL/MOL
REMARK 927      BINDING AFFINITY PREDICTED BY RF-SCORE:    0.00 PKD
ROOT
HETATM    1  C   UNL     1     -10.092   4.512  66.453  1.00  0.00    -0.271 C  
HETATM    2  C   UNL     1      -8.604   4.231  66.335  1.00  0.00    -0.112 C  
ENDROOT
BRANCH   2   3
HETATM    3  N   UNL     1      -7.765   5.411  65.771  1.00  0.00    -0.086 N  
HETATM    4  C   UNL     1      -6.771   5.875  66.851  1.00  0.00    -0.058 C  
BRANCH   3   5
HETATM    5  C   UNL     1      -6.969   5.028  64.508  1.00  0.00    -0.049 C  
HETATM    6  C   UNL     1      -5.473   4.885  64.747  1.00  0.00    -0.013 C  
ENDBRANCH   3   5
BRANCH   3   7
HETATM    7  C   UNL     1      -8.770   6.549  65.495  1.00  0.00    -0.051 C  
BRANCH   7   8
HETATM    8  C   UNL     1      -8.164   7.924  65.202  1.00  0.00    -0.141 C  
BRANCH   8   9
HETATM    9  O   UNL     1      -9.046   8.868  65.827  1.00  0.00    -0.197 OA 
BRANCH   9  10
HETATM   10  C   UNL     1      -8.570   9.483  66.955  1.00  0.00    -0.128 C  
HETATM   11  O   UNL     1      -7.388   9.721  67.150  1.00  0.00    -0.087 OA 
HETATM   12  C   UNL     1      -9.738   9.682  67.975  1.00  0.00    -0.146 C  
HETATM   13  C   UNL     1     -10.182  11.146  67.909  1.00  0.00    -0.202 A  
HETATM   14  O   UNL     1     -10.851   8.860  67.593  1.00  0.00    -0.468 OA 
HETATM   15  C   UNL     1      -9.239   9.238  69.396  1.00  0.00    -0.159 C  
HETATM   16  H   UNL     1     -11.561   8.981  68.213  1.00  0.00     0.000 HD 
HETATM   17  C   UNL     1     -11.506  11.494  67.575  1.00  0.00    -0.355 A  
HETATM   18  C   UNL     1     -10.278   9.423  70.521  1.00  0.00    -0.332 C  
HETATM   19  C   UNL     1     -11.900  12.829  67.481  1.00  0.00    -0.402 A  
HETATM   20  C   UNL     1     -11.393   8.382  70.517  1.00  0.00    -0.228 C  
HETATM   21  C   UNL     1     -10.851   6.957  70.542  1.00  0.00    -0.289 C  
HETATM   22  C   UNL     1     -10.981  13.843  67.717  1.00  0.00    -0.271 A  
HETATM   23  C   UNL     1      -9.668  13.525  68.052  1.00  0.00    -0.228 A  
HETATM   24  C   UNL     1      -9.781   6.698  69.490  1.00  0.00    -0.156 C  
HETATM   25  C   UNL     1      -8.706   7.782  69.463  1.00  0.00    -0.135 C  
HETATM   26  C   UNL     1      -9.272  12.190  68.150  1.00  0.00    -0.197 A  
ENDBRANCH   9  10
ENDBRANCH   8   9
ENDBRANCH   7   8
ENDBRANCH   3   7
ENDBRANCH   2   3
TORSDOF 6
ENDMDL
MODEL      141
REMARK 921   NORMALIZED FREE ENERGY PREDICTED BY IDOCK:   -3.50 KCAL/MOL
REMARK 922        TOTAL FREE ENERGY PREDICTED BY IDOCK:   -5.63 KCAL/MOL
REMARK 923 INTER-LIGAND FREE ENERGY PREDICTED BY IDOCK:   -4.69 KCAL/MOL
REMARK 924 INTRA-LIGAND FREE ENERGY PREDICTED BY IDOCK:   -0.94 KCAL/MOL
REMARK 927      BINDING AFFINITY PREDICTED BY RF-SCORE:    0.00 PKD
ROOT
HETATM    1  C   UNL     1     -10.019  11.352  68.687  1.00  0.00    -0.209 C  
HETATM    2  C   UNL     1     -10.634  10.305  67.773  1.00  0.00    -0.250 C  
ENDROOT
BRANCH   2   3
HETATM    3  N   UNL     1      -9.622   9.287  67.181  1.00  0.00    -0.151 N  
HETATM    4  C   UNL     1     -10.379   8.005  66.788  1.00  0.00    -0.290 C  
BRANCH   3   5
HETATM    5  C   UNL     1      -8.893   9.824  65.934  1.00  0.00    -0.150 C  
HETATM    6  C   UNL     1      -9.829  10.337  64.851  1.00  0.00    -0.404 C  
ENDBRANCH   3   5
BRANCH   3   7
HETATM    7  C   UNL     1      -8.640   8.956  68.325  1.00  0.00    -0.134 C  
BRANCH   7   8
HETATM    8  C   UNL     1      -7.721   7.752  68.095  1.00  0.00    -0.119 C  
BRANCH   8   9
HETATM    9  O   UNL     1      -7.521   7.175  69.393  1.00  0.00    -0.091 OA 
BRANCH   9  10
HETATM   10  C   UNL     1      -8.343   6.129  69.721  1.00  0.00    -0.124 C  
HETATM   11  O   UNL     1      -8.677   5.256  68.934  1.00  0.00    -0.091 OA 
HETATM   12  C   UNL     1      -8.879   6.321  71.177  1.00  0.00    -0.142 C  
HETATM   13  C   UNL     1      -8.082   5.399  72.103  1.00  0.00    -0.111 A  
HETATM   14  O   UNL     1      -8.653   7.676  71.594  1.00  0.00    -0.112 OA 
HETATM   15  C   UNL     1     -10.424   6.038  71.179  1.00  0.00    -0.284 C  
HETATM   16  H   UNL     1      -8.979   7.794  72.478  1.00  0.00     0.000 HD 
HETATM   17  C   UNL     1      -7.340   5.913  73.184  1.00  0.00    -0.094 A  
HETATM   18  C   UNL     1     -11.087   6.145  72.568  1.00  0.00    -0.313 C  
HETATM   19  C   UNL     1      -6.586   5.074  74.007  1.00  0.00    -0.069 A  
HETATM   20  C   UNL     1     -11.285   7.578  73.054  1.00  0.00    -0.373 C  
HETATM   21  C   UNL     1     -12.052   8.428  72.046  1.00  0.00    -0.417 C  
HETATM   22  C   UNL     1      -6.558   3.707  73.764  1.00  0.00    -0.038 A  
HETATM   23  C   UNL     1      -7.286   3.175  72.704  1.00  0.00    -0.047 A  
HETATM   24  C   UNL     1     -11.491   8.344  70.634  1.00  0.00    -0.235 C  
HETATM   25  C   UNL     1     -11.238   6.906  70.184  1.00  0.00    -0.361 C  
HETATM   26  C   UNL     1      -8.043   4.011  71.883  1.00  0.00    -0.084 A  
ENDBRANCH   9  10
ENDBRANCH   8   9
ENDBRANCH   7   8
ENDBRANCH   3   7
ENDBRANCH   2   3
TORSDOF 6
ENDMDL
MODEL      142
REMARK 921   NORMALIZED FREE ENERGY PREDICTED BY IDOCK:   -3.50 KCAL/MOL
REMARK 922        TOTAL FREE ENERGY PREDICTED BY IDOCK:   -5.63 KCAL/MOL
REMARK 923 INTER-LIGAND FREE ENERGY PREDICTED BY IDOCK:   -4.89 KCAL/MOL
REMARK 924 INTRA-LIGAND FREE ENERGY PREDICTED BY IDOCK:   -0.74 KCAL/MOL
REMARK 927      BINDING AFFINITY PREDICTED BY RF-SCORE:    0.00 PKD
ROOT
HETATM    1  C   UNL     1     -10.105  15.764  68.291  1.00  0.00    -0.222 C  
HETATM    2  C   UNL     1      -9.907  14.265  68.148  1.00  0.00    -0.226 C  
ENDROOT
BRANCH   2   3
HETATM    3  N   UNL     1     -11.166  13.412  68.466  1.00  0.00    -0.266 N  
HETATM    4  C   UNL     1     -11.843  13.978  69.727  1.00  0.00    -0.324 C  
BRANCH   3   5
HETATM    5  C   UNL     1     -12.194  13.411  67.318  1.00  0.00    -0.233 C  
HETATM    6  C   UNL     1     -11.566  13.379  65.933  1.00  0.00    -0.370 C  
ENDBRANCH   3   5
BRANCH   3   7
HETATM    7  C   UNL     1     -10.646  11.992  68.773  1.00  0.00    -0.209 C  
BRANCH   7   8
HETATM    8  C   UNL     1     -11.679  11.000  69.316  1.00  0.00    -0.326 C  
BRANCH   8   9
HETATM    9  O   UNL     1     -11.005  10.284  70.361  1.00  0.00    -0.296 OA 
BRANCH   9  10
HETATM   10  C   UNL     1     -10.739   8.963  70.112  1.00  0.00    -0.225 C  
HETATM   11  O   UNL     1     -11.604   8.108  69.994  1.00  0.00    -0.021 OA 
HETATM   12  C   UNL     1      -9.195   8.722  70.153  1.00  0.00    -0.169 C  
HETATM   13  C   UNL     1      -8.690   8.632  68.710  1.00  0.00    -0.135 A  
HETATM   14  O   UNL     1      -8.554   9.842  70.781  1.00  0.00    -0.366 OA 
HETATM   15  C   UNL     1      -8.915   7.432  71.003  1.00  0.00    -0.151 C  
HETATM   16  H   UNL     1      -7.615   9.697  70.806  1.00  0.00     0.000 HD 
HETATM   17  C   UNL     1      -7.713   9.521  68.221  1.00  0.00    -0.086 A  
HETATM   18  C   UNL     1      -7.426   7.041  71.092  1.00  0.00    -0.081 C  
HETATM   19  C   UNL     1      -7.279   9.459  66.896  1.00  0.00    -0.087 A  
HETATM   20  C   UNL     1      -6.608   7.917  72.037  1.00  0.00    -0.059 C  
HETATM   21  C   UNL     1      -7.213   7.978  73.435  1.00  0.00    -0.161 C  
HETATM   22  C   UNL     1      -7.812   8.509  66.034  1.00  0.00    -0.098 A  
HETATM   23  C   UNL     1      -8.776   7.618  66.495  1.00  0.00    -0.161 A  
HETATM   24  C   UNL     1      -8.698   8.313  73.437  1.00  0.00    -0.274 C  
HETATM   25  C   UNL     1      -9.494   7.472  72.441  1.00  0.00    -0.202 C  
HETATM   26  C   UNL     1      -9.210   7.675  67.821  1.00  0.00    -0.141 A  
ENDBRANCH   9  10
ENDBRANCH   8   9
ENDBRANCH   7   8
ENDBRANCH   3   7
ENDBRANCH   2   3
TORSDOF 6
ENDMDL
MODEL      143
REMARK 921   NORMALIZED FREE ENERGY PREDICTED BY IDOCK:   -3.48 KCAL/MOL
REMARK 922        TOTAL FREE ENERGY PREDICTED BY IDOCK:   -5.61 KCAL/MOL
REMARK 923 INTER-LIGAND FREE ENERGY PREDICTED BY IDOCK:   -5.06 KCAL/MOL
REMARK 924 INTRA-LIGAND FREE ENERGY PREDICTED BY IDOCK:   -0.55 KCAL/MOL
REMARK 927      BINDING AFFINITY PREDICTED BY RF-SCORE:    0.00 PKD
ROOT
HETATM    1  C   UNL     1     -11.603  15.371  67.741  1.00  0.00    -0.237 C  
HETATM    2  C   UNL     1     -10.551  16.110  66.931  1.00  0.00    -0.283 C  
ENDROOT
BRANCH   2   3
HETATM    3  N   UNL     1      -9.151  16.181  67.600  1.00  0.00    -0.196 N  
HETATM    4  C   UNL     1      -8.088  16.386  66.505  1.00  0.00    -0.310 C  
BRANCH   3   5
HETATM    5  C   UNL     1      -9.031  17.331  68.618  1.00  0.00    -0.265 C  
HETATM    6  C   UNL     1      -8.774  18.689  67.981  1.00  0.00    -0.325 C  
ENDBRANCH   3   5
BRANCH   3   7
HETATM    7  C   UNL     1      -8.929  14.803  68.259  1.00  0.00    -0.181 C  
BRANCH   7   8
HETATM    8  C   UNL     1      -8.365  13.707  67.352  1.00  0.00    -0.192 C  
BRANCH   8   9
HETATM    9  O   UNL     1      -8.758  12.469  67.962  1.00  0.00    -0.171 OA 
BRANCH   9  10
HETATM   10  C   UNL     1      -9.905  11.897  67.479  1.00  0.00    -0.188 C  
HETATM   11  O   UNL     1     -10.453  12.244  66.443  1.00  0.00    -0.230 OA 
HETATM   12  C   UNL     1     -10.454  10.867  68.519  1.00  0.00    -0.188 C  
HETATM   13  C   UNL     1     -10.085   9.461  68.037  1.00  0.00    -0.230 A  
HETATM   14  O   UNL     1      -9.820  11.084  69.788  1.00  0.00    -0.382 OA 
HETATM   15  C   UNL     1     -12.000  11.094  68.677  1.00  0.00    -0.289 C  
HETATM   16  H   UNL     1     -10.153  10.459  70.421  1.00  0.00     0.000 HD 
HETATM   17  C   UNL     1      -9.297   8.601  68.827  1.00  0.00    -0.142 A  
HETATM   18  C   UNL     1     -12.692  10.112  69.644  1.00  0.00     0.507 C  
HETATM   19  C   UNL     1      -8.932   7.334  68.371  1.00  0.00    -0.126 A  
HETATM   20  C   UNL     1     -12.435  10.406  71.119  1.00  0.00    -0.509 C  
HETATM   21  C   UNL     1     -12.793  11.840  71.492  1.00  0.00    -0.450 C  
HETATM   22  C   UNL     1      -9.346   6.901  67.118  1.00  0.00    -0.162 A  
HETATM   23  C   UNL     1     -10.128   7.731  66.320  1.00  0.00     0.025 A  
HETATM   24  C   UNL     1     -12.188  12.878  70.557  1.00  0.00    -0.395 C  
HETATM   25  C   UNL     1     -12.399  12.537  69.083  1.00  0.00     0.130 C  
HETATM   26  C   UNL     1     -10.497   8.998  66.775  1.00  0.00    -0.270 A  
ENDBRANCH   9  10
ENDBRANCH   8   9
ENDBRANCH   7   8
ENDBRANCH   3   7
ENDBRANCH   2   3
TORSDOF 6
ENDMDL
MODEL      144
REMARK 921   NORMALIZED FREE ENERGY PREDICTED BY IDOCK:   -3.47 KCAL/MOL
REMARK 922        TOTAL FREE ENERGY PREDICTED BY IDOCK:   -5.59 KCAL/MOL
REMARK 923 INTER-LIGAND FREE ENERGY PREDICTED BY IDOCK:   -5.04 KCAL/MOL
REMARK 924 INTRA-LIGAND FREE ENERGY PREDICTED BY IDOCK:   -0.55 KCAL/MOL
REMARK 927      BINDING AFFINITY PREDICTED BY RF-SCORE:    0.00 PKD
ROOT
HETATM    1  C   UNL     1     -13.772   8.603  72.239  1.00  0.00    -0.445 C  
HETATM    2  C   UNL     1     -12.459   8.765  71.493  1.00  0.00    -0.326 C  
ENDROOT
BRANCH   2   3
HETATM    3  N   UNL     1     -11.450   7.601  71.699  1.00  0.00    -0.254 N  
HETATM    4  C   UNL     1     -10.471   7.986  72.823  1.00  0.00    -0.345 C  
BRANCH   3   5
HETATM    5  C   UNL     1     -12.135   6.275  72.082  1.00  0.00    -0.252 C  
HETATM    6  C   UNL     1     -11.234   5.320  72.850  1.00  0.00    -0.375 C  
ENDBRANCH   3   5
BRANCH   3   7
HETATM    7  C   UNL     1     -10.667   7.483  70.374  1.00  0.00    -0.239 C  
BRANCH   7   8
HETATM    8  C   UNL     1     -11.051   6.309  69.469  1.00  0.00    -0.408 C  
BRANCH   8   9
HETATM    9  O   UNL     1      -9.893   6.062  68.657  1.00  0.00    -0.129 OA 
BRANCH   9  10
HETATM   10  C   UNL     1     -10.017   6.357  67.326  1.00  0.00    -0.146 C  
HETATM   11  O   UNL     1     -11.003   6.082  66.658  1.00  0.00    -0.293 OA 
HETATM   12  C   UNL     1      -8.671   6.946  66.792  1.00  0.00    -0.122 C  
HETATM   13  C   UNL     1      -8.827   8.465  66.683  1.00  0.00    -0.164 A  
HETATM   14  O   UNL     1      -7.623   6.672  67.735  1.00  0.00    -0.101 OA 
HETATM   15  C   UNL     1      -8.326   6.247  65.429  1.00  0.00    -0.148 C  
HETATM   16  H   UNL     1      -6.804   7.030  67.411  1.00  0.00     0.000 HD 
HETATM   17  C   UNL     1      -7.981   9.340  67.394  1.00  0.00    -0.106 A  
HETATM   18  C   UNL     1      -7.038   6.764  64.757  1.00  0.00    -0.060 C  
HETATM   19  C   UNL     1      -8.148  10.724  67.320  1.00  0.00    -0.117 A  
HETATM   20  C   UNL     1      -5.752   6.267  65.410  1.00  0.00    -0.021 C  
HETATM   21  C   UNL     1      -5.708   4.745  65.512  1.00  0.00    -0.018 C  
HETATM   22  C   UNL     1      -9.161  11.260  66.536  1.00  0.00    -0.200 A  
HETATM   23  C   UNL     1     -10.007  10.417  65.822  1.00  0.00    -0.334 A  
HETATM   24  C   UNL     1      -6.966   4.144  66.123  1.00  0.00    -0.066 C  
HETATM   25  C   UNL     1      -8.247   4.699  65.503  1.00  0.00    -0.115 C  
HETATM   26  C   UNL     1      -9.841   9.033  65.891  1.00  0.00    -0.257 A  
ENDBRANCH   9  10
ENDBRANCH   8   9
ENDBRANCH   7   8
ENDBRANCH   3   7
ENDBRANCH   2   3
TORSDOF 6
ENDMDL
MODEL      145
REMARK 921   NORMALIZED FREE ENERGY PREDICTED BY IDOCK:   -3.42 KCAL/MOL
REMARK 922        TOTAL FREE ENERGY PREDICTED BY IDOCK:   -5.53 KCAL/MOL
REMARK 923 INTER-LIGAND FREE ENERGY PREDICTED BY IDOCK:   -4.66 KCAL/MOL
REMARK 924 INTRA-LIGAND FREE ENERGY PREDICTED BY IDOCK:   -0.86 KCAL/MOL
REMARK 927      BINDING AFFINITY PREDICTED BY RF-SCORE:    0.00 PKD
ROOT
HETATM    1  C   UNL     1      -9.398   7.862  72.701  1.00  0.00    -0.275 C  
HETATM    2  C   UNL     1     -10.877   7.703  73.010  1.00  0.00    -0.400 C  
ENDROOT
BRANCH   2   3
HETATM    3  N   UNL     1     -11.828   8.101  71.848  1.00  0.00    -0.297 N  
HETATM    4  C   UNL     1     -13.097   8.739  72.442  1.00  0.00    -0.391 C  
BRANCH   3   5
HETATM    5  C   UNL     1     -11.189   9.106  70.869  1.00  0.00    -0.295 C  
HETATM    6  C   UNL     1     -11.893  10.454  70.830  1.00  0.00    -0.475 C  
ENDBRANCH   3   5
BRANCH   3   7
HETATM    7  C   UNL     1     -12.214   6.781  71.148  1.00  0.00    -0.360 C  
BRANCH   7   8
HETATM    8  C   UNL     1     -11.531   6.508  69.804  1.00  0.00    -0.379 C  
BRANCH   8   9
HETATM    9  O   UNL     1     -10.478   5.577  70.096  1.00  0.00    -0.260 OA 
BRANCH   9  10
HETATM   10  C   UNL     1      -9.262   5.845  69.525  1.00  0.00    -0.135 C  
HETATM   11  O   UNL     1      -8.773   6.963  69.463  1.00  0.00    -0.133 OA 
HETATM   12  C   UNL     1      -8.701   4.548  68.856  1.00  0.00    -0.086 C  
HETATM   13  C   UNL     1      -7.632   3.961  69.782  1.00  0.00    -0.052 A  
HETATM   14  O   UNL     1      -9.756   3.584  68.724  1.00  0.00    -0.126 OA 
HETATM   15  C   UNL     1      -8.164   4.917  67.427  1.00  0.00    -0.106 C  
HETATM   16  H   UNL     1      -9.415   2.795  68.318  1.00  0.00     0.000 HD 
HETATM   17  C   UNL     1      -7.753   2.657  70.303  1.00  0.00    -0.044 A  
HETATM   18  C   UNL     1      -7.533   3.736  66.661  1.00  0.00    -0.080 C  
HETATM   19  C   UNL     1      -6.796   2.137  71.175  1.00  0.00    -0.031 A  
HETATM   20  C   UNL     1      -8.548   2.748  66.094  1.00  0.00    -0.117 C  
HETATM   21  C   UNL     1      -9.594   3.433  65.221  1.00  0.00    -0.116 C  
HETATM   22  C   UNL     1      -5.700   2.907  71.544  1.00  0.00    -0.012 A  
HETATM   23  C   UNL     1      -5.557   4.196  71.040  1.00  0.00    -0.012 A  
HETATM   24  C   UNL     1     -10.237   4.643  65.884  1.00  0.00    -0.303 C  
HETATM   25  C   UNL     1      -9.212   5.591  66.502  1.00  0.00    -0.144 C  
HETATM   26  C   UNL     1      -6.511   4.718  70.165  1.00  0.00    -0.035 A  
ENDBRANCH   9  10
ENDBRANCH   8   9
ENDBRANCH   7   8
ENDBRANCH   3   7
ENDBRANCH   2   3
TORSDOF 6
ENDMDL
MODEL      146
REMARK 921   NORMALIZED FREE ENERGY PREDICTED BY IDOCK:   -3.42 KCAL/MOL
REMARK 922        TOTAL FREE ENERGY PREDICTED BY IDOCK:   -5.52 KCAL/MOL
REMARK 923 INTER-LIGAND FREE ENERGY PREDICTED BY IDOCK:   -4.74 KCAL/MOL
REMARK 924 INTRA-LIGAND FREE ENERGY PREDICTED BY IDOCK:   -0.77 KCAL/MOL
REMARK 927      BINDING AFFINITY PREDICTED BY RF-SCORE:    0.00 PKD
ROOT
HETATM    1  C   UNL     1      -6.872   5.550  70.721  1.00  0.00    -0.052 C  
HETATM    2  C   UNL     1      -7.938   4.854  71.550  1.00  0.00    -0.110 C  
ENDROOT
BRANCH   2   3
HETATM    3  N   UNL     1      -9.389   5.045  71.031  1.00  0.00    -0.146 N  
HETATM    4  C   UNL     1      -9.650   4.033  69.901  1.00  0.00    -0.211 C  
BRANCH   3   5
HETATM    5  C   UNL     1     -10.450   4.835  72.129  1.00  0.00    -0.175 C  
HETATM    6  C   UNL     1     -10.208   5.664  73.381  1.00  0.00    -0.223 C  
ENDBRANCH   3   5
BRANCH   3   7
HETATM    7  C   UNL     1      -9.442   6.472  70.445  1.00  0.00    -0.162 C  
BRANCH   7   8
HETATM    8  C   UNL     1     -10.792   6.914  69.872  1.00  0.00    -0.257 C  
BRANCH   8   9
HETATM    9  O   UNL     1     -10.668   8.327  69.656  1.00  0.00    -0.230 OA 
BRANCH   9  10
HETATM   10  C   UNL     1     -10.248   8.712  68.410  1.00  0.00    -0.200 C  
HETATM   11  O   UNL     1     -10.427   8.048  67.399  1.00  0.00    -0.258 OA 
HETATM   12  C   UNL     1      -9.402  10.021  68.523  1.00  0.00    -0.145 C  
HETATM   13  C   UNL     1     -10.285  11.197  68.096  1.00  0.00    -0.198 A  
HETATM   14  O   UNL     1      -9.018  10.225  69.891  1.00  0.00    -0.378 OA 
HETATM   15  C   UNL     1      -8.107   9.854  67.650  1.00  0.00    -0.110 C  
HETATM   16  H   UNL     1      -8.504  11.021  69.960  1.00  0.00     0.000 HD 
HETATM   17  C   UNL     1     -10.552  12.267  68.973  1.00  0.00    -0.104 A  
HETATM   18  C   UNL     1      -7.192  11.095  67.628  1.00  0.00    -0.094 C  
HETATM   19  C   UNL     1     -11.386  13.320  68.594  1.00  0.00    -0.324 A  
HETATM   20  C   UNL     1      -6.380  11.293  68.905  1.00  0.00    -0.055 C  
HETATM   21  C   UNL     1      -5.568  10.055  69.270  1.00  0.00    -0.038 C  
HETATM   22  C   UNL     1     -11.970  13.325  67.334  1.00  0.00    -0.383 A  
HETATM   23  C   UNL     1     -11.719  12.280  66.449  1.00  0.00    -0.431 A  
HETATM   24  C   UNL     1      -6.387   8.772  69.269  1.00  0.00    -0.042 C  
HETATM   25  C   UNL     1      -7.242   8.619  68.013  1.00  0.00    -0.087 C  
HETATM   26  C   UNL     1     -10.883  11.228  66.824  1.00  0.00    -0.334 A  
ENDBRANCH   9  10
ENDBRANCH   8   9
ENDBRANCH   7   8
ENDBRANCH   3   7
ENDBRANCH   2   3
TORSDOF 6
ENDMDL
MODEL      147
REMARK 921   NORMALIZED FREE ENERGY PREDICTED BY IDOCK:   -3.40 KCAL/MOL
REMARK 922        TOTAL FREE ENERGY PREDICTED BY IDOCK:   -5.50 KCAL/MOL
REMARK 923 INTER-LIGAND FREE ENERGY PREDICTED BY IDOCK:   -4.95 KCAL/MOL
REMARK 924 INTRA-LIGAND FREE ENERGY PREDICTED BY IDOCK:   -0.54 KCAL/MOL
REMARK 927      BINDING AFFINITY PREDICTED BY RF-SCORE:    0.00 PKD
ROOT
HETATM    1  C   UNL     1      -8.570   5.143  63.883  1.00  0.00    -0.085 C  
HETATM    2  C   UNL     1      -8.398   3.899  64.738  1.00  0.00    -0.101 C  
ENDROOT
BRANCH   2   3
HETATM    3  N   UNL     1      -7.989   4.177  66.210  1.00  0.00    -0.098 N  
HETATM    4  C   UNL     1      -9.031   3.534  67.144  1.00  0.00    -0.149 C  
BRANCH   3   5
HETATM    5  C   UNL     1      -6.601   3.608  66.564  1.00  0.00    -0.041 C  
HETATM    6  C   UNL     1      -5.473   4.178  65.718  1.00  0.00    -0.013 C  
ENDBRANCH   3   5
BRANCH   3   7
HETATM    7  C   UNL     1      -8.044   5.709  66.381  1.00  0.00    -0.106 C  
BRANCH   7   8
HETATM    8  C   UNL     1      -7.847   6.235  67.806  1.00  0.00    -0.106 C  
BRANCH   8   9
HETATM    9  O   UNL     1      -8.920   7.163  68.021  1.00  0.00    -0.128 OA 
BRANCH   9  10
HETATM   10  C   UNL     1      -8.708   8.118  68.979  1.00  0.00    -0.144 C  
HETATM   11  O   UNL     1      -7.648   8.263  69.570  1.00  0.00    -0.090 OA 
HETATM   12  C   UNL     1     -10.048   8.863  69.282  1.00  0.00    -0.203 C  
HETATM   13  C   UNL     1     -10.013  10.215  68.565  1.00  0.00    -0.177 A  
HETATM   14  O   UNL     1     -11.146   8.105  68.751  1.00  0.00    -0.417 OA 
HETATM   15  C   UNL     1     -10.214   8.978  70.839  1.00  0.00    -0.324 C  
HETATM   16  H   UNL     1     -11.961   8.558  68.934  1.00  0.00     0.000 HD 
HETATM   17  C   UNL     1     -10.988  10.561  67.608  1.00  0.00    -0.375 A  
HETATM   18  C   UNL     1     -11.479   9.736  71.289  1.00  0.00    -0.457 C  
HETATM   19  C   UNL     1     -10.934  11.780  66.931  1.00  0.00    -0.333 A  
HETATM   20  C   UNL     1     -12.770   8.935  71.148  1.00  0.00    -0.201 C  
HETATM   21  C   UNL     1     -12.692   7.587  71.859  1.00  0.00    -0.318 C  
HETATM   22  C   UNL     1      -9.906  12.677  67.195  1.00  0.00    -0.212 A  
HETATM   23  C   UNL     1      -8.934  12.359  68.138  1.00  0.00    -0.196 A  
HETATM   24  C   UNL     1     -11.445   6.789  71.507  1.00  0.00    -0.329 C  
HETATM   25  C   UNL     1     -10.168   7.622  71.591  1.00  0.00    -0.217 C  
HETATM   26  C   UNL     1      -8.987  11.142  68.819  1.00  0.00    -0.136 A  
ENDBRANCH   9  10
ENDBRANCH   8   9
ENDBRANCH   7   8
ENDBRANCH   3   7
ENDBRANCH   2   3
TORSDOF 6
ENDMDL
MODEL      148
REMARK 921   NORMALIZED FREE ENERGY PREDICTED BY IDOCK:   -3.38 KCAL/MOL
REMARK 922        TOTAL FREE ENERGY PREDICTED BY IDOCK:   -5.47 KCAL/MOL
REMARK 923 INTER-LIGAND FREE ENERGY PREDICTED BY IDOCK:   -4.77 KCAL/MOL
REMARK 924 INTRA-LIGAND FREE ENERGY PREDICTED BY IDOCK:   -0.70 KCAL/MOL
REMARK 927      BINDING AFFINITY PREDICTED BY RF-SCORE:    0.00 PKD
ROOT
HETATM    1  C   UNL     1     -12.972   7.897  71.670  1.00  0.00    -0.359 C  
HETATM    2  C   UNL     1     -11.720   8.210  72.472  1.00  0.00    -0.394 C  
ENDROOT
BRANCH   2   3
HETATM    3  N   UNL     1     -10.758   7.006  72.666  1.00  0.00    -0.242 N  
HETATM    4  C   UNL     1      -9.327   7.453  72.312  1.00  0.00    -0.142 C  
BRANCH   3   5
HETATM    5  C   UNL     1     -10.757   6.466  74.108  1.00  0.00     0.047 C  
HETATM    6  C   UNL     1      -9.520   5.652  74.457  1.00  0.00    -0.157 C  
ENDBRANCH   3   5
BRANCH   3   7
HETATM    7  C   UNL     1     -11.211   5.936  71.650  1.00  0.00    -0.237 C  
BRANCH   7   8
HETATM    8  C   UNL     1     -10.119   5.000  71.126  1.00  0.00    -0.223 C  
BRANCH   8   9
HETATM    9  O   UNL     1     -10.291   4.975  69.702  1.00  0.00    -0.260 OA 
BRANCH   9  10
HETATM   10  C   UNL     1      -9.214   5.375  68.957  1.00  0.00    -0.120 C  
HETATM   11  O   UNL     1      -8.053   5.229  69.310  1.00  0.00    -0.090 OA 
HETATM   12  C   UNL     1      -9.709   6.157  67.697  1.00  0.00    -0.116 C  
HETATM   13  C   UNL     1      -9.625   5.217  66.491  1.00  0.00    -0.166 A  
HETATM   14  O   UNL     1     -11.084   6.530  67.877  1.00  0.00    -0.428 OA 
HETATM   15  C   UNL     1      -8.843   7.458  67.546  1.00  0.00    -0.127 C  
HETATM   16  H   UNL     1     -11.385   7.005  67.111  1.00  0.00     0.000 HD 
HETATM   17  C   UNL     1     -10.768   4.899  65.731  1.00  0.00    -0.194 A  
HETATM   18  C   UNL     1      -9.190   8.312  66.310  1.00  0.00    -0.258 C  
HETATM   19  C   UNL     1     -10.696   4.015  64.654  1.00  0.00    -0.164 A  
HETATM   20  C   UNL     1     -10.482   9.113  66.449  1.00  0.00    -0.141 C  
HETATM   21  C   UNL     1     -10.488   9.984  67.700  1.00  0.00    -0.297 C  
HETATM   22  C   UNL     1      -9.482   3.432  64.315  1.00  0.00    -0.143 A  
HETATM   23  C   UNL     1      -8.338   3.733  65.048  1.00  0.00    -0.101 A  
HETATM   24  C   UNL     1     -10.108   9.229  68.966  1.00  0.00    -0.207 C  
HETATM   25  C   UNL     1      -8.849   8.382  68.792  1.00  0.00    -0.140 C  
HETATM   26  C   UNL     1      -8.407   4.619  66.124  1.00  0.00    -0.110 A  
ENDBRANCH   9  10
ENDBRANCH   8   9
ENDBRANCH   7   8
ENDBRANCH   3   7
ENDBRANCH   2   3
TORSDOF 6
ENDMDL
MODEL      149
REMARK 921   NORMALIZED FREE ENERGY PREDICTED BY IDOCK:   -3.37 KCAL/MOL
REMARK 922        TOTAL FREE ENERGY PREDICTED BY IDOCK:   -5.45 KCAL/MOL
REMARK 923 INTER-LIGAND FREE ENERGY PREDICTED BY IDOCK:   -4.59 KCAL/MOL
REMARK 924 INTRA-LIGAND FREE ENERGY PREDICTED BY IDOCK:   -0.86 KCAL/MOL
REMARK 927      BINDING AFFINITY PREDICTED BY RF-SCORE:    0.00 PKD
ROOT
HETATM    1  C   UNL     1      -7.530   9.800  64.163  1.00  0.00    -0.135 C  
HETATM    2  C   UNL     1      -8.079   8.869  65.230  1.00  0.00    -0.126 C  
ENDROOT
BRANCH   2   3
HETATM    3  N   UNL     1      -8.584   9.582  66.514  1.00  0.00    -0.132 N  
HETATM    4  C   UNL     1      -7.979  10.997  66.567  1.00  0.00    -0.158 C  
BRANCH   3   5
HETATM    5  C   UNL     1     -10.119   9.706  66.566  1.00  0.00    -0.244 C  
HETATM    6  C   UNL     1     -10.614  11.138  66.700  1.00  0.00    -0.314 C  
ENDBRANCH   3   5
BRANCH   3   7
HETATM    7  C   UNL     1      -8.033   8.759  67.698  1.00  0.00    -0.106 C  
BRANCH   7   8
HETATM    8  C   UNL     1      -7.645   7.311  67.388  1.00  0.00    -0.105 C  
BRANCH   8   9
HETATM    9  O   UNL     1      -7.789   6.605  68.629  1.00  0.00    -0.110 OA 
BRANCH   9  10
HETATM   10  C   UNL     1      -8.989   5.974  68.827  1.00  0.00    -0.118 C  
HETATM   11  O   UNL     1      -9.658   5.490  67.926  1.00  0.00    -0.116 OA 
HETATM   12  C   UNL     1      -9.409   6.107  70.327  1.00  0.00    -0.160 C  
HETATM   13  C   UNL     1      -9.106   4.780  71.026  1.00  0.00    -0.177 A  
HETATM   14  O   UNL     1      -8.623   7.132  70.954  1.00  0.00    -0.135 OA 
HETATM   15  C   UNL     1     -10.924   6.520  70.384  1.00  0.00    -0.353 C  
HETATM   16  H   UNL     1      -8.879   7.214  71.865  1.00  0.00     0.000 HD 
HETATM   17  C   UNL     1      -8.230   4.717  72.127  1.00  0.00    -0.111 A  
HETATM   18  C   UNL     1     -11.494   6.645  71.812  1.00  0.00    -0.334 C  
HETATM   19  C   UNL     1      -7.927   3.501  72.742  1.00  0.00    -0.076 A  
HETATM   20  C   UNL     1     -11.058   7.908  72.549  1.00  0.00    -0.423 C  
HETATM   21  C   UNL     1     -11.364   9.173  71.755  1.00  0.00    -0.451 C  
HETATM   22  C   UNL     1      -8.493   2.324  72.268  1.00  0.00    -0.063 A  
HETATM   23  C   UNL     1      -9.364   2.360  71.183  1.00  0.00    -0.210 A  
HETATM   24  C   UNL     1     -10.875   9.117  70.314  1.00  0.00    -0.282 C  
HETATM   25  C   UNL     1     -11.265   7.820  69.609  1.00  0.00     0.041 C  
HETATM   26  C   UNL     1      -9.671   3.576  70.569  1.00  0.00    -0.187 A  
ENDBRANCH   9  10
ENDBRANCH   8   9
ENDBRANCH   7   8
ENDBRANCH   3   7
ENDBRANCH   2   3
TORSDOF 6
ENDMDL
MODEL      150
REMARK 921   NORMALIZED FREE ENERGY PREDICTED BY IDOCK:   -3.34 KCAL/MOL
REMARK 922        TOTAL FREE ENERGY PREDICTED BY IDOCK:   -5.42 KCAL/MOL
REMARK 923 INTER-LIGAND FREE ENERGY PREDICTED BY IDOCK:   -4.93 KCAL/MOL
REMARK 924 INTRA-LIGAND FREE ENERGY PREDICTED BY IDOCK:   -0.49 KCAL/MOL
REMARK 927      BINDING AFFINITY PREDICTED BY RF-SCORE:    0.00 PKD
ROOT
HETATM    1  C   UNL     1     -12.025  15.752  68.585  1.00  0.00    -0.165 C  
HETATM    2  C   UNL     1     -11.188  14.612  68.029  1.00  0.00    -0.293 C  
ENDROOT
BRANCH   2   3
HETATM    3  N   UNL     1     -11.217  14.484  66.481  1.00  0.00    -0.337 N  
HETATM    4  C   UNL     1     -12.654  14.154  66.037  1.00  0.00    -0.375 C  
BRANCH   3   5
HETATM    5  C   UNL     1     -10.770  15.773  65.765  1.00  0.00    -0.327 C  
HETATM    6  C   UNL     1      -9.326  16.161  66.048  1.00  0.00    -0.368 C  
ENDBRANCH   3   5
BRANCH   3   7
HETATM    7  C   UNL     1     -10.303  13.289  66.140  1.00  0.00    -0.290 C  
BRANCH   7   8
HETATM    8  C   UNL     1      -9.879  12.408  67.319  1.00  0.00    -0.207 C  
BRANCH   8   9
HETATM    9  O   UNL     1      -9.351  11.212  66.728  1.00  0.00    -0.172 OA 
BRANCH   9  10
HETATM   10  C   UNL     1      -8.496  10.481  67.510  1.00  0.00    -0.118 C  
HETATM   11  O   UNL     1      -7.841  10.955  68.426  1.00  0.00    -0.110 OA 
HETATM   12  C   UNL     1      -8.392   9.024  66.951  1.00  0.00    -0.119 C  
HETATM   13  C   UNL     1      -9.255   8.115  67.831  1.00  0.00    -0.138 A  
HETATM   14  O   UNL     1      -8.919   8.985  65.617  1.00  0.00    -0.178 OA 
HETATM   15  C   UNL     1      -6.876   8.613  66.913  1.00  0.00    -0.070 C  
HETATM   16  H   UNL     1      -8.856   8.100  65.277  1.00  0.00     0.000 HD 
HETATM   17  C   UNL     1     -10.321   7.372  67.288  1.00  0.00    -0.356 A  
HETATM   18  C   UNL     1      -6.621   7.173  66.424  1.00  0.00    -0.052 C  
HETATM   19  C   UNL     1     -11.129   6.571  68.097  1.00  0.00    -0.332 A  
HETATM   20  C   UNL     1      -6.774   6.991  64.917  1.00  0.00    -0.046 C  
HETATM   21  C   UNL     1      -5.908   7.968  64.128  1.00  0.00    -0.056 C  
HETATM   22  C   UNL     1     -10.887   6.497  69.463  1.00  0.00    -0.360 A  
HETATM   23  C   UNL     1      -9.838   7.220  70.022  1.00  0.00    -0.175 A  
HETATM   24  C   UNL     1      -6.063   9.413  64.579  1.00  0.00    -0.077 C  
HETATM   25  C   UNL     1      -5.971   9.571  66.095  1.00  0.00    -0.062 C  
HETATM   26  C   UNL     1      -9.026   8.019  69.215  1.00  0.00    -0.148 A  
ENDBRANCH   9  10
ENDBRANCH   8   9
ENDBRANCH   7   8
ENDBRANCH   3   7
ENDBRANCH   2   3
TORSDOF 6
ENDMDL
MODEL      151
REMARK 921   NORMALIZED FREE ENERGY PREDICTED BY IDOCK:   -3.34 KCAL/MOL
REMARK 922        TOTAL FREE ENERGY PREDICTED BY IDOCK:   -5.42 KCAL/MOL
REMARK 923 INTER-LIGAND FREE ENERGY PREDICTED BY IDOCK:   -4.93 KCAL/MOL
REMARK 924 INTRA-LIGAND FREE ENERGY PREDICTED BY IDOCK:   -0.48 KCAL/MOL
REMARK 927      BINDING AFFINITY PREDICTED BY RF-SCORE:    0.00 PKD
ROOT
HETATM    1  C   UNL     1      -8.884   7.915  73.741  1.00  0.00    -0.332 C  
HETATM    2  C   UNL     1     -10.311   7.416  73.587  1.00  0.00    -0.316 C  
ENDROOT
BRANCH   2   3
HETATM    3  N   UNL     1     -10.554   6.523  72.340  1.00  0.00    -0.209 N  
HETATM    4  C   UNL     1     -11.221   5.211  72.791  1.00  0.00    -0.255 C  
BRANCH   3   5
HETATM    5  C   UNL     1     -11.460   7.195  71.290  1.00  0.00    -0.282 C  
HETATM    6  C   UNL     1     -12.944   7.113  71.619  1.00  0.00    -0.415 C  
ENDBRANCH   3   5
BRANCH   3   7
HETATM    7  C   UNL     1      -9.155   6.203  71.772  1.00  0.00    -0.144 C  
BRANCH   7   8
HETATM    8  C   UNL     1      -9.046   6.148  70.246  1.00  0.00    -0.153 C  
BRANCH   8   9
HETATM    9  O   UNL     1      -8.521   7.426  69.857  1.00  0.00    -0.135 OA 
BRANCH   9  10
HETATM   10  C   UNL     1      -7.805   7.453  68.689  1.00  0.00    -0.122 C  
HETATM   11  O   UNL     1      -6.592   7.322  68.633  1.00  0.00    -0.042 OA 
HETATM   12  C   UNL     1      -8.754   7.819  67.502  1.00  0.00    -0.125 C  
HETATM   13  C   UNL     1      -9.086   6.531  66.744  1.00  0.00    -0.153 A  
HETATM   14  O   UNL     1      -9.980   8.360  68.019  1.00  0.00    -0.167 OA 
HETATM   15  C   UNL     1      -8.049   8.909  66.618  1.00  0.00    -0.107 C  
HETATM   16  H   UNL     1     -10.557   8.582  67.298  1.00  0.00     0.000 HD 
HETATM   17  C   UNL     1     -10.416   6.090  66.597  1.00  0.00    -0.291 A  
HETATM   18  C   UNL     1      -8.855   9.337  65.374  1.00  0.00    -0.230 C  
HETATM   19  C   UNL     1     -10.713   4.897  65.936  1.00  0.00    -0.233 A  
HETATM   20  C   UNL     1     -10.032  10.257  65.680  1.00  0.00    -0.347 C  
HETATM   21  C   UNL     1      -9.609  11.489  66.474  1.00  0.00    -0.225 C  
HETATM   22  C   UNL     1      -9.688   4.122  65.409  1.00  0.00    -0.201 A  
HETATM   23  C   UNL     1      -8.366   4.538  65.538  1.00  0.00    -0.116 A  
HETATM   24  C   UNL     1      -8.767  11.161  67.698  1.00  0.00    -0.129 C  
HETATM   25  C   UNL     1      -7.630  10.188  67.388  1.00  0.00    -0.094 C  
HETATM   26  C   UNL     1      -8.067   5.732  66.195  1.00  0.00    -0.108 A  
ENDBRANCH   9  10
ENDBRANCH   8   9
ENDBRANCH   7   8
ENDBRANCH   3   7
ENDBRANCH   2   3
TORSDOF 6
ENDMDL
MODEL      152
REMARK 921   NORMALIZED FREE ENERGY PREDICTED BY IDOCK:   -3.34 KCAL/MOL
REMARK 922        TOTAL FREE ENERGY PREDICTED BY IDOCK:   -5.41 KCAL/MOL
REMARK 923 INTER-LIGAND FREE ENERGY PREDICTED BY IDOCK:   -5.05 KCAL/MOL
REMARK 924 INTRA-LIGAND FREE ENERGY PREDICTED BY IDOCK:   -0.36 KCAL/MOL
REMARK 927      BINDING AFFINITY PREDICTED BY RF-SCORE:    0.00 PKD
ROOT
HETATM    1  C   UNL     1      -5.705  14.610  70.160  1.00  0.00    -0.129 C  
HETATM    2  C   UNL     1      -5.324  13.168  70.446  1.00  0.00    -0.127 C  
ENDROOT
BRANCH   2   3
HETATM    3  N   UNL     1      -5.819  12.145  69.387  1.00  0.00    -0.078 N  
HETATM    4  C   UNL     1      -5.165  12.477  68.033  1.00  0.00    -0.078 C  
BRANCH   3   5
HETATM    5  C   UNL     1      -5.472  10.689  69.752  1.00  0.00    -0.040 C  
HETATM    6  C   UNL     1      -5.189  10.480  71.232  1.00  0.00    -0.084 C  
ENDBRANCH   3   5
BRANCH   3   7
HETATM    7  C   UNL     1      -7.343  12.362  69.272  1.00  0.00     0.209 C  
BRANCH   7   8
HETATM    8  C   UNL     1      -8.172  11.129  68.900  1.00  0.00    -0.104 C  
BRANCH   8   9
HETATM    9  O   UNL     1      -9.228  11.621  68.061  1.00  0.00    -0.165 OA 
BRANCH   9  10
HETATM   10  C   UNL     1      -8.838  12.263  66.916  1.00  0.00    -0.207 C  
HETATM   11  O   UNL     1      -7.806  12.009  66.313  1.00  0.00     0.143 OA 
HETATM   12  C   UNL     1      -9.828  13.433  66.609  1.00  0.00    -0.278 C  
HETATM   13  C   UNL     1     -10.775  12.975  65.496  1.00  0.00    -0.299 A  
HETATM   14  O   UNL     1     -10.615  13.711  67.777  1.00  0.00    -0.238 OA 
HETATM   15  C   UNL     1      -8.991  14.710  66.241  1.00  0.00    -0.112 C  
HETATM   16  H   UNL     1     -11.217  14.423  67.591  1.00  0.00     0.000 HD 
HETATM   17  C   UNL     1     -12.169  12.936  65.692  1.00  0.00    -0.519 A  
HETATM   18  C   UNL     1      -9.842  15.941  65.867  1.00  0.00    -0.383 C  
HETATM   19  C   UNL     1     -13.028  12.486  64.688  1.00  0.00    -0.176 A  
HETATM   20  C   UNL     1     -10.493  16.634  67.059  1.00  0.00    -0.283 C  
HETATM   21  C   UNL     1      -9.477  17.013  68.132  1.00  0.00    -0.262 C  
HETATM   22  C   UNL     1     -12.510  12.065  63.470  1.00  0.00    -0.654 A  
HETATM   23  C   UNL     1     -11.137  12.097  63.250  1.00  0.00    -0.408 A  
HETATM   24  C   UNL     1      -8.561  15.864  68.529  1.00  0.00    -0.190 C  
HETATM   25  C   UNL     1      -7.966  15.139  67.323  1.00  0.00    -0.234 C  
HETATM   26  C   UNL     1     -10.276  12.551  64.252  1.00  0.00    -0.359 A  
ENDBRANCH   9  10
ENDBRANCH   8   9
ENDBRANCH   7   8
ENDBRANCH   3   7
ENDBRANCH   2   3
TORSDOF 6
ENDMDL
MODEL      153
REMARK 921   NORMALIZED FREE ENERGY PREDICTED BY IDOCK:   -3.33 KCAL/MOL
REMARK 922        TOTAL FREE ENERGY PREDICTED BY IDOCK:   -5.40 KCAL/MOL
REMARK 923 INTER-LIGAND FREE ENERGY PREDICTED BY IDOCK:   -4.81 KCAL/MOL
REMARK 924 INTRA-LIGAND FREE ENERGY PREDICTED BY IDOCK:   -0.59 KCAL/MOL
REMARK 927      BINDING AFFINITY PREDICTED BY RF-SCORE:    0.00 PKD
ROOT
HETATM    1  C   UNL     1     -11.519   5.432  72.929  1.00  0.00    -0.340 C  
HETATM    2  C   UNL     1     -12.193   6.381  71.954  1.00  0.00    -0.279 C  
ENDROOT
BRANCH   2   3
HETATM    3  N   UNL     1     -11.564   7.800  71.892  1.00  0.00    -0.274 N  
HETATM    4  C   UNL     1     -12.628   8.834  72.301  1.00  0.00    -0.394 C  
BRANCH   3   5
HETATM    5  C   UNL     1     -10.347   7.957  72.824  1.00  0.00    -0.333 C  
HETATM    6  C   UNL     1      -9.140   8.596  72.154  1.00  0.00    -0.301 C  
ENDBRANCH   3   5
BRANCH   3   7
HETATM    7  C   UNL     1     -11.188   8.030  70.412  1.00  0.00    -0.229 C  
BRANCH   7   8
HETATM    8  C   UNL     1     -10.969   6.769  69.571  1.00  0.00    -0.279 C  
BRANCH   8   9
HETATM    9  O   UNL     1      -9.832   7.058  68.744  1.00  0.00    -0.148 OA 
BRANCH   9  10
HETATM   10  C   UNL     1     -10.043   7.012  67.392  1.00  0.00    -0.195 C  
HETATM   11  O   UNL     1     -11.131   7.202  66.868  1.00  0.00    -0.327 OA 
HETATM   12  C   UNL     1      -8.736   6.542  66.673  1.00  0.00    -0.128 C  
HETATM   13  C   UNL     1      -8.056   7.775  66.072  1.00  0.00    -0.117 A  
HETATM   14  O   UNL     1      -7.843   5.965  67.637  1.00  0.00    -0.096 OA 
HETATM   15  C   UNL     1      -9.117   5.450  65.611  1.00  0.00    -0.148 C  
HETATM   16  H   UNL     1      -7.048   5.679  67.201  1.00  0.00     0.000 HD 
HETATM   17  C   UNL     1      -6.746   8.140  66.441  1.00  0.00    -0.062 A  
HETATM   18  C   UNL     1      -7.925   4.923  64.787  1.00  0.00    -0.098 C  
HETATM   19  C   UNL     1      -6.140   9.283  65.918  1.00  0.00    -0.055 A  
HETATM   20  C   UNL     1      -7.019   3.959  65.546  1.00  0.00    -0.061 C  
HETATM   21  C   UNL     1      -7.794   2.789  66.144  1.00  0.00    -0.081 C  
HETATM   22  C   UNL     1      -6.830  10.084  65.017  1.00  0.00    -0.132 A  
HETATM   23  C   UNL     1      -8.124   9.743  64.634  1.00  0.00    -0.148 A  
HETATM   24  C   UNL     1      -9.019   3.218  66.938  1.00  0.00    -0.174 C  
HETATM   25  C   UNL     1      -9.883   4.231  66.190  1.00  0.00    -0.232 C  
HETATM   26  C   UNL     1      -8.731   8.598  65.153  1.00  0.00    -0.179 A  
ENDBRANCH   9  10
ENDBRANCH   8   9
ENDBRANCH   7   8
ENDBRANCH   3   7
ENDBRANCH   2   3
TORSDOF 6
ENDMDL
MODEL      154
REMARK 921   NORMALIZED FREE ENERGY PREDICTED BY IDOCK:   -3.32 KCAL/MOL
REMARK 922        TOTAL FREE ENERGY PREDICTED BY IDOCK:   -5.39 KCAL/MOL
REMARK 923 INTER-LIGAND FREE ENERGY PREDICTED BY IDOCK:   -4.16 KCAL/MOL
REMARK 924 INTRA-LIGAND FREE ENERGY PREDICTED BY IDOCK:   -1.23 KCAL/MOL
REMARK 927      BINDING AFFINITY PREDICTED BY RF-SCORE:    0.00 PKD
ROOT
HETATM    1  C   UNL     1      -9.516   3.141  72.131  1.00  0.00    -0.195 C  
HETATM    2  C   UNL     1      -8.615   3.643  71.015  1.00  0.00    -0.072 C  
ENDROOT
BRANCH   2   3
HETATM    3  N   UNL     1      -7.298   4.311  71.498  1.00  0.00    -0.054 N  
HETATM    4  C   UNL     1      -7.532   4.917  72.894  1.00  0.00    -0.091 C  
BRANCH   3   5
HETATM    5  C   UNL     1      -6.122   3.320  71.589  1.00  0.00    -0.014 C  
HETATM    6  C   UNL     1      -5.913   2.743  72.981  1.00  0.00    -0.008 C  
ENDBRANCH   3   5
BRANCH   3   7
HETATM    7  C   UNL     1      -7.014   5.452  70.499  1.00  0.00    -0.053 C  
BRANCH   7   8
HETATM    8  C   UNL     1      -7.247   5.126  69.022  1.00  0.00    -0.057 C  
BRANCH   8   9
HETATM    9  O   UNL     1      -7.746   6.339  68.439  1.00  0.00    -0.100 OA 
BRANCH   9  10
HETATM   10  C   UNL     1      -9.109   6.463  68.380  1.00  0.00    -0.118 C  
HETATM   11  O   UNL     1      -9.835   5.686  67.778  1.00  0.00    -0.119 OA 
HETATM   12  C   UNL     1      -9.543   7.801  69.062  1.00  0.00    -0.155 C  
HETATM   13  C   UNL     1     -10.083   7.471  70.456  1.00  0.00    -0.188 A  
HETATM   14  O   UNL     1      -8.397   8.652  69.217  1.00  0.00    -0.115 OA 
HETATM   15  C   UNL     1     -10.587   8.517  68.133  1.00  0.00    -0.181 C  
HETATM   16  H   UNL     1      -8.661   9.465  69.632  1.00  0.00     0.000 HD 
HETATM   17  C   UNL     1      -9.502   8.022  71.615  1.00  0.00    -0.213 A  
HETATM   18  C   UNL     1     -11.144   9.838  68.702  1.00  0.00    -0.140 C  
HETATM   19  C   UNL     1      -9.973   7.693  72.886  1.00  0.00    -0.319 A  
HETATM   20  C   UNL     1     -10.171  11.011  68.619  1.00  0.00    -0.211 C  
HETATM   21  C   UNL     1      -9.657  11.233  67.201  1.00  0.00    -0.194 C  
HETATM   22  C   UNL     1     -11.034   6.807  73.025  1.00  0.00    -0.293 A  
HETATM   23  C   UNL     1     -11.628   6.251  71.895  1.00  0.00    -0.369 A  
HETATM   24  C   UNL     1      -9.130   9.966  66.543  1.00  0.00    -0.179 C  
HETATM   25  C   UNL     1     -10.086   8.784  66.689  1.00  0.00    -0.358 C  
HETATM   26  C   UNL     1     -11.160   6.582  70.622  1.00  0.00    -0.364 A  
ENDBRANCH   9  10
ENDBRANCH   8   9
ENDBRANCH   7   8
ENDBRANCH   3   7
ENDBRANCH   2   3
TORSDOF 6
ENDMDL
MODEL      155
REMARK 921   NORMALIZED FREE ENERGY PREDICTED BY IDOCK:   -3.31 KCAL/MOL
REMARK 922        TOTAL FREE ENERGY PREDICTED BY IDOCK:   -5.37 KCAL/MOL
REMARK 923 INTER-LIGAND FREE ENERGY PREDICTED BY IDOCK:   -4.91 KCAL/MOL
REMARK 924 INTRA-LIGAND FREE ENERGY PREDICTED BY IDOCK:   -0.45 KCAL/MOL
REMARK 927      BINDING AFFINITY PREDICTED BY RF-SCORE:    0.00 PKD
ROOT
HETATM    1  C   UNL     1      -6.480   5.604  69.016  1.00  0.00    -0.042 C  
HETATM    2  C   UNL     1      -7.038   5.691  67.606  1.00  0.00    -0.071 C  
ENDROOT
BRANCH   2   3
HETATM    3  N   UNL     1      -6.403   6.802  66.726  1.00  0.00    -0.040 N  
HETATM    4  C   UNL     1      -5.728   7.838  67.644  1.00  0.00    -0.037 C  
BRANCH   3   5
HETATM    5  C   UNL     1      -5.345   6.259  65.745  1.00  0.00    -0.014 C  
HETATM    6  C   UNL     1      -5.523   6.753  64.317  1.00  0.00    -0.027 C  
ENDBRANCH   3   5
BRANCH   3   7
HETATM    7  C   UNL     1      -7.578   7.479  65.989  1.00  0.00    -0.088 C  
BRANCH   7   8
HETATM    8  C   UNL     1      -8.581   8.229  66.869  1.00  0.00    -0.119 C  
BRANCH   8   9
HETATM    9  O   UNL     1      -9.004   9.355  66.087  1.00  0.00    -0.146 OA 
BRANCH   9  10
HETATM   10  C   UNL     1      -8.844  10.586  66.667  1.00  0.00    -0.136 C  
HETATM   11  O   UNL     1      -7.758  11.117  66.842  1.00  0.00    -0.134 OA 
HETATM   12  C   UNL     1     -10.225  11.105  67.184  1.00  0.00    -0.200 C  
HETATM   13  C   UNL     1     -10.748  12.142  66.186  1.00  0.00    -0.307 A  
HETATM   14  O   UNL     1     -11.159  10.016  67.226  1.00  0.00    -0.257 OA 
HETATM   15  C   UNL     1     -10.033  11.668  68.638  1.00  0.00    -0.192 C  
HETATM   16  H   UNL     1     -11.999  10.331  67.541  1.00  0.00     0.000 HD 
HETATM   17  C   UNL     1     -11.982  11.967  65.530  1.00  0.00    -0.168 A  
HETATM   18  C   UNL     1     -11.311  12.262  69.263  1.00  0.00    -0.317 C  
HETATM   19  C   UNL     1     -12.440  12.896  64.594  1.00  0.00    -0.499 A  
HETATM   20  C   UNL     1     -12.318  11.216  69.734  1.00  0.00    -0.315 C  
HETATM   21  C   UNL     1     -11.694  10.205  70.690  1.00  0.00    -0.425 C  
HETATM   22  C   UNL     1     -11.674  14.016  64.296  1.00  0.00    -0.388 A  
HETATM   23  C   UNL     1     -10.453  14.212  64.933  1.00  0.00    -0.461 A  
HETATM   24  C   UNL     1     -10.397   9.601  70.170  1.00  0.00    -0.315 C  
HETATM   25  C   UNL     1      -9.425  10.656  69.644  1.00  0.00     0.063 C  
HETATM   26  C   UNL     1      -9.994  13.286  65.872  1.00  0.00    -0.280 A  
ENDBRANCH   9  10
ENDBRANCH   8   9
ENDBRANCH   7   8
ENDBRANCH   3   7
ENDBRANCH   2   3
TORSDOF 6
ENDMDL
MODEL      156
REMARK 921   NORMALIZED FREE ENERGY PREDICTED BY IDOCK:   -3.30 KCAL/MOL
REMARK 922        TOTAL FREE ENERGY PREDICTED BY IDOCK:   -5.36 KCAL/MOL
REMARK 923 INTER-LIGAND FREE ENERGY PREDICTED BY IDOCK:   -4.93 KCAL/MOL
REMARK 924 INTRA-LIGAND FREE ENERGY PREDICTED BY IDOCK:   -0.43 KCAL/MOL
REMARK 927      BINDING AFFINITY PREDICTED BY RF-SCORE:    0.00 PKD
ROOT
HETATM    1  C   UNL     1      -8.372   6.869  65.611  1.00  0.00    -0.147 C  
HETATM    2  C   UNL     1      -8.827   5.420  65.579  1.00  0.00    -0.152 C  
ENDROOT
BRANCH   2   3
HETATM    3  N   UNL     1      -8.133   4.500  66.621  1.00  0.00    -0.102 N  
HETATM    4  C   UNL     1      -9.156   3.469  67.133  1.00  0.00    -0.169 C  
BRANCH   3   5
HETATM    5  C   UNL     1      -6.925   3.741  66.039  1.00  0.00    -0.062 C  
HETATM    6  C   UNL     1      -6.236   2.826  67.041  1.00  0.00    -0.028 C  
ENDBRANCH   3   5
BRANCH   3   7
HETATM    7  C   UNL     1      -7.725   5.421  67.790  1.00  0.00    -0.092 C  
BRANCH   7   8
HETATM    8  C   UNL     1      -8.474   5.205  69.109  1.00  0.00    -0.090 C  
BRANCH   8   9
HETATM    9  O   UNL     1      -9.467   6.241  69.155  1.00  0.00    -0.133 OA 
BRANCH   9  10
HETATM   10  C   UNL     1      -9.143   7.354  69.885  1.00  0.00    -0.141 C  
HETATM   11  O   UNL     1      -8.355   8.208  69.507  1.00  0.00    -0.119 OA 
HETATM   12  C   UNL     1      -9.813   7.269  71.295  1.00  0.00    -0.180 C  
HETATM   13  C   UNL     1     -11.044   8.180  71.292  1.00  0.00    -0.287 A  
HETATM   14  O   UNL     1     -10.254   5.924  71.534  1.00  0.00    -0.194 OA 
HETATM   15  C   UNL     1      -8.744   7.655  72.379  1.00  0.00    -0.170 C  
HETATM   16  H   UNL     1     -10.662   5.872  72.390  1.00  0.00     0.000 HD 
HETATM   17  C   UNL     1     -12.331   7.670  71.553  1.00  0.00    -0.356 A  
HETATM   18  C   UNL     1      -9.279   7.660  73.825  1.00  0.00    -0.333 C  
HETATM   19  C   UNL     1     -13.456   8.496  71.516  1.00  0.00    -0.325 A  
HETATM   20  C   UNL     1      -9.474   6.270  74.422  1.00  0.00    -0.226 C  
HETATM   21  C   UNL     1      -8.207   5.425  74.341  1.00  0.00    -0.104 C  
HETATM   22  C   UNL     1     -13.317   9.845  71.215  1.00  0.00    -0.419 A  
HETATM   23  C   UNL     1     -12.056  10.372  70.957  1.00  0.00    -0.488 A  
HETATM   24  C   UNL     1      -7.583   5.402  72.952  1.00  0.00    -0.097 C  
HETATM   25  C   UNL     1      -7.453   6.796  72.342  1.00  0.00    -0.088 C  
HETATM   26  C   UNL     1     -10.929   9.550  70.997  1.00  0.00    -0.424 A  
ENDBRANCH   9  10
ENDBRANCH   8   9
ENDBRANCH   7   8
ENDBRANCH   3   7
ENDBRANCH   2   3
TORSDOF 6
ENDMDL
MODEL      157
REMARK 921   NORMALIZED FREE ENERGY PREDICTED BY IDOCK:   -3.28 KCAL/MOL
REMARK 922        TOTAL FREE ENERGY PREDICTED BY IDOCK:   -5.34 KCAL/MOL
REMARK 923 INTER-LIGAND FREE ENERGY PREDICTED BY IDOCK:   -4.31 KCAL/MOL
REMARK 924 INTRA-LIGAND FREE ENERGY PREDICTED BY IDOCK:   -1.03 KCAL/MOL
REMARK 927      BINDING AFFINITY PREDICTED BY RF-SCORE:    0.00 PKD
ROOT
HETATM    1  C   UNL     1     -10.503   8.857  70.828  1.00  0.00    -0.283 C  
HETATM    2  C   UNL     1      -9.043   8.642  71.191  1.00  0.00    -0.209 C  
ENDROOT
BRANCH   2   3
HETATM    3  N   UNL     1      -8.797   7.530  72.248  1.00  0.00    -0.125 N  
HETATM    4  C   UNL     1      -8.294   8.184  73.548  1.00  0.00    -0.236 C  
BRANCH   3   5
HETATM    5  C   UNL     1     -10.065   6.717  72.569  1.00  0.00    -0.172 C  
HETATM    6  C   UNL     1     -10.400   6.666  74.052  1.00  0.00    -0.377 C  
ENDBRANCH   3   5
BRANCH   3   7
HETATM    7  C   UNL     1      -7.675   6.641  71.670  1.00  0.00    -0.098 C  
BRANCH   7   8
HETATM    8  C   UNL     1      -8.114   5.292  71.095  1.00  0.00    -0.109 C  
BRANCH   8   9
HETATM    9  O   UNL     1      -8.011   5.434  69.671  1.00  0.00    -0.092 OA 
BRANCH   9  10
HETATM   10  C   UNL     1      -9.190   5.392  68.974  1.00  0.00    -0.120 C  
HETATM   11  O   UNL     1     -10.276   5.180  69.491  1.00  0.00    -0.234 OA 
HETATM   12  C   UNL     1      -8.897   5.508  67.443  1.00  0.00    -0.105 C  
HETATM   13  C   UNL     1      -9.210   6.942  67.007  1.00  0.00    -0.160 A  
HETATM   14  O   UNL     1      -7.503   5.263  67.203  1.00  0.00    -0.082 OA 
HETATM   15  C   UNL     1      -9.744   4.420  66.691  1.00  0.00    -0.233 C  
HETATM   16  H   UNL     1      -7.325   5.333  66.272  1.00  0.00     0.000 HD 
HETATM   17  C   UNL     1      -8.222   7.761  66.425  1.00  0.00    -0.116 A  
HETATM   18  C   UNL     1      -9.591   4.446  65.156  1.00  0.00    -0.183 C  
HETATM   19  C   UNL     1      -8.500   9.079  66.060  1.00  0.00    -0.138 A  
HETATM   20  C   UNL     1      -8.275   3.862  64.651  1.00  0.00    -0.097 C  
HETATM   21  C   UNL     1      -8.033   2.449  65.173  1.00  0.00    -0.078 C  
HETATM   22  C   UNL     1      -9.768   9.605  66.269  1.00  0.00    -0.303 A  
HETATM   23  C   UNL     1     -10.762   8.815  66.839  1.00  0.00    -0.151 A  
HETATM   24  C   UNL     1      -8.210   2.322  66.680  1.00  0.00    -0.087 C  
HETATM   25  C   UNL     1      -9.502   2.968  67.178  1.00  0.00    -0.118 C  
HETATM   26  C   UNL     1     -10.488   7.495  67.202  1.00  0.00    -0.407 A  
ENDBRANCH   9  10
ENDBRANCH   8   9
ENDBRANCH   7   8
ENDBRANCH   3   7
ENDBRANCH   2   3
TORSDOF 6
ENDMDL
MODEL      158
REMARK 921   NORMALIZED FREE ENERGY PREDICTED BY IDOCK:   -3.26 KCAL/MOL
REMARK 922        TOTAL FREE ENERGY PREDICTED BY IDOCK:   -5.30 KCAL/MOL
REMARK 923 INTER-LIGAND FREE ENERGY PREDICTED BY IDOCK:   -4.82 KCAL/MOL
REMARK 924 INTRA-LIGAND FREE ENERGY PREDICTED BY IDOCK:   -0.48 KCAL/MOL
REMARK 927      BINDING AFFINITY PREDICTED BY RF-SCORE:    0.00 PKD
ROOT
HETATM    1  C   UNL     1     -11.455  15.048  71.032  1.00  0.00    -0.344 C  
HETATM    2  C   UNL     1     -12.196  14.350  69.905  1.00  0.00    -0.340 C  
ENDROOT
BRANCH   2   3
HETATM    3  N   UNL     1     -11.323  14.014  68.665  1.00  0.00    -0.258 N  
HETATM    4  C   UNL     1     -11.831  14.831  67.463  1.00  0.00    -0.301 C  
BRANCH   3   5
HETATM    5  C   UNL     1      -9.831  14.337  68.878  1.00  0.00    -0.137 C  
HETATM    6  C   UNL     1      -9.307  15.437  67.967  1.00  0.00    -0.196 C  
ENDBRANCH   3   5
BRANCH   3   7
HETATM    7  C   UNL     1     -11.552  12.514  68.382  1.00  0.00    -0.322 C  
BRANCH   7   8
HETATM    8  C   UNL     1     -10.291  11.660  68.219  1.00  0.00    -0.200 C  
BRANCH   8   9
HETATM    9  O   UNL     1     -10.763  10.341  67.910  1.00  0.00    -0.224 OA 
BRANCH   9  10
HETATM   10  C   UNL     1     -10.086   9.674  66.923  1.00  0.00    -0.227 C  
HETATM   11  O   UNL     1     -10.392   9.719  65.741  1.00  0.00    -0.209 OA 
HETATM   12  C   UNL     1      -8.991   8.762  67.564  1.00  0.00    -0.134 C  
HETATM   13  C   UNL     1      -7.637   9.458  67.401  1.00  0.00    -0.095 A  
HETATM   14  O   UNL     1      -9.252   8.617  68.968  1.00  0.00    -0.145 OA 
HETATM   15  C   UNL     1      -9.059   7.348  66.884  1.00  0.00    -0.164 C  
HETATM   16  H   UNL     1      -8.586   8.062  69.358  1.00  0.00     0.000 HD 
HETATM   17  C   UNL     1      -6.848   9.794  68.519  1.00  0.00    -0.056 A  
HETATM   18  C   UNL     1      -7.998   6.349  67.387  1.00  0.00    -0.116 C  
HETATM   19  C   UNL     1      -5.631  10.460  68.371  1.00  0.00    -0.037 A  
HETATM   20  C   UNL     1      -8.293   5.768  68.767  1.00  0.00    -0.104 C  
HETATM   21  C   UNL     1      -9.679   5.135  68.841  1.00  0.00    -0.220 C  
HETATM   22  C   UNL     1      -5.178  10.805  67.104  1.00  0.00    -0.043 A  
HETATM   23  C   UNL     1      -5.937  10.481  65.984  1.00  0.00    -0.111 A  
HETATM   24  C   UNL     1     -10.786   6.039  68.318  1.00  0.00    -0.366 C  
HETATM   25  C   UNL     1     -10.449   6.663  66.965  1.00  0.00    -0.369 C  
HETATM   26  C   UNL     1      -7.154   9.812  66.129  1.00  0.00    -0.099 A  
ENDBRANCH   9  10
ENDBRANCH   8   9
ENDBRANCH   7   8
ENDBRANCH   3   7
ENDBRANCH   2   3
TORSDOF 6
ENDMDL
MODEL      159
REMARK 921   NORMALIZED FREE ENERGY PREDICTED BY IDOCK:   -3.24 KCAL/MOL
REMARK 922        TOTAL FREE ENERGY PREDICTED BY IDOCK:   -5.28 KCAL/MOL
REMARK 923 INTER-LIGAND FREE ENERGY PREDICTED BY IDOCK:   -4.57 KCAL/MOL
REMARK 924 INTRA-LIGAND FREE ENERGY PREDICTED BY IDOCK:   -0.71 KCAL/MOL
REMARK 927      BINDING AFFINITY PREDICTED BY RF-SCORE:    0.00 PKD
ROOT
HETATM    1  C   UNL     1      -7.471   3.558  66.989  1.00  0.00    -0.075 C  
HETATM    2  C   UNL     1      -7.468   5.022  66.585  1.00  0.00    -0.087 C  
ENDROOT
BRANCH   2   3
HETATM    3  N   UNL     1      -8.756   5.496  65.858  1.00  0.00    -0.140 N  
HETATM    4  C   UNL     1      -8.808   7.035  65.892  1.00  0.00    -0.103 C  
BRANCH   3   5
HETATM    5  C   UNL     1      -8.818   5.039  64.388  1.00  0.00    -0.084 C  
HETATM    6  C   UNL     1      -9.936   4.048  64.101  1.00  0.00    -0.169 C  
ENDBRANCH   3   5
BRANCH   3   7
HETATM    7  C   UNL     1      -9.935   4.939  66.684  1.00  0.00    -0.229 C  
BRANCH   7   8
HETATM    8  C   UNL     1     -10.578   5.910  67.679  1.00  0.00    -0.262 C  
BRANCH   8   9
HETATM    9  O   UNL     1     -10.467   5.271  68.959  1.00  0.00    -0.205 OA 
BRANCH   9  10
HETATM   10  C   UNL     1     -10.946   5.979  70.029  1.00  0.00    -0.380 C  
HETATM   11  O   UNL     1     -12.095   6.387  70.112  1.00  0.00    -0.266 OA 
HETATM   12  C   UNL     1      -9.776   6.292  71.017  1.00  0.00    -0.176 C  
HETATM   13  C   UNL     1      -9.872   5.316  72.192  1.00  0.00    -0.216 A  
HETATM   14  O   UNL     1      -8.521   6.072  70.355  1.00  0.00    -0.128 OA 
HETATM   15  C   UNL     1      -9.872   7.801  71.440  1.00  0.00    -0.195 C  
HETATM   16  H   UNL     1      -7.809   6.262  70.955  1.00  0.00     0.000 HD 
HETATM   17  C   UNL     1      -8.812   4.441  72.505  1.00  0.00    -0.122 A  
HETATM   18  C   UNL     1      -8.800   8.245  72.456  1.00  0.00    -0.297 C  
HETATM   19  C   UNL     1      -8.915   3.528  73.555  1.00  0.00    -0.096 A  
HETATM   20  C   UNL     1      -7.412   8.437  71.854  1.00  0.00    -0.129 C  
HETATM   21  C   UNL     1      -7.426   9.392  70.665  1.00  0.00    -0.150 C  
HETATM   22  C   UNL     1     -10.078   3.470  74.313  1.00  0.00    -0.202 A  
HETATM   23  C   UNL     1     -11.137   4.325  74.026  1.00  0.00    -0.178 A  
HETATM   24  C   UNL     1      -8.490   9.054  69.630  1.00  0.00    -0.128 C  
HETATM   25  C   UNL     1      -9.861   8.802  70.255  1.00  0.00    -0.198 C  
HETATM   26  C   UNL     1     -11.035   5.242  72.978  1.00  0.00    -0.354 A  
ENDBRANCH   9  10
ENDBRANCH   8   9
ENDBRANCH   7   8
ENDBRANCH   3   7
ENDBRANCH   2   3
TORSDOF 6
ENDMDL
MODEL      160
REMARK 921   NORMALIZED FREE ENERGY PREDICTED BY IDOCK:   -3.23 KCAL/MOL
REMARK 922        TOTAL FREE ENERGY PREDICTED BY IDOCK:   -5.27 KCAL/MOL
REMARK 923 INTER-LIGAND FREE ENERGY PREDICTED BY IDOCK:   -4.55 KCAL/MOL
REMARK 924 INTRA-LIGAND FREE ENERGY PREDICTED BY IDOCK:   -0.72 KCAL/MOL
REMARK 927      BINDING AFFINITY PREDICTED BY RF-SCORE:    0.00 PKD
ROOT
HETATM    1  C   UNL     1      -7.351   7.015  65.234  1.00  0.00    -0.077 C  
HETATM    2  C   UNL     1      -8.323   6.383  66.216  1.00  0.00    -0.123 C  
ENDROOT
BRANCH   2   3
HETATM    3  N   UNL     1      -8.454   4.840  66.095  1.00  0.00    -0.114 N  
HETATM    4  C   UNL     1      -8.680   4.476  64.615  1.00  0.00    -0.147 C  
BRANCH   3   5
HETATM    5  C   UNL     1      -7.203   4.092  66.595  1.00  0.00    -0.068 C  
HETATM    6  C   UNL     1      -6.396   4.868  67.625  1.00  0.00    -0.040 C  
ENDBRANCH   3   5
BRANCH   3   7
HETATM    7  C   UNL     1      -9.714   4.459  66.900  1.00  0.00    -0.210 C  
BRANCH   7   8
HETATM    8  C   UNL     1      -9.477   4.004  68.343  1.00  0.00    -0.149 C  
BRANCH   8   9
HETATM    9  O   UNL     1     -10.405   4.759  69.137  1.00  0.00    -0.130 OA 
BRANCH   9  10
HETATM   10  C   UNL     1      -9.973   5.123  70.385  1.00  0.00    -0.246 C  
HETATM   11  O   UNL     1      -9.713   4.324  71.272  1.00  0.00    -0.164 OA 
HETATM   12  C   UNL     1     -10.016   6.680  70.520  1.00  0.00    -0.179 C  
HETATM   13  C   UNL     1      -8.588   7.209  70.363  1.00  0.00    -0.142 A  
HETATM   14  O   UNL     1     -10.814   7.229  69.461  1.00  0.00    -0.242 OA 
HETATM   15  C   UNL     1     -10.676   7.042  71.898  1.00  0.00    -0.244 C  
HETATM   16  H   UNL     1     -10.840   8.176  69.543  1.00  0.00     0.000 HD 
HETATM   17  C   UNL     1      -8.255   8.125  69.345  1.00  0.00    -0.121 A  
HETATM   18  C   UNL     1     -10.744   8.555  72.191  1.00  0.00    -0.426 C  
HETATM   19  C   UNL     1      -6.946   8.580  69.182  1.00  0.00    -0.063 A  
HETATM   20  C   UNL     1     -11.824   9.294  71.408  1.00  0.00    -0.428 C  
HETATM   21  C   UNL     1     -13.202   8.667  71.594  1.00  0.00    -0.381 C  
HETATM   22  C   UNL     1      -5.944   8.129  70.031  1.00  0.00    -0.022 A  
HETATM   23  C   UNL     1      -6.247   7.226  71.046  1.00  0.00    -0.036 A  
HETATM   24  C   UNL     1     -13.217   7.162  71.368  1.00  0.00    -0.391 C  
HETATM   25  C   UNL     1     -12.091   6.443  72.109  1.00  0.00    -0.316 C  
HETATM   26  C   UNL     1      -7.557   6.773  71.213  1.00  0.00    -0.092 A  
ENDBRANCH   9  10
ENDBRANCH   8   9
ENDBRANCH   7   8
ENDBRANCH   3   7
ENDBRANCH   2   3
TORSDOF 6
ENDMDL
MODEL      161
REMARK 921   NORMALIZED FREE ENERGY PREDICTED BY IDOCK:   -3.22 KCAL/MOL
REMARK 922        TOTAL FREE ENERGY PREDICTED BY IDOCK:   -5.25 KCAL/MOL
REMARK 923 INTER-LIGAND FREE ENERGY PREDICTED BY IDOCK:   -4.36 KCAL/MOL
REMARK 924 INTRA-LIGAND FREE ENERGY PREDICTED BY IDOCK:   -0.89 KCAL/MOL
REMARK 927      BINDING AFFINITY PREDICTED BY RF-SCORE:    0.00 PKD
ROOT
HETATM    1  C   UNL     1      -8.345   8.789  64.329  1.00  0.00    -0.158 C  
HETATM    2  C   UNL     1      -8.849  10.212  64.506  1.00  0.00    -0.204 C  
ENDROOT
BRANCH   2   3
HETATM    3  N   UNL     1      -9.563  10.482  65.858  1.00  0.00    -0.193 N  
HETATM    4  C   UNL     1      -8.540  11.063  66.852  1.00  0.00    -0.143 C  
BRANCH   3   5
HETATM    5  C   UNL     1     -10.734  11.475  65.729  1.00  0.00    -0.271 C  
HETATM    6  C   UNL     1     -10.572  12.468  64.587  1.00  0.00    -0.343 C  
ENDBRANCH   3   5
BRANCH   3   7
HETATM    7  C   UNL     1     -10.031   9.104  66.371  1.00  0.00    -0.288 C  
BRANCH   7   8
HETATM    8  C   UNL     1     -10.561   9.065  67.807  1.00  0.00    -0.214 C  
BRANCH   8   9
HETATM    9  O   UNL     1      -9.797   8.045  68.466  1.00  0.00    -0.165 OA 
BRANCH   9  10
HETATM   10  C   UNL     1     -10.346   6.790  68.473  1.00  0.00    -0.190 C  
HETATM   11  O   UNL     1     -11.530   6.569  68.679  1.00  0.00    -0.210 OA 
HETATM   12  C   UNL     1      -9.214   5.722  68.328  1.00  0.00    -0.117 C  
HETATM   13  C   UNL     1      -9.212   5.225  66.880  1.00  0.00    -0.121 A  
HETATM   14  O   UNL     1      -7.943   6.335  68.591  1.00  0.00    -0.103 OA 
HETATM   15  C   UNL     1      -9.462   4.587  69.385  1.00  0.00    -0.244 C  
HETATM   16  H   UNL     1      -7.254   5.686  68.503  1.00  0.00     0.000 HD 
HETATM   17  C   UNL     1      -8.070   5.353  66.065  1.00  0.00    -0.107 A  
HETATM   18  C   UNL     1      -8.441   3.432  69.328  1.00  0.00    -0.095 C  
HETATM   19  C   UNL     1      -8.081   4.931  64.734  1.00  0.00    -0.109 A  
HETATM   20  C   UNL     1      -7.078   3.775  69.922  1.00  0.00    -0.042 C  
HETATM   21  C   UNL     1      -7.188   4.301  71.350  1.00  0.00    -0.043 C  
HETATM   22  C   UNL     1      -9.232   4.374  64.192  1.00  0.00    -0.140 A  
HETATM   23  C   UNL     1     -10.372   4.235  64.978  1.00  0.00    -0.203 A  
HETATM   24  C   UNL     1      -8.212   5.416  71.507  1.00  0.00    -0.118 C  
HETATM   25  C   UNL     1      -9.551   5.084  70.852  1.00  0.00    -0.242 C  
HETATM   26  C   UNL     1     -10.363   4.652  66.310  1.00  0.00    -0.293 A  
ENDBRANCH   9  10
ENDBRANCH   8   9
ENDBRANCH   7   8
ENDBRANCH   3   7
ENDBRANCH   2   3
TORSDOF 6
ENDMDL
MODEL      162
REMARK 921   NORMALIZED FREE ENERGY PREDICTED BY IDOCK:   -3.21 KCAL/MOL
REMARK 922        TOTAL FREE ENERGY PREDICTED BY IDOCK:   -5.23 KCAL/MOL
REMARK 923 INTER-LIGAND FREE ENERGY PREDICTED BY IDOCK:   -4.40 KCAL/MOL
REMARK 924 INTRA-LIGAND FREE ENERGY PREDICTED BY IDOCK:   -0.83 KCAL/MOL
REMARK 927      BINDING AFFINITY PREDICTED BY RF-SCORE:    0.00 PKD
ROOT
HETATM    1  C   UNL     1      -8.301   9.363  67.168  1.00  0.00    -0.124 C  
HETATM    2  C   UNL     1      -9.135   8.219  66.616  1.00  0.00    -0.166 C  
ENDROOT
BRANCH   2   3
HETATM    3  N   UNL     1      -8.347   6.903  66.373  1.00  0.00    -0.119 N  
HETATM    4  C   UNL     1      -9.351   5.752  66.178  1.00  0.00    -0.144 C  
BRANCH   3   5
HETATM    5  C   UNL     1      -7.435   6.971  65.133  1.00  0.00    -0.094 C  
HETATM    6  C   UNL     1      -5.951   6.906  65.460  1.00  0.00    -0.036 C  
ENDBRANCH   3   5
BRANCH   3   7
HETATM    7  C   UNL     1      -7.543   6.649  67.666  1.00  0.00    -0.106 C  
BRANCH   7   8
HETATM    8  C   UNL     1      -7.483   5.196  68.146  1.00  0.00    -0.076 C  
BRANCH   8   9
HETATM    9  O   UNL     1      -7.841   5.240  69.535  1.00  0.00    -0.081 OA 
BRANCH   9  10
HETATM   10  C   UNL     1      -9.105   4.814  69.846  1.00  0.00    -0.104 C  
HETATM   11  O   UNL     1      -9.762   4.066  69.137  1.00  0.00    -0.181 OA 
HETATM   12  C   UNL     1      -9.601   5.543  71.136  1.00  0.00    -0.162 C  
HETATM   13  C   UNL     1      -9.470   4.571  72.312  1.00  0.00    -0.179 A  
HETATM   14  O   UNL     1      -8.760   6.676  71.399  1.00  0.00    -0.128 OA 
HETATM   15  C   UNL     1     -11.070   6.044  70.893  1.00  0.00    -0.352 C  
HETATM   16  H   UNL     1      -9.061   7.119  72.183  1.00  0.00     0.000 HD 
HETATM   17  C   UNL     1      -8.672   4.880  73.431  1.00  0.00    -0.104 A  
HETATM   18  C   UNL     1     -11.711   6.747  72.107  1.00  0.00    -0.332 C  
HETATM   19  C   UNL     1      -8.525   3.977  74.485  1.00  0.00    -0.092 A  
HETATM   20  C   UNL     1     -11.200   8.165  72.347  1.00  0.00    -0.452 C  
HETATM   21  C   UNL     1     -11.334   9.044  71.108  1.00  0.00    -0.375 C  
HETATM   22  C   UNL     1      -9.172   2.749  74.442  1.00  0.00    -0.100 A  
HETATM   23  C   UNL     1      -9.968   2.421  73.349  1.00  0.00    -0.165 A  
HETATM   24  C   UNL     1     -10.767   8.405  69.849  1.00  0.00    -0.227 C  
HETATM   25  C   UNL     1     -11.237   6.964  69.655  1.00  0.00    -0.289 C  
HETATM   26  C   UNL     1     -10.119   3.324  72.295  1.00  0.00    -0.215 A  
ENDBRANCH   9  10
ENDBRANCH   8   9
ENDBRANCH   7   8
ENDBRANCH   3   7
ENDBRANCH   2   3
TORSDOF 6
ENDMDL
MODEL      163
REMARK 921   NORMALIZED FREE ENERGY PREDICTED BY IDOCK:   -3.19 KCAL/MOL
REMARK 922        TOTAL FREE ENERGY PREDICTED BY IDOCK:   -5.21 KCAL/MOL
REMARK 923 INTER-LIGAND FREE ENERGY PREDICTED BY IDOCK:   -4.81 KCAL/MOL
REMARK 924 INTRA-LIGAND FREE ENERGY PREDICTED BY IDOCK:   -0.41 KCAL/MOL
REMARK 927      BINDING AFFINITY PREDICTED BY RF-SCORE:    0.00 PKD
ROOT
HETATM    1  C   UNL     1      -9.377   8.322  72.493  1.00  0.00    -0.350 C  
HETATM    2  C   UNL     1     -10.881   8.128  72.402  1.00  0.00    -0.339 C  
ENDROOT
BRANCH   2   3
HETATM    3  N   UNL     1     -11.460   8.222  70.964  1.00  0.00    -0.273 N  
HETATM    4  C   UNL     1     -11.452   6.818  70.333  1.00  0.00    -0.365 C  
BRANCH   3   5
HETATM    5  C   UNL     1     -12.902   8.763  70.933  1.00  0.00     0.122 C  
HETATM    6  C   UNL     1     -13.858   8.010  71.847  1.00  0.00    -0.418 C  
ENDBRANCH   3   5
BRANCH   3   7
HETATM    7  C   UNL     1     -10.489   9.128  70.177  1.00  0.00    -0.218 C  
BRANCH   7   8
HETATM    8  C   UNL     1     -10.937   9.532  68.770  1.00  0.00    -0.080 C  
BRANCH   8   9
HETATM    9  O   UNL     1     -11.350  10.901  68.881  1.00  0.00    -0.243 OA 
BRANCH   9  10
HETATM   10  C   UNL     1     -11.164  11.680  67.769  1.00  0.00    -0.268 C  
HETATM   11  O   UNL     1     -11.816  11.564  66.742  1.00  0.00    -0.511 OA 
HETATM   12  C   UNL     1      -9.919  12.602  67.979  1.00  0.00    -0.220 C  
HETATM   13  C   UNL     1     -10.422  14.007  68.326  1.00  0.00    -0.245 A  
HETATM   14  O   UNL     1      -9.147  12.118  69.088  1.00  0.00    -0.294 OA 
HETATM   15  C   UNL     1      -9.036  12.550  66.681  1.00  0.00    -0.203 C  
HETATM   16  H   UNL     1      -8.391  12.679  69.216  1.00  0.00     0.000 HD 
HETATM   17  C   UNL     1     -10.066  14.632  69.537  1.00  0.00     0.004 A  
HETATM   18  C   UNL     1      -7.788  13.456  66.726  1.00  0.00     0.425 C  
HETATM   19  C   UNL     1     -10.553  15.897  69.867  1.00  0.00    -0.327 A  
HETATM   20  C   UNL     1      -6.656  12.914  67.594  1.00  0.00    -0.155 C  
HETATM   21  C   UNL     1      -6.255  11.496  67.199  1.00  0.00    -0.121 C  
HETATM   22  C   UNL     1     -11.406  16.562  68.995  1.00  0.00    -0.181 A  
HETATM   23  C   UNL     1     -11.770  15.967  67.791  1.00  0.00     0.073 A  
HETATM   24  C   UNL     1      -7.437  10.543  67.086  1.00  0.00    -0.097 C  
HETATM   25  C   UNL     1      -8.587  11.125  66.267  1.00  0.00    -0.180 C  
HETATM   26  C   UNL     1     -11.281  14.702  67.457  1.00  0.00    -0.343 A  
ENDBRANCH   9  10
ENDBRANCH   8   9
ENDBRANCH   7   8
ENDBRANCH   3   7
ENDBRANCH   2   3
TORSDOF 6
ENDMDL
MODEL      164
REMARK 921   NORMALIZED FREE ENERGY PREDICTED BY IDOCK:   -3.19 KCAL/MOL
REMARK 922        TOTAL FREE ENERGY PREDICTED BY IDOCK:   -5.21 KCAL/MOL
REMARK 923 INTER-LIGAND FREE ENERGY PREDICTED BY IDOCK:   -4.57 KCAL/MOL
REMARK 924 INTRA-LIGAND FREE ENERGY PREDICTED BY IDOCK:   -0.64 KCAL/MOL
REMARK 927      BINDING AFFINITY PREDICTED BY RF-SCORE:    0.00 PKD
ROOT
HETATM    1  C   UNL     1     -11.981  11.601  69.277  1.00  0.00    -0.382 C  
HETATM    2  C   UNL     1     -11.776  12.115  67.862  1.00  0.00    -0.336 C  
ENDROOT
BRANCH   2   3
HETATM    3  N   UNL     1     -10.740  11.314  67.026  1.00  0.00    -0.247 N  
HETATM    4  C   UNL     1     -11.218  11.260  65.564  1.00  0.00     0.001 C  
BRANCH   3   5
HETATM    5  C   UNL     1      -9.333  11.941  67.056  1.00  0.00    -0.188 C  
HETATM    6  C   UNL     1      -8.604  11.749  68.378  1.00  0.00    -0.156 C  
ENDBRANCH   3   5
BRANCH   3   7
HETATM    7  C   UNL     1     -10.746   9.884  67.607  1.00  0.00    -0.281 C  
BRANCH   7   8
HETATM    8  C   UNL     1      -9.798   8.884  66.939  1.00  0.00    -0.223 C  
BRANCH   8   9
HETATM    9  O   UNL     1      -9.155   8.191  68.019  1.00  0.00    -0.134 OA 
BRANCH   9  10
HETATM   10  C   UNL     1      -9.729   7.008  68.402  1.00  0.00    -0.139 C  
HETATM   11  O   UNL     1     -10.378   6.294  67.652  1.00  0.00    -0.148 OA 
HETATM   12  C   UNL     1      -9.546   6.811  69.942  1.00  0.00    -0.155 C  
HETATM   13  C   UNL     1      -8.407   5.812  70.162  1.00  0.00    -0.117 A  
HETATM   14  O   UNL     1      -9.166   8.059  70.541  1.00  0.00    -0.152 OA 
HETATM   15  C   UNL     1     -10.918   6.350  70.552  1.00  0.00    -0.364 C  
HETATM   16  H   UNL     1      -9.055   7.941  71.477  1.00  0.00     0.000 HD 
HETATM   17  C   UNL     1      -7.258   6.163  70.898  1.00  0.00    -0.074 A  
HETATM   18  C   UNL     1     -10.877   6.070  72.068  1.00  0.00    -0.300 C  
HETATM   19  C   UNL     1      -6.205   5.262  71.067  1.00  0.00    -0.023 A  
HETATM   20  C   UNL     1     -10.844   7.327  72.932  1.00  0.00    -0.380 C  
HETATM   21  C   UNL     1     -11.992   8.278  72.611  1.00  0.00    -0.360 C  
HETATM   22  C   UNL     1      -6.279   3.995  70.505  1.00  0.00    -0.019 A  
HETATM   23  C   UNL     1      -7.405   3.623  69.776  1.00  0.00    -0.045 A  
HETATM   24  C   UNL     1     -12.135   8.573  71.124  1.00  0.00    -0.283 C  
HETATM   25  C   UNL     1     -12.103   7.309  70.267  1.00  0.00     0.020 C  
HETATM   26  C   UNL     1      -8.461   4.521  69.608  1.00  0.00    -0.087 A  
ENDBRANCH   9  10
ENDBRANCH   8   9
ENDBRANCH   7   8
ENDBRANCH   3   7
ENDBRANCH   2   3
TORSDOF 6
ENDMDL
MODEL      165
REMARK 921   NORMALIZED FREE ENERGY PREDICTED BY IDOCK:   -3.18 KCAL/MOL
REMARK 922        TOTAL FREE ENERGY PREDICTED BY IDOCK:   -5.20 KCAL/MOL
REMARK 923 INTER-LIGAND FREE ENERGY PREDICTED BY IDOCK:   -4.67 KCAL/MOL
REMARK 924 INTRA-LIGAND FREE ENERGY PREDICTED BY IDOCK:   -0.53 KCAL/MOL
REMARK 927      BINDING AFFINITY PREDICTED BY RF-SCORE:    0.00 PKD
ROOT
HETATM    1  C   UNL     1     -11.130   5.746  73.207  1.00  0.00    -0.252 C  
HETATM    2  C   UNL     1     -12.034   6.374  72.160  1.00  0.00    -0.298 C  
ENDROOT
BRANCH   2   3
HETATM    3  N   UNL     1     -11.567   7.767  71.654  1.00  0.00    -0.259 N  
HETATM    4  C   UNL     1     -12.748   8.751  71.749  1.00  0.00    -0.359 C  
BRANCH   3   5
HETATM    5  C   UNL     1     -10.390   8.337  72.470  1.00  0.00    -0.331 C  
HETATM    6  C   UNL     1      -9.337   9.032  71.620  1.00  0.00    -0.254 C  
ENDBRANCH   3   5
BRANCH   3   7
HETATM    7  C   UNL     1     -11.197   7.573  70.168  1.00  0.00    -0.196 C  
BRANCH   7   8
HETATM    8  C   UNL     1     -11.361   6.155  69.614  1.00  0.00    -0.372 C  
BRANCH   8   9
HETATM    9  O   UNL     1     -10.856   6.211  68.272  1.00  0.00    -0.267 OA 
BRANCH   9  10
HETATM   10  C   UNL     1      -9.534   5.890  68.112  1.00  0.00    -0.115 C  
HETATM   11  O   UNL     1      -8.798   5.567  69.033  1.00  0.00    -0.105 OA 
HETATM   12  C   UNL     1      -9.109   6.146  66.630  1.00  0.00    -0.139 C  
HETATM   13  C   UNL     1      -9.060   4.795  65.910  1.00  0.00    -0.137 A  
HETATM   14  O   UNL     1     -10.098   6.961  65.983  1.00  0.00    -0.392 OA 
HETATM   15  C   UNL     1      -7.737   6.911  66.630  1.00  0.00    -0.105 C  
HETATM   16  H   UNL     1      -9.840   7.116  65.082  1.00  0.00     0.000 HD 
HETATM   17  C   UNL     1      -9.858   4.541  64.777  1.00  0.00    -0.063 A  
HETATM   18  C   UNL     1      -7.167   7.193  65.225  1.00  0.00    -0.073 C  
HETATM   19  C   UNL     1      -9.838   3.298  64.143  1.00  0.00    -0.171 A  
HETATM   20  C   UNL     1      -7.871   8.325  64.483  1.00  0.00    -0.130 C  
HETATM   21  C   UNL     1      -7.906   9.615  65.297  1.00  0.00    -0.115 C  
HETATM   22  C   UNL     1      -9.022   2.285  64.628  1.00  0.00    -0.121 A  
HETATM   23  C   UNL     1      -8.221   2.512  65.743  1.00  0.00    -0.087 A  
HETATM   24  C   UNL     1      -8.414   9.419  66.718  1.00  0.00    -0.129 C  
HETATM   25  C   UNL     1      -7.745   8.242  67.427  1.00  0.00    -0.102 C  
HETATM   26  C   UNL     1      -8.237   3.756  66.377  1.00  0.00    -0.100 A  
ENDBRANCH   9  10
ENDBRANCH   8   9
ENDBRANCH   7   8
ENDBRANCH   3   7
ENDBRANCH   2   3
TORSDOF 6
ENDMDL
MODEL      166
REMARK 921   NORMALIZED FREE ENERGY PREDICTED BY IDOCK:   -3.17 KCAL/MOL
REMARK 922        TOTAL FREE ENERGY PREDICTED BY IDOCK:   -5.19 KCAL/MOL
REMARK 923 INTER-LIGAND FREE ENERGY PREDICTED BY IDOCK:   -4.86 KCAL/MOL
REMARK 924 INTRA-LIGAND FREE ENERGY PREDICTED BY IDOCK:   -0.32 KCAL/MOL
REMARK 927      BINDING AFFINITY PREDICTED BY RF-SCORE:    0.00 PKD
ROOT
HETATM    1  C   UNL     1     -12.562  15.149  73.208  1.00  0.00    -0.615 C  
HETATM    2  C   UNL     1     -11.497  14.924  72.148  1.00  0.00    -0.104 C  
ENDROOT
BRANCH   2   3
HETATM    3  N   UNL     1     -12.051  14.648  70.723  1.00  0.00    -0.299 N  
HETATM    4  C   UNL     1     -13.498  14.135  70.844  1.00  0.00    -0.090 C  
BRANCH   3   5
HETATM    5  C   UNL     1     -12.050  15.901  69.827  1.00  0.00    -0.215 C  
HETATM    6  C   UNL     1     -11.134  15.789  68.618  1.00  0.00    -0.327 C  
ENDBRANCH   3   5
BRANCH   3   7
HETATM    7  C   UNL     1     -11.169  13.523  70.140  1.00  0.00     0.251 C  
BRANCH   7   8
HETATM    8  C   UNL     1     -11.887  12.213  69.804  1.00  0.00    -0.327 C  
BRANCH   8   9
HETATM    9  O   UNL     1     -11.098  11.602  68.773  1.00  0.00    -0.198 OA 
BRANCH   9  10
HETATM   10  C   UNL     1      -9.960  10.960  69.184  1.00  0.00    -0.161 C  
HETATM   11  O   UNL     1      -8.942  11.539  69.530  1.00  0.00     0.491 OA 
HETATM   12  C   UNL     1     -10.133   9.417  68.998  1.00  0.00    -0.194 C  
HETATM   13  C   UNL     1     -10.436   8.803  70.367  1.00  0.00    -0.240 A  
HETATM   14  O   UNL     1     -11.253   9.162  68.137  1.00  0.00    -0.483 OA 
HETATM   15  C   UNL     1      -8.832   8.849  68.325  1.00  0.00    -0.134 C  
HETATM   16  H   UNL     1     -11.358   8.225  68.023  1.00  0.00     0.000 HD 
HETATM   17  C   UNL     1     -11.623   8.082  70.599  1.00  0.00    -0.203 A  
HETATM   18  C   UNL     1      -8.840   7.320  68.119  1.00  0.00    -0.126 C  
HETATM   19  C   UNL     1     -11.914   7.553  71.857  1.00  0.00    -0.335 A  
HETATM   20  C   UNL     1      -9.719   6.851  66.964  1.00  0.00    -0.210 C  
HETATM   21  C   UNL     1      -9.369   7.549  65.653  1.00  0.00     0.239 C  
HETATM   22  C   UNL     1     -11.025   7.735  72.909  1.00  0.00    -0.467 A  
HETATM   23  C   UNL     1      -9.844   8.442  72.705  1.00  0.00    -0.329 A  
HETATM   24  C   UNL     1      -9.294   9.064  65.777  1.00  0.00    -0.302 C  
HETATM   25  C   UNL     1      -8.463   9.518  66.975  1.00  0.00    -0.128 C  
HETATM   26  C   UNL     1      -9.549   8.969  71.446  1.00  0.00    -0.356 A  
ENDBRANCH   9  10
ENDBRANCH   8   9
ENDBRANCH   7   8
ENDBRANCH   3   7
ENDBRANCH   2   3
TORSDOF 6
ENDMDL
MODEL      167
REMARK 921   NORMALIZED FREE ENERGY PREDICTED BY IDOCK:   -3.13 KCAL/MOL
REMARK 922        TOTAL FREE ENERGY PREDICTED BY IDOCK:   -5.14 KCAL/MOL
REMARK 923 INTER-LIGAND FREE ENERGY PREDICTED BY IDOCK:   -4.69 KCAL/MOL
REMARK 924 INTRA-LIGAND FREE ENERGY PREDICTED BY IDOCK:   -0.45 KCAL/MOL
REMARK 927      BINDING AFFINITY PREDICTED BY RF-SCORE:    0.00 PKD
ROOT
HETATM    1  C   UNL     1      -8.825   9.483  64.007  1.00  0.00    -0.243 C  
HETATM    2  C   UNL     1      -9.457  10.843  64.249  1.00  0.00    -0.250 C  
ENDROOT
BRANCH   2   3
HETATM    3  N   UNL     1     -10.136  11.004  65.636  1.00  0.00    -0.245 N  
HETATM    4  C   UNL     1      -9.135  11.658  66.606  1.00  0.00    -0.194 C  
BRANCH   3   5
HETATM    5  C   UNL     1     -11.405  11.877  65.584  1.00  0.00    -0.284 C  
HETATM    6  C   UNL     1     -11.432  12.849  64.414  1.00  0.00    -0.405 C  
ENDBRANCH   3   5
BRANCH   3   7
HETATM    7  C   UNL     1     -10.442   9.573  66.125  1.00  0.00    -0.007 C  
BRANCH   7   8
HETATM    8  C   UNL     1     -10.561   9.391  67.641  1.00  0.00    -0.271 C  
BRANCH   8   9
HETATM    9  O   UNL     1      -9.389   8.660  68.029  1.00  0.00    -0.136 OA 
BRANCH   9  10
HETATM   10  C   UNL     1      -9.589   7.360  68.414  1.00  0.00    -0.148 C  
HETATM   11  O   UNL     1     -10.022   6.492  67.671  1.00  0.00    -0.120 OA 
HETATM   12  C   UNL     1      -9.321   7.221  69.947  1.00  0.00    -0.154 C  
HETATM   13  C   UNL     1      -7.938   6.592  70.133  1.00  0.00    -0.112 A  
HETATM   14  O   UNL     1      -9.303   8.524  70.549  1.00  0.00    -0.159 OA 
HETATM   15  C   UNL     1     -10.487   6.382  70.582  1.00  0.00    -0.269 C  
HETATM   16  H   UNL     1      -9.140   8.440  71.481  1.00  0.00     0.000 HD 
HETATM   17  C   UNL     1      -6.922   7.257  70.847  1.00  0.00    -0.056 A  
HETATM   18  C   UNL     1     -10.332   6.123  72.095  1.00  0.00    -0.227 C  
HETATM   19  C   UNL     1      -5.651   6.698  70.986  1.00  0.00    -0.027 A  
HETATM   20  C   UNL     1     -10.642   7.334  72.970  1.00  0.00    -0.371 C  
HETATM   21  C   UNL     1     -12.023   7.915  72.682  1.00  0.00    -0.299 C  
HETATM   22  C   UNL     1      -5.370   5.464  70.414  1.00  0.00    -0.004 A  
HETATM   23  C   UNL     1      -6.357   4.785  69.706  1.00  0.00    -0.030 A  
HETATM   24  C   UNL     1     -12.279   8.159  71.201  1.00  0.00    -0.257 C  
HETATM   25  C   UNL     1     -11.904   6.961  70.332  1.00  0.00    -0.351 C  
HETATM   26  C   UNL     1      -7.630   5.341  69.569  1.00  0.00    -0.069 A  
ENDBRANCH   9  10
ENDBRANCH   8   9
ENDBRANCH   7   8
ENDBRANCH   3   7
ENDBRANCH   2   3
TORSDOF 6
ENDMDL
MODEL      168
REMARK 921   NORMALIZED FREE ENERGY PREDICTED BY IDOCK:   -3.12 KCAL/MOL
REMARK 922        TOTAL FREE ENERGY PREDICTED BY IDOCK:   -5.12 KCAL/MOL
REMARK 923 INTER-LIGAND FREE ENERGY PREDICTED BY IDOCK:   -4.62 KCAL/MOL
REMARK 924 INTRA-LIGAND FREE ENERGY PREDICTED BY IDOCK:   -0.50 KCAL/MOL
REMARK 927      BINDING AFFINITY PREDICTED BY RF-SCORE:    0.00 PKD
ROOT
HETATM    1  C   UNL     1     -12.122  14.447  66.689  1.00  0.00    -0.392 C  
HETATM    2  C   UNL     1     -11.178  15.573  66.304  1.00  0.00    -0.096 C  
ENDROOT
BRANCH   2   3
HETATM    3  N   UNL     1      -9.848  15.606  67.105  1.00  0.00    -0.227 N  
HETATM    4  C   UNL     1      -8.691  15.908  66.135  1.00  0.00    -0.293 C  
BRANCH   3   5
HETATM    5  C   UNL     1      -9.844  16.674  68.216  1.00  0.00    -0.253 C  
HETATM    6  C   UNL     1      -8.594  17.541  68.227  1.00  0.00    -0.266 C  
ENDBRANCH   3   5
BRANCH   3   7
HETATM    7  C   UNL     1      -9.664  14.183  67.674  1.00  0.00    -0.228 C  
BRANCH   7   8
HETATM    8  C   UNL     1      -8.241  13.809  68.101  1.00  0.00    -0.160 C  
BRANCH   8   9
HETATM    9  O   UNL     1      -8.402  12.839  69.146  1.00  0.00     0.335 OA 
BRANCH   9  10
HETATM   10  C   UNL     1      -7.657  11.695  69.027  1.00  0.00    -0.027 C  
HETATM   11  O   UNL     1      -6.435  11.678  69.034  1.00  0.00    -0.067 OA 
HETATM   12  C   UNL     1      -8.600  10.482  68.741  1.00  0.00    -0.146 C  
HETATM   13  C   UNL     1      -8.774   9.697  70.044  1.00  0.00    -0.256 A  
HETATM   14  O   UNL     1      -9.890  10.966  68.336  1.00  0.00    -0.164 OA 
HETATM   15  C   UNL     1      -7.982   9.636  67.571  1.00  0.00    -0.106 C  
HETATM   16  H   UNL     1     -10.464  10.229  68.162  1.00  0.00     0.000 HD 
HETATM   17  C   UNL     1     -10.046   9.501  70.616  1.00  0.00    -0.353 A  
HETATM   18  C   UNL     1      -8.788   8.372  67.208  1.00  0.00    -0.137 C  
HETATM   19  C   UNL     1     -10.199   8.816  71.821  1.00  0.00    -0.408 A  
HETATM   20  C   UNL     1     -10.062   8.651  66.417  1.00  0.00    -0.294 C  
HETATM   21  C   UNL     1      -9.793   9.474  65.161  1.00  0.00    -0.101 C  
HETATM   22  C   UNL     1      -9.084   8.313  72.480  1.00  0.00    -0.323 A  
HETATM   23  C   UNL     1      -7.817   8.490  71.934  1.00  0.00    -0.157 A  
HETATM   24  C   UNL     1      -8.960  10.721  65.422  1.00  0.00    -0.211 C  
HETATM   25  C   UNL     1      -7.721  10.437  66.268  1.00  0.00    -0.129 C  
HETATM   26  C   UNL     1      -7.662   9.173  70.726  1.00  0.00    -0.162 A  
ENDBRANCH   9  10
ENDBRANCH   8   9
ENDBRANCH   7   8
ENDBRANCH   3   7
ENDBRANCH   2   3
TORSDOF 6
ENDMDL
MODEL      169
REMARK 921   NORMALIZED FREE ENERGY PREDICTED BY IDOCK:   -3.10 KCAL/MOL
REMARK 922        TOTAL FREE ENERGY PREDICTED BY IDOCK:   -5.09 KCAL/MOL
REMARK 923 INTER-LIGAND FREE ENERGY PREDICTED BY IDOCK:   -4.36 KCAL/MOL
REMARK 924 INTRA-LIGAND FREE ENERGY PREDICTED BY IDOCK:   -0.73 KCAL/MOL
REMARK 927      BINDING AFFINITY PREDICTED BY RF-SCORE:    0.00 PKD
ROOT
HETATM    1  C   UNL     1      -7.048  16.771  68.339  1.00  0.00    -0.173 C  
HETATM    2  C   UNL     1      -7.745  17.210  67.063  1.00  0.00    -0.189 C  
ENDROOT
BRANCH   2   3
HETATM    3  N   UNL     1      -9.285  17.369  67.187  1.00  0.00    -0.233 N  
HETATM    4  C   UNL     1      -9.630  17.739  68.642  1.00  0.00    -0.322 C  
BRANCH   3   5
HETATM    5  C   UNL     1      -9.852  18.460  66.259  1.00  0.00    -0.331 C  
HETATM    6  C   UNL     1      -9.315  19.853  66.552  1.00  0.00    -0.501 C  
ENDBRANCH   3   5
BRANCH   3   7
HETATM    7  C   UNL     1      -9.879  15.980  66.872  1.00  0.00    -0.245 C  
BRANCH   7   8
HETATM    8  C   UNL     1     -10.532  15.245  68.047  1.00  0.00    -0.248 C  
BRANCH   8   9
HETATM    9  O   UNL     1      -9.788  14.027  68.194  1.00  0.00    -0.221 OA 
BRANCH   9  10
HETATM   10  C   UNL     1     -10.458  12.872  67.889  1.00  0.00    -0.224 C  
HETATM   11  O   UNL     1     -11.255  12.331  68.641  1.00  0.00    -0.222 OA 
HETATM   12  C   UNL     1      -9.934  12.306  66.529  1.00  0.00    -0.220 C  
HETATM   13  C   UNL     1     -10.956  12.654  65.443  1.00  0.00    -0.320 A  
HETATM   14  O   UNL     1      -8.692  12.943  66.193  1.00  0.00    -0.404 OA 
HETATM   15  C   UNL     1      -9.687  10.763  66.694  1.00  0.00    -0.227 C  
HETATM   16  H   UNL     1      -8.373  12.599  65.367  1.00  0.00     0.000 HD 
HETATM   17  C   UNL     1     -10.597  13.427  64.322  1.00  0.00    -0.358 A  
HETATM   18  C   UNL     1      -9.209  10.056  65.409  1.00  0.00    -0.259 C  
HETATM   19  C   UNL     1     -11.538  13.773  63.352  1.00  0.00     0.333 A  
HETATM   20  C   UNL     1      -7.746  10.316  65.063  1.00  0.00    -0.129 C  
HETATM   21  C   UNL     1      -6.811   9.980  66.220  1.00  0.00    -0.099 C  
HETATM   22  C   UNL     1     -12.855  13.354  63.482  1.00  0.00     0.350 A  
HETATM   23  C   UNL     1     -13.234  12.586  64.579  1.00  0.00     0.195 A  
HETATM   24  C   UNL     1      -7.237  10.601  67.542  1.00  0.00    -0.090 C  
HETATM   25  C   UNL     1      -8.718  10.387  67.845  1.00  0.00    -0.118 C  
HETATM   26  C   UNL     1     -12.294  12.236  65.549  1.00  0.00    -0.101 A  
ENDBRANCH   9  10
ENDBRANCH   8   9
ENDBRANCH   7   8
ENDBRANCH   3   7
ENDBRANCH   2   3
TORSDOF 6
ENDMDL
MODEL      170
REMARK 921   NORMALIZED FREE ENERGY PREDICTED BY IDOCK:   -3.07 KCAL/MOL
REMARK 922        TOTAL FREE ENERGY PREDICTED BY IDOCK:   -5.05 KCAL/MOL
REMARK 923 INTER-LIGAND FREE ENERGY PREDICTED BY IDOCK:   -4.68 KCAL/MOL
REMARK 924 INTRA-LIGAND FREE ENERGY PREDICTED BY IDOCK:   -0.38 KCAL/MOL
REMARK 927      BINDING AFFINITY PREDICTED BY RF-SCORE:    0.00 PKD
ROOT
HETATM    1  C   UNL     1      -7.432   3.358  67.539  1.00  0.00    -0.059 C  
HETATM    2  C   UNL     1      -6.899   4.487  66.674  1.00  0.00    -0.052 C  
ENDROOT
BRANCH   2   3
HETATM    3  N   UNL     1      -7.752   4.795  65.413  1.00  0.00    -0.085 N  
HETATM    4  C   UNL     1      -6.896   5.602  64.420  1.00  0.00    -0.050 C  
BRANCH   3   5
HETATM    5  C   UNL     1      -8.253   3.523  64.703  1.00  0.00    -0.090 C  
HETATM    6  C   UNL     1      -9.761   3.489  64.500  1.00  0.00    -0.173 C  
ENDBRANCH   3   5
BRANCH   3   7
HETATM    7  C   UNL     1      -8.919   5.680  65.900  1.00  0.00    -0.155 C  
BRANCH   7   8
HETATM    8  C   UNL     1      -8.551   7.105  66.323  1.00  0.00    -0.139 C  
BRANCH   8   9
HETATM    9  O   UNL     1      -8.910   7.195  67.710  1.00  0.00    -0.125 OA 
BRANCH   9  10
HETATM   10  C   UNL     1     -10.198   7.576  67.975  1.00  0.00    -0.195 C  
HETATM   11  O   UNL     1     -11.180   7.030  67.493  1.00  0.00    -0.198 OA 
HETATM   12  C   UNL     1     -10.192   8.873  68.846  1.00  0.00    -0.206 C  
HETATM   13  C   UNL     1     -10.487   8.475  70.295  1.00  0.00    -0.233 A  
HETATM   14  O   UNL     1      -8.887   9.470  68.805  1.00  0.00    -0.128 OA 
HETATM   15  C   UNL     1     -11.234   9.883  68.244  1.00  0.00    -0.137 C  
HETATM   16  H   UNL     1      -8.883  10.259  69.334  1.00  0.00     0.000 HD 
HETATM   17  C   UNL     1      -9.576   8.757  71.331  1.00  0.00    -0.337 A  
HETATM   18  C   UNL     1     -11.371  11.201  69.033  1.00  0.00    -0.343 C  
HETATM   19  C   UNL     1      -9.831   8.362  72.645  1.00  0.00    -0.329 A  
HETATM   20  C   UNL     1     -10.215  12.174  68.827  1.00  0.00    -0.133 C  
HETATM   21  C   UNL     1      -9.972  12.476  67.351  1.00  0.00    -0.207 C  
HETATM   22  C   UNL     1     -11.000   7.678  72.949  1.00  0.00    -0.456 A  
HETATM   23  C   UNL     1     -11.918   7.390  71.944  1.00  0.00    -0.337 A  
HETATM   24  C   UNL     1      -9.870  11.227  66.487  1.00  0.00    -0.239 C  
HETATM   25  C   UNL     1     -11.000  10.233  66.751  1.00  0.00    -0.082 C  
HETATM   26  C   UNL     1     -11.667   7.787  70.630  1.00  0.00    -0.191 A  
ENDBRANCH   9  10
ENDBRANCH   8   9
ENDBRANCH   7   8
ENDBRANCH   3   7
ENDBRANCH   2   3
TORSDOF 6
ENDMDL
MODEL      171
REMARK 921   NORMALIZED FREE ENERGY PREDICTED BY IDOCK:   -3.01 KCAL/MOL
REMARK 922        TOTAL FREE ENERGY PREDICTED BY IDOCK:   -4.97 KCAL/MOL
REMARK 923 INTER-LIGAND FREE ENERGY PREDICTED BY IDOCK:   -4.33 KCAL/MOL
REMARK 924 INTRA-LIGAND FREE ENERGY PREDICTED BY IDOCK:   -0.64 KCAL/MOL
REMARK 927      BINDING AFFINITY PREDICTED BY RF-SCORE:    0.00 PKD
ROOT
HETATM    1  C   UNL     1     -11.233  13.124  65.766  1.00  0.00    -0.309 C  
HETATM    2  C   UNL     1     -11.448  12.225  66.971  1.00  0.00    -0.354 C  
ENDROOT
BRANCH   2   3
HETATM    3  N   UNL     1     -10.589  12.589  68.213  1.00  0.00    -0.224 N  
HETATM    4  C   UNL     1      -9.172  12.968  67.742  1.00  0.00    -0.200 C  
BRANCH   3   5
HETATM    5  C   UNL     1     -11.167  13.770  69.016  1.00  0.00    -0.272 C  
HETATM    6  C   UNL     1     -12.042  13.345  70.185  1.00  0.00    -0.415 C  
ENDBRANCH   3   5
BRANCH   3   7
HETATM    7  C   UNL     1     -10.505  11.302  69.060  1.00  0.00    -0.194 C  
BRANCH   7   8
HETATM    8  C   UNL     1     -11.411  10.148  68.621  1.00  0.00    -0.039 C  
BRANCH   8   9
HETATM    9  O   UNL     1     -10.523   9.062  68.318  1.00  0.00    -0.212 OA 
BRANCH   9  10
HETATM   10  C   UNL     1     -10.090   8.322  69.386  1.00  0.00    -0.198 C  
HETATM   11  O   UNL     1     -10.693   8.243  70.446  1.00  0.00    -0.224 OA 
HETATM   12  C   UNL     1      -8.672   7.740  69.080  1.00  0.00    -0.139 C  
HETATM   13  C   UNL     1      -8.834   6.267  68.698  1.00  0.00    -0.119 A  
HETATM   14  O   UNL     1      -8.104   8.432  67.958  1.00  0.00    -0.120 OA 
HETATM   15  C   UNL     1      -7.758   7.970  70.336  1.00  0.00    -0.085 C  
HETATM   16  H   UNL     1      -7.242   8.079  67.771  1.00  0.00     0.000 HD 
HETATM   17  C   UNL     1      -8.404   5.784  67.447  1.00  0.00    -0.104 A  
HETATM   18  C   UNL     1      -6.331   7.402  70.196  1.00  0.00    -0.034 C  
HETATM   19  C   UNL     1      -8.585   4.448  67.087  1.00  0.00    -0.104 A  
HETATM   20  C   UNL     1      -5.415   8.231  69.300  1.00  0.00    -0.031 C  
HETATM   21  C   UNL     1      -5.352   9.692  69.734  1.00  0.00    -0.033 C  
HETATM   22  C   UNL     1      -9.199   3.568  67.969  1.00  0.00    -0.228 A  
HETATM   23  C   UNL     1      -9.631   4.020  69.213  1.00  0.00    -0.247 A  
HETATM   24  C   UNL     1      -6.722  10.321  69.943  1.00  0.00    -0.125 C  
HETATM   25  C   UNL     1      -7.649   9.450  70.789  1.00  0.00    -0.138 C  
HETATM   26  C   UNL     1      -9.448   5.355  69.576  1.00  0.00    -0.182 A  
ENDBRANCH   9  10
ENDBRANCH   8   9
ENDBRANCH   7   8
ENDBRANCH   3   7
ENDBRANCH   2   3
TORSDOF 6
ENDMDL
MODEL      172
REMARK 921   NORMALIZED FREE ENERGY PREDICTED BY IDOCK:   -2.96 KCAL/MOL
REMARK 922        TOTAL FREE ENERGY PREDICTED BY IDOCK:   -4.91 KCAL/MOL
REMARK 923 INTER-LIGAND FREE ENERGY PREDICTED BY IDOCK:   -4.27 KCAL/MOL
REMARK 924 INTRA-LIGAND FREE ENERGY PREDICTED BY IDOCK:   -0.64 KCAL/MOL
REMARK 927      BINDING AFFINITY PREDICTED BY RF-SCORE:    0.00 PKD
ROOT
HETATM    1  C   UNL     1     -11.637   8.040  72.653  1.00  0.00    -0.448 C  
HETATM    2  C   UNL     1     -11.008   6.712  72.267  1.00  0.00    -0.246 C  
ENDROOT
BRANCH   2   3
HETATM    3  N   UNL     1      -9.533   6.539  72.722  1.00  0.00    -0.143 N  
HETATM    4  C   UNL     1      -9.505   6.335  74.248  1.00  0.00    -0.200 C  
BRANCH   3   5
HETATM    5  C   UNL     1      -8.839   5.334  72.057  1.00  0.00    -0.130 C  
HETATM    6  C   UNL     1      -9.699   4.628  71.020  1.00  0.00    -0.258 C  
ENDBRANCH   3   5
BRANCH   3   7
HETATM    7  C   UNL     1      -8.828   7.869  72.383  1.00  0.00    -0.154 C  
BRANCH   7   8
HETATM    8  C   UNL     1      -7.806   7.817  71.244  1.00  0.00    -0.086 C  
BRANCH   8   9
HETATM    9  O   UNL     1      -8.128   8.928  70.394  1.00  0.00    -0.100 OA 
BRANCH   9  10
HETATM   10  C   UNL     1      -8.953   8.656  69.335  1.00  0.00    -0.145 C  
HETATM   11  O   UNL     1      -9.847   7.824  69.367  1.00  0.00    -0.171 OA 
HETATM   12  C   UNL     1      -8.474   9.455  68.080  1.00  0.00    -0.120 C  
HETATM   13  C   UNL     1      -9.395  10.667  67.907  1.00  0.00    -0.154 A  
HETATM   14  O   UNL     1      -7.140   9.937  68.301  1.00  0.00    -0.075 OA 
HETATM   15  C   UNL     1      -8.468   8.486  66.844  1.00  0.00    -0.113 C  
HETATM   16  H   UNL     1      -6.848  10.423  67.538  1.00  0.00     0.000 HD 
HETATM   17  C   UNL     1      -8.885  11.980  67.923  1.00  0.00    -0.174 A  
HETATM   18  C   UNL     1      -8.057   9.152  65.516  1.00  0.00    -0.115 C  
HETATM   19  C   UNL     1      -9.730  13.084  67.800  1.00  0.00    -0.218 A  
HETATM   20  C   UNL     1      -6.561   9.423  65.390  1.00  0.00    -0.071 C  
HETATM   21  C   UNL     1      -5.727   8.167  65.620  1.00  0.00    -0.040 C  
HETATM   22  C   UNL     1     -11.100  12.898  67.661  1.00  0.00    -0.297 A  
HETATM   23  C   UNL     1     -11.627  11.610  67.640  1.00  0.00    -0.349 A  
HETATM   24  C   UNL     1      -6.100   7.417  66.891  1.00  0.00    -0.046 C  
HETATM   25  C   UNL     1      -7.606   7.210  67.034  1.00  0.00    -0.099 C  
HETATM   26  C   UNL     1     -10.783  10.504  67.759  1.00  0.00    -0.319 A  
ENDBRANCH   9  10
ENDBRANCH   8   9
ENDBRANCH   7   8
ENDBRANCH   3   7
ENDBRANCH   2   3
TORSDOF 6
ENDMDL
MODEL      173
REMARK 921   NORMALIZED FREE ENERGY PREDICTED BY IDOCK:   -2.96 KCAL/MOL
REMARK 922        TOTAL FREE ENERGY PREDICTED BY IDOCK:   -4.90 KCAL/MOL
REMARK 923 INTER-LIGAND FREE ENERGY PREDICTED BY IDOCK:   -3.88 KCAL/MOL
REMARK 924 INTRA-LIGAND FREE ENERGY PREDICTED BY IDOCK:   -1.02 KCAL/MOL
REMARK 927      BINDING AFFINITY PREDICTED BY RF-SCORE:    0.00 PKD
ROOT
HETATM    1  C   UNL     1     -10.437   6.468  73.425  1.00  0.00    -0.295 C  
HETATM    2  C   UNL     1     -10.438   7.908  72.939  1.00  0.00    -0.355 C  
ENDROOT
BRANCH   2   3
HETATM    3  N   UNL     1     -10.807   8.085  71.440  1.00  0.00    -0.227 N  
HETATM    4  C   UNL     1     -12.335   8.224  71.318  1.00  0.00    -0.263 C  
BRANCH   3   5
HETATM    5  C   UNL     1     -10.152   9.327  70.806  1.00  0.00    -0.291 C  
HETATM    6  C   UNL     1     -10.721   9.690  69.442  1.00  0.00    -0.248 C  
ENDBRANCH   3   5
BRANCH   3   7
HETATM    7  C   UNL     1     -10.366   6.782  70.741  1.00  0.00    -0.204 C  
BRANCH   7   8
HETATM    8  C   UNL     1     -11.284   6.273  69.626  1.00  0.00    -0.437 C  
BRANCH   8   9
HETATM    9  O   UNL     1     -10.443   5.486  68.771  1.00  0.00    -0.209 OA 
BRANCH   9  10
HETATM   10  C   UNL     1      -9.815   6.160  67.757  1.00  0.00    -0.123 C  
HETATM   11  O   UNL     1     -10.405   6.809  66.906  1.00  0.00    -0.224 OA 
HETATM   12  C   UNL     1      -8.285   5.844  67.787  1.00  0.00    -0.105 C  
HETATM   13  C   UNL     1      -7.565   7.038  68.422  1.00  0.00    -0.111 A  
HETATM   14  O   UNL     1      -8.051   4.693  68.612  1.00  0.00    -0.082 OA 
HETATM   15  C   UNL     1      -7.812   5.528  66.323  1.00  0.00    -0.100 C  
HETATM   16  H   UNL     1      -7.120   4.500  68.630  1.00  0.00     0.000 HD 
HETATM   17  C   UNL     1      -6.786   6.887  69.586  1.00  0.00    -0.051 A  
HETATM   18  C   UNL     1      -6.303   5.240  66.190  1.00  0.00    -0.039 C  
HETATM   19  C   UNL     1      -6.160   7.982  70.183  1.00  0.00    -0.032 A  
HETATM   20  C   UNL     1      -5.885   3.861  66.691  1.00  0.00    -0.023 C  
HETATM   21  C   UNL     1      -6.686   2.742  66.032  1.00  0.00    -0.043 C  
HETATM   22  C   UNL     1      -6.299   9.248  69.629  1.00  0.00    -0.039 A  
HETATM   23  C   UNL     1      -7.061   9.422  68.477  1.00  0.00    -0.071 A  
HETATM   24  C   UNL     1      -8.191   2.969  66.076  1.00  0.00    -0.091 C  
HETATM   25  C   UNL     1      -8.589   4.375  65.633  1.00  0.00    -0.119 C  
HETATM   26  C   UNL     1      -7.685   8.328  67.876  1.00  0.00    -0.103 A  
ENDBRANCH   9  10
ENDBRANCH   8   9
ENDBRANCH   7   8
ENDBRANCH   3   7
ENDBRANCH   2   3
TORSDOF 6
ENDMDL
MODEL      174
REMARK 921   NORMALIZED FREE ENERGY PREDICTED BY IDOCK:   -2.95 KCAL/MOL
REMARK 922        TOTAL FREE ENERGY PREDICTED BY IDOCK:   -4.89 KCAL/MOL
REMARK 923 INTER-LIGAND FREE ENERGY PREDICTED BY IDOCK:   -4.56 KCAL/MOL
REMARK 924 INTRA-LIGAND FREE ENERGY PREDICTED BY IDOCK:   -0.33 KCAL/MOL
REMARK 927      BINDING AFFINITY PREDICTED BY RF-SCORE:    0.00 PKD
ROOT
HETATM    1  C   UNL     1     -10.902  10.054  67.192  1.00  0.00    -0.240 C  
HETATM    2  C   UNL     1      -9.606  10.128  66.404  1.00  0.00    -0.191 C  
ENDROOT
BRANCH   2   3
HETATM    3  N   UNL     1      -8.338   9.719  67.204  1.00  0.00    -0.121 N  
HETATM    4  C   UNL     1      -7.651   8.547  66.479  1.00  0.00    -0.088 C  
BRANCH   3   5
HETATM    5  C   UNL     1      -7.322  10.868  67.344  1.00  0.00    -0.099 C  
HETATM    6  C   UNL     1      -7.052  11.275  68.785  1.00  0.00    -0.096 C  
ENDBRANCH   3   5
BRANCH   3   7
HETATM    7  C   UNL     1      -8.846   9.228  68.576  1.00  0.00    -0.129 C  
BRANCH   7   8
HETATM    8  C   UNL     1      -8.687   7.731  68.856  1.00  0.00    -0.135 C  
BRANCH   8   9
HETATM    9  O   UNL     1      -7.718   7.642  69.910  1.00  0.00    -0.093 OA 
BRANCH   9  10
HETATM   10  C   UNL     1      -8.090   8.171  71.117  1.00  0.00    -0.103 C  
HETATM   11  O   UNL     1      -7.697   9.250  71.535  1.00  0.00    -0.340 OA 
HETATM   12  C   UNL     1      -8.950   7.129  71.903  1.00  0.00    -0.127 C  
HETATM   13  C   UNL     1     -10.421   7.536  71.779  1.00  0.00    -0.222 A  
HETATM   14  O   UNL     1      -8.794   5.833  71.305  1.00  0.00    -0.134 OA 
HETATM   15  C   UNL     1      -8.433   7.072  73.385  1.00  0.00    -0.150 C  
HETATM   16  H   UNL     1      -9.317   5.199  71.783  1.00  0.00     0.000 HD 
HETATM   17  C   UNL     1     -11.374   6.669  71.208  1.00  0.00    -0.346 A  
HETATM   18  C   UNL     1      -9.224   6.113  74.297  1.00  0.00    -0.156 C  
HETATM   19  C   UNL     1     -12.707   7.056  71.065  1.00  0.00    -0.300 A  
HETATM   20  C   UNL     1      -8.914   4.637  74.067  1.00  0.00    -0.109 C  
HETATM   21  C   UNL     1      -7.421   4.338  74.169  1.00  0.00    -0.072 C  
HETATM   22  C   UNL     1     -13.114   8.315  71.487  1.00  0.00    -0.313 A  
HETATM   23  C   UNL     1     -12.192   9.188  72.056  1.00  0.00    -0.443 A  
HETATM   24  C   UNL     1      -6.559   5.273  73.332  1.00  0.00    -0.072 C  
HETATM   25  C   UNL     1      -6.924   6.744  73.526  1.00  0.00    -0.075 C  
HETATM   26  C   UNL     1     -10.859   8.802  72.205  1.00  0.00    -0.400 A  
ENDBRANCH   9  10
ENDBRANCH   8   9
ENDBRANCH   7   8
ENDBRANCH   3   7
ENDBRANCH   2   3
TORSDOF 6
ENDMDL
MODEL      175
REMARK 921   NORMALIZED FREE ENERGY PREDICTED BY IDOCK:   -2.94 KCAL/MOL
REMARK 922        TOTAL FREE ENERGY PREDICTED BY IDOCK:   -4.87 KCAL/MOL
REMARK 923 INTER-LIGAND FREE ENERGY PREDICTED BY IDOCK:   -4.00 KCAL/MOL
REMARK 924 INTRA-LIGAND FREE ENERGY PREDICTED BY IDOCK:   -0.87 KCAL/MOL
REMARK 927      BINDING AFFINITY PREDICTED BY RF-SCORE:    0.00 PKD
ROOT
HETATM    1  C   UNL     1      -7.137   7.213  65.874  1.00  0.00    -0.069 C  
HETATM    2  C   UNL     1      -8.135   6.304  65.177  1.00  0.00    -0.130 C  
ENDROOT
BRANCH   2   3
HETATM    3  N   UNL     1      -7.899   4.786  65.409  1.00  0.00    -0.090 N  
HETATM    4  C   UNL     1      -9.264   4.081  65.511  1.00  0.00    -0.150 C  
BRANCH   3   5
HETATM    5  C   UNL     1      -7.093   4.126  64.273  1.00  0.00    -0.047 C  
HETATM    6  C   UNL     1      -6.141   3.039  64.750  1.00  0.00    -0.022 C  
ENDBRANCH   3   5
BRANCH   3   7
HETATM    7  C   UNL     1      -7.176   4.675  66.768  1.00  0.00    -0.080 C  
BRANCH   7   8
HETATM    8  C   UNL     1      -8.032   4.208  67.948  1.00  0.00    -0.086 C  
BRANCH   8   9
HETATM    9  O   UNL     1      -8.231   5.376  68.758  1.00  0.00    -0.093 OA 
BRANCH   9  10
HETATM   10  C   UNL     1      -9.533   5.719  69.012  1.00  0.00    -0.124 C  
HETATM   11  O   UNL     1     -10.494   5.138  68.530  1.00  0.00    -0.126 OA 
HETATM   12  C   UNL     1      -9.572   7.025  69.871  1.00  0.00    -0.159 C  
HETATM   13  C   UNL     1      -9.864   6.631  71.321  1.00  0.00    -0.190 A  
HETATM   14  O   UNL     1      -8.286   7.661  69.831  1.00  0.00    -0.128 OA 
HETATM   15  C   UNL     1     -10.641   7.995  69.252  1.00  0.00    -0.193 C  
HETATM   16  H   UNL     1      -8.310   8.455  70.353  1.00  0.00     0.000 HD 
HETATM   17  C   UNL     1      -8.968   6.952  72.360  1.00  0.00    -0.143 A  
HETATM   18  C   UNL     1     -10.824   9.316  70.027  1.00  0.00    -0.264 C  
HETATM   19  C   UNL     1      -9.219   6.562  73.676  1.00  0.00    -0.150 A  
HETATM   20  C   UNL     1      -9.697  10.322  69.818  1.00  0.00    -0.183 C  
HETATM   21  C   UNL     1      -9.454  10.617  68.342  1.00  0.00    -0.165 C  
HETATM   22  C   UNL     1     -10.368   5.844  73.981  1.00  0.00    -0.295 A  
HETATM   23  C   UNL     1     -11.271   5.518  72.973  1.00  0.00    -0.346 A  
HETATM   24  C   UNL     1      -9.308   9.363  67.491  1.00  0.00    -0.147 C  
HETATM   25  C   UNL     1     -10.408   8.338  67.757  1.00  0.00    -0.296 C  
HETATM   26  C   UNL     1     -11.024   5.910  71.656  1.00  0.00    -0.327 A  
ENDBRANCH   9  10
ENDBRANCH   8   9
ENDBRANCH   7   8
ENDBRANCH   3   7
ENDBRANCH   2   3
TORSDOF 6
ENDMDL
MODEL      176
REMARK 921   NORMALIZED FREE ENERGY PREDICTED BY IDOCK:   -2.87 KCAL/MOL
REMARK 922        TOTAL FREE ENERGY PREDICTED BY IDOCK:   -4.78 KCAL/MOL
REMARK 923 INTER-LIGAND FREE ENERGY PREDICTED BY IDOCK:   -4.15 KCAL/MOL
REMARK 924 INTRA-LIGAND FREE ENERGY PREDICTED BY IDOCK:   -0.63 KCAL/MOL
REMARK 927      BINDING AFFINITY PREDICTED BY RF-SCORE:    0.00 PKD
ROOT
HETATM    1  C   UNL     1      -9.614   8.093  72.826  1.00  0.00    -0.353 C  
HETATM    2  C   UNL     1     -11.113   7.938  73.025  1.00  0.00    -0.314 C  
ENDROOT
BRANCH   2   3
HETATM    3  N   UNL     1     -11.967   8.243  71.764  1.00  0.00    -0.297 N  
HETATM    4  C   UNL     1     -13.381   8.660  72.211  1.00  0.00    -0.375 C  
BRANCH   3   5
HETATM    5  C   UNL     1     -11.377   9.374  70.899  1.00  0.00    -0.319 C  
HETATM    6  C   UNL     1     -12.246  10.621  70.844  1.00  0.00    -0.497 C  
ENDBRANCH   3   5
BRANCH   3   7
HETATM    7  C   UNL     1     -12.062   6.914  70.987  1.00  0.00    -0.380 C  
BRANCH   7   8
HETATM    8  C   UNL     1     -11.636   6.962  69.517  1.00  0.00    -0.039 C  
BRANCH   8   9
HETATM    9  O   UNL     1     -10.249   6.594  69.512  1.00  0.00    -0.172 OA 
BRANCH   9  10
HETATM   10  C   UNL     1      -9.863   5.710  68.539  1.00  0.00    -0.143 C  
HETATM   11  O   UNL     1     -10.621   5.262  67.691  1.00  0.00    -0.156 OA 
HETATM   12  C   UNL     1      -8.382   5.275  68.783  1.00  0.00    -0.092 C  
HETATM   13  C   UNL     1      -7.492   6.046  67.805  1.00  0.00    -0.085 A  
HETATM   14  O   UNL     1      -7.993   5.633  70.118  1.00  0.00    -0.094 OA 
HETATM   15  C   UNL     1      -8.289   3.715  68.626  1.00  0.00    -0.093 C  
HETATM   16  H   UNL     1      -7.092   5.369  70.267  1.00  0.00     0.000 HD 
HETATM   17  C   UNL     1      -6.460   6.889  68.263  1.00  0.00    -0.050 A  
HETATM   18  C   UNL     1      -6.866   3.143  68.796  1.00  0.00    -0.044 C  
HETATM   19  C   UNL     1      -5.673   7.618  67.371  1.00  0.00    -0.036 A  
HETATM   20  C   UNL     1      -6.385   3.090  70.242  1.00  0.00    -0.028 C  
HETATM   21  C   UNL     1      -7.357   2.338  71.146  1.00  0.00    -0.033 C  
HETATM   22  C   UNL     1      -5.901   7.521  66.005  1.00  0.00    -0.037 A  
HETATM   23  C   UNL     1      -6.913   6.694  65.527  1.00  0.00    -0.060 A  
HETATM   24  C   UNL     1      -8.798   2.809  71.008  1.00  0.00    -0.141 C  
HETATM   25  C   UNL     1      -9.245   2.918  69.551  1.00  0.00    -0.211 C  
HETATM   26  C   UNL     1      -7.699   5.960  66.417  1.00  0.00    -0.099 A  
ENDBRANCH   9  10
ENDBRANCH   8   9
ENDBRANCH   7   8
ENDBRANCH   3   7
ENDBRANCH   2   3
TORSDOF 6
ENDMDL
MODEL      177
REMARK 921   NORMALIZED FREE ENERGY PREDICTED BY IDOCK:   -2.86 KCAL/MOL
REMARK 922        TOTAL FREE ENERGY PREDICTED BY IDOCK:   -4.76 KCAL/MOL
REMARK 923 INTER-LIGAND FREE ENERGY PREDICTED BY IDOCK:   -4.62 KCAL/MOL
REMARK 924 INTRA-LIGAND FREE ENERGY PREDICTED BY IDOCK:   -0.15 KCAL/MOL
REMARK 927      BINDING AFFINITY PREDICTED BY RF-SCORE:    0.00 PKD
ROOT
HETATM    1  C   UNL     1     -13.433   7.217  71.362  1.00  0.00    -0.400 C  
HETATM    2  C   UNL     1     -11.987   7.269  70.899  1.00  0.00    -0.305 C  
ENDROOT
BRANCH   2   3
HETATM    3  N   UNL     1     -11.296   8.648  71.087  1.00  0.00    -0.264 N  
HETATM    4  C   UNL     1     -12.341   9.663  71.586  1.00  0.00    -0.404 C  
BRANCH   3   5
HETATM    5  C   UNL     1     -10.137   8.603  72.102  1.00  0.00    -0.318 C  
HETATM    6  C   UNL     1     -10.297   7.529  73.167  1.00  0.00    -0.402 C  
ENDBRANCH   3   5
BRANCH   3   7
HETATM    7  C   UNL     1     -10.817   9.075  69.684  1.00  0.00    -0.186 C  
BRANCH   7   8
HETATM    8  C   UNL     1     -10.382   7.943  68.749  1.00  0.00    -0.203 C  
BRANCH   8   9
HETATM    9  O   UNL     1     -10.423   8.504  67.429  1.00  0.00    -0.262 OA 
BRANCH   9  10
HETATM   10  C   UNL     1      -9.778   9.701  67.262  1.00  0.00    -0.166 C  
HETATM   11  O   UNL     1     -10.339  10.786  67.309  1.00  0.00    -0.199 OA 
HETATM   12  C   UNL     1      -8.288   9.443  66.866  1.00  0.00    -0.127 C  
HETATM   13  C   UNL     1      -7.421   9.661  68.109  1.00  0.00    -0.082 A  
HETATM   14  O   UNL     1      -8.134   8.078  66.449  1.00  0.00    -0.101 OA 
HETATM   15  C   UNL     1      -7.921  10.387  65.666  1.00  0.00    -0.153 C  
HETATM   16  H   UNL     1      -7.229   7.920  66.209  1.00  0.00     0.000 HD 
HETATM   17  C   UNL     1      -6.608   8.632  68.623  1.00  0.00    -0.055 A  
HETATM   18  C   UNL     1      -6.457  10.275  65.195  1.00  0.00    -0.119 C  
HETATM   19  C   UNL     1      -5.845   8.822  69.777  1.00  0.00    -0.028 A  
HETATM   20  C   UNL     1      -6.159   9.020  64.380  1.00  0.00    -0.070 C  
HETATM   21  C   UNL     1      -7.100   8.868  63.190  1.00  0.00    -0.089 C  
HETATM   22  C   UNL     1      -5.881  10.042  70.439  1.00  0.00    -0.071 A  
HETATM   23  C   UNL     1      -6.674  11.075  69.949  1.00  0.00    -0.125 A  
HETATM   24  C   UNL     1      -8.570   9.012  63.559  1.00  0.00    -0.146 C  
HETATM   25  C   UNL     1      -8.842  10.239  64.427  1.00  0.00    -0.229 C  
HETATM   26  C   UNL     1      -7.435  10.889  68.794  1.00  0.00    -0.112 A  
ENDBRANCH   9  10
ENDBRANCH   8   9
ENDBRANCH   7   8
ENDBRANCH   3   7
ENDBRANCH   2   3
TORSDOF 6
ENDMDL
MODEL      178
REMARK 921   NORMALIZED FREE ENERGY PREDICTED BY IDOCK:   -2.85 KCAL/MOL
REMARK 922        TOTAL FREE ENERGY PREDICTED BY IDOCK:   -4.76 KCAL/MOL
REMARK 923 INTER-LIGAND FREE ENERGY PREDICTED BY IDOCK:   -4.02 KCAL/MOL
REMARK 924 INTRA-LIGAND FREE ENERGY PREDICTED BY IDOCK:   -0.74 KCAL/MOL
REMARK 927      BINDING AFFINITY PREDICTED BY RF-SCORE:    0.00 PKD
ROOT
HETATM    1  C   UNL     1     -11.914  15.609  71.678  1.00  0.00    -0.503 C  
HETATM    2  C   UNL     1     -12.457  15.196  70.321  1.00  0.00    -0.342 C  
ENDROOT
BRANCH   2   3
HETATM    3  N   UNL     1     -11.392  15.118  69.193  1.00  0.00    -0.279 N  
HETATM    4  C   UNL     1     -11.560  16.337  68.267  1.00  0.00    -0.118 C  
BRANCH   3   5
HETATM    5  C   UNL     1      -9.949  15.111  69.732  1.00  0.00    -0.135 C  
HETATM    6  C   UNL     1      -9.069  16.202  69.140  1.00  0.00    -0.243 C  
ENDBRANCH   3   5
BRANCH   3   7
HETATM    7  C   UNL     1     -11.715  13.837  68.396  1.00  0.00    -0.358 C  
BRANCH   7   8
HETATM    8  C   UNL     1     -11.394  12.512  69.093  1.00  0.00    -0.274 C  
BRANCH   8   9
HETATM    9  O   UNL     1     -10.526  11.809  68.192  1.00  0.00    -0.188 OA 
BRANCH   9  10
HETATM   10  C   UNL     1      -9.585  10.999  68.771  1.00  0.00    -0.187 C  
HETATM   11  O   UNL     1      -9.686  10.540  69.899  1.00  0.00    -0.086 OA 
HETATM   12  C   UNL     1      -8.338  10.893  67.834  1.00  0.00    -0.119 C  
HETATM   13  C   UNL     1      -8.401   9.545  67.111  1.00  0.00    -0.131 A  
HETATM   14  O   UNL     1      -8.393  11.932  66.846  1.00  0.00    -0.169 OA 
HETATM   15  C   UNL     1      -7.044  11.083  68.703  1.00  0.00    -0.080 C  
HETATM   16  H   UNL     1      -7.636  11.868  66.276  1.00  0.00     0.000 HD 
HETATM   17  C   UNL     1      -8.442   9.471  65.704  1.00  0.00    -0.143 A  
HETATM   18  C   UNL     1      -5.725  10.956  67.915  1.00  0.00    -0.042 C  
HETATM   19  C   UNL     1      -8.535   8.243  65.048  1.00  0.00    -0.141 A  
HETATM   20  C   UNL     1      -5.397  12.168  67.049  1.00  0.00    -0.056 C  
HETATM   21  C   UNL     1      -5.400  13.466  67.849  1.00  0.00    -0.102 C  
HETATM   22  C   UNL     1      -8.590   7.066  65.782  1.00  0.00    -0.138 A  
HETATM   23  C   UNL     1      -8.548   7.112  67.173  1.00  0.00    -0.121 A  
HETATM   24  C   UNL     1      -6.651  13.652  68.697  1.00  0.00    -0.097 C  
HETATM   25  C   UNL     1      -7.002  12.407  69.510  1.00  0.00     0.161 C  
HETATM   26  C   UNL     1      -8.451   8.339  67.832  1.00  0.00    -0.132 A  
ENDBRANCH   9  10
ENDBRANCH   8   9
ENDBRANCH   7   8
ENDBRANCH   3   7
ENDBRANCH   2   3
TORSDOF 6
ENDMDL
MODEL      179
REMARK 921   NORMALIZED FREE ENERGY PREDICTED BY IDOCK:   -2.79 KCAL/MOL
REMARK 922        TOTAL FREE ENERGY PREDICTED BY IDOCK:   -4.68 KCAL/MOL
REMARK 923 INTER-LIGAND FREE ENERGY PREDICTED BY IDOCK:   -4.50 KCAL/MOL
REMARK 924 INTRA-LIGAND FREE ENERGY PREDICTED BY IDOCK:   -0.18 KCAL/MOL
REMARK 927      BINDING AFFINITY PREDICTED BY RF-SCORE:    0.00 PKD
ROOT
HETATM    1  C   UNL     1     -10.977  13.880  66.543  1.00  0.00    -0.300 C  
HETATM    2  C   UNL     1      -9.979  12.744  66.691  1.00  0.00    -0.245 C  
ENDROOT
BRANCH   2   3
HETATM    3  N   UNL     1      -9.039  12.864  67.921  1.00  0.00    -0.192 N  
HETATM    4  C   UNL     1      -7.583  12.955  67.427  1.00  0.00    -0.148 C  
BRANCH   3   5
HETATM    5  C   UNL     1      -9.339  14.104  68.785  1.00  0.00    -0.092 C  
HETATM    6  C   UNL     1      -8.117  14.969  69.060  1.00  0.00    -0.178 C  
ENDBRANCH   3   5
BRANCH   3   7
HETATM    7  C   UNL     1      -9.215  11.553  68.716  1.00  0.00    -0.067 C  
BRANCH   7   8
HETATM    8  C   UNL     1     -10.315  10.609  68.221  1.00  0.00    -0.177 C  
BRANCH   8   9
HETATM    9  O   UNL     1      -9.632   9.578  67.494  1.00  0.00    -0.139 OA 
BRANCH   9  10
HETATM   10  C   UNL     1      -8.843   8.739  68.235  1.00  0.00    -0.141 C  
HETATM   11  O   UNL     1      -7.723   9.031  68.627  1.00  0.00    -0.094 OA 
HETATM   12  C   UNL     1      -9.535   7.343  68.359  1.00  0.00    -0.143 C  
HETATM   13  C   UNL     1     -10.167   7.247  69.750  1.00  0.00    -0.214 A  
HETATM   14  O   UNL     1     -10.584   7.242  67.385  1.00  0.00    -0.251 OA 
HETATM   15  C   UNL     1      -8.465   6.229  68.073  1.00  0.00    -0.117 C  
HETATM   16  H   UNL     1     -11.005   6.393  67.459  1.00  0.00     0.000 HD 
HETATM   17  C   UNL     1     -11.550   7.034  69.912  1.00  0.00    -0.179 A  
HETATM   18  C   UNL     1      -8.996   4.788  68.206  1.00  0.00    -0.132 C  
HETATM   19  C   UNL     1     -12.129   6.982  71.181  1.00  0.00    -0.412 A  
HETATM   20  C   UNL     1      -9.869   4.336  67.039  1.00  0.00    -0.216 C  
HETATM   21  C   UNL     1      -9.170   4.509  65.695  1.00  0.00    -0.149 C  
HETATM   22  C   UNL     1     -11.339   7.142  72.312  1.00  0.00    -0.303 A  
HETATM   23  C   UNL     1      -9.970   7.351  72.178  1.00  0.00    -0.203 A  
HETATM   24  C   UNL     1      -8.572   5.895  65.499  1.00  0.00    -0.150 C  
HETATM   25  C   UNL     1      -7.753   6.360  66.701  1.00  0.00    -0.099 C  
HETATM   26  C   UNL     1      -9.388   7.400  70.911  1.00  0.00    -0.155 A  
ENDBRANCH   9  10
ENDBRANCH   8   9
ENDBRANCH   7   8
ENDBRANCH   3   7
ENDBRANCH   2   3
TORSDOF 6
ENDMDL
MODEL      180
REMARK 921   NORMALIZED FREE ENERGY PREDICTED BY IDOCK:   -2.76 KCAL/MOL
REMARK 922        TOTAL FREE ENERGY PREDICTED BY IDOCK:   -4.63 KCAL/MOL
REMARK 923 INTER-LIGAND FREE ENERGY PREDICTED BY IDOCK:   -4.00 KCAL/MOL
REMARK 924 INTRA-LIGAND FREE ENERGY PREDICTED BY IDOCK:   -0.64 KCAL/MOL
REMARK 927      BINDING AFFINITY PREDICTED BY RF-SCORE:    0.00 PKD
ROOT
HETATM    1  C   UNL     1     -13.881   8.890  72.099  1.00  0.00    -0.531 C  
HETATM    2  C   UNL     1     -12.623   9.130  71.283  1.00  0.00    -0.288 C  
ENDROOT
BRANCH   2   3
HETATM    3  N   UNL     1     -11.574   7.986  71.358  1.00  0.00    -0.260 N  
HETATM    4  C   UNL     1     -10.664   8.227  72.576  1.00  0.00    -0.341 C  
BRANCH   3   5
HETATM    5  C   UNL     1     -12.217   6.593  71.497  1.00  0.00    -0.340 C  
HETATM    6  C   UNL     1     -11.327   5.574  72.193  1.00  0.00    -0.214 C  
ENDBRANCH   3   5
BRANCH   3   7
HETATM    7  C   UNL     1     -10.729   8.104  70.072  1.00  0.00    -0.243 C  
BRANCH   7   8
HETATM    8  C   UNL     1      -9.351   8.753  70.231  1.00  0.00    -0.174 C  
BRANCH   8   9
HETATM    9  O   UNL     1      -9.137   9.490  69.018  1.00  0.00    -0.136 OA 
BRANCH   9  10
HETATM   10  C   UNL     1      -7.860   9.477  68.522  1.00  0.00    -0.085 C  
HETATM   11  O   UNL     1      -6.953  10.166  68.965  1.00  0.00    -0.053 OA 
HETATM   12  C   UNL     1      -7.803   8.577  67.245  1.00  0.00    -0.098 C  
HETATM   13  C   UNL     1      -7.185   7.233  67.638  1.00  0.00    -0.091 A  
HETATM   14  O   UNL     1      -9.137   8.333  66.773  1.00  0.00    -0.140 OA 
HETATM   15  C   UNL     1      -7.000   9.341  66.133  1.00  0.00    -0.086 C  
HETATM   16  H   UNL     1      -9.103   7.786  65.997  1.00  0.00     0.000 HD 
HETATM   17  C   UNL     1      -7.887   6.025  67.460  1.00  0.00    -0.098 A  
HETATM   18  C   UNL     1      -6.822   8.550  64.821  1.00  0.00    -0.072 C  
HETATM   19  C   UNL     1      -7.335   4.804  67.851  1.00  0.00    -0.070 A  
HETATM   20  C   UNL     1      -8.078   8.484  63.958  1.00  0.00    -0.156 C  
HETATM   21  C   UNL     1      -8.643   9.868  63.656  1.00  0.00    -0.203 C  
HETATM   22  C   UNL     1      -6.072   4.766  68.428  1.00  0.00    -0.031 A  
HETATM   23  C   UNL     1      -5.357   5.945  68.611  1.00  0.00    -0.007 A  
HETATM   24  C   UNL     1      -8.808  10.738  64.894  1.00  0.00    -0.176 C  
HETATM   25  C   UNL     1      -7.565  10.743  65.781  1.00  0.00    -0.079 C  
HETATM   26  C   UNL     1      -5.905   7.167  68.218  1.00  0.00    -0.022 A  
ENDBRANCH   9  10
ENDBRANCH   8   9
ENDBRANCH   7   8
ENDBRANCH   3   7
ENDBRANCH   2   3
TORSDOF 6
ENDMDL
MODEL      181
REMARK 921   NORMALIZED FREE ENERGY PREDICTED BY IDOCK:   -2.75 KCAL/MOL
REMARK 922        TOTAL FREE ENERGY PREDICTED BY IDOCK:   -4.62 KCAL/MOL
REMARK 923 INTER-LIGAND FREE ENERGY PREDICTED BY IDOCK:   -4.11 KCAL/MOL
REMARK 924 INTRA-LIGAND FREE ENERGY PREDICTED BY IDOCK:   -0.51 KCAL/MOL
REMARK 927      BINDING AFFINITY PREDICTED BY RF-SCORE:    0.00 PKD
ROOT
HETATM    1  C   UNL     1      -8.797   2.104  65.666  1.00  0.00    -0.121 C  
HETATM    2  C   UNL     1      -8.013   2.431  64.407  1.00  0.00    -0.077 C  
ENDROOT
BRANCH   2   3
HETATM    3  N   UNL     1      -8.498   3.700  63.654  1.00  0.00    -0.090 N  
HETATM    4  C   UNL     1      -7.301   4.328  62.916  1.00  0.00    -0.049 C  
BRANCH   3   5
HETATM    5  C   UNL     1      -9.602   3.398  62.622  1.00  0.00    -0.098 C  
HETATM    6  C   UNL     1     -11.005   3.390  63.211  1.00  0.00    -0.103 C  
ENDBRANCH   3   5
BRANCH   3   7
HETATM    7  C   UNL     1      -8.982   4.679  64.744  1.00  0.00    -0.153 C  
BRANCH   7   8
HETATM    8  C   UNL     1      -7.951   5.698  65.237  1.00  0.00    -0.114 C  
BRANCH   8   9
HETATM    9  O   UNL     1      -8.719   6.783  65.780  1.00  0.00    -0.153 OA 
BRANCH   9  10
HETATM   10  C   UNL     1      -8.144   7.469  66.816  1.00  0.00    -0.123 C  
HETATM   11  O   UNL     1      -6.938   7.523  67.008  1.00  0.00    -0.077 OA 
HETATM   12  C   UNL     1      -9.260   8.024  67.760  1.00  0.00    -0.134 C  
HETATM   13  C   UNL     1      -9.437   9.515  67.462  1.00  0.00    -0.155 A  
HETATM   14  O   UNL     1     -10.501   7.361  67.474  1.00  0.00    -0.222 OA 
HETATM   15  C   UNL     1      -8.851   7.721  69.246  1.00  0.00    -0.139 C  
HETATM   16  H   UNL     1     -11.179   7.698  68.047  1.00  0.00     0.000 HD 
HETATM   17  C   UNL     1     -10.677  10.034  67.041  1.00  0.00    -0.248 A  
HETATM   18  C   UNL     1      -9.843   8.255  70.299  1.00  0.00    -0.186 C  
HETATM   19  C   UNL     1     -10.828  11.388  66.737  1.00  0.00    -0.336 A  
HETATM   20  C   UNL     1     -11.125   7.437  70.419  1.00  0.00    -0.284 C  
HETATM   21  C   UNL     1     -10.845   5.960  70.673  1.00  0.00    -0.363 C  
HETATM   22  C   UNL     1      -9.743  12.248  66.845  1.00  0.00    -0.217 A  
HETATM   23  C   UNL     1      -8.509  11.760  67.262  1.00  0.00    -0.160 A  
HETATM   24  C   UNL     1      -9.836   5.360  69.704  1.00  0.00    -0.261 C  
HETATM   25  C   UNL     1      -8.585   6.222  69.546  1.00  0.00    -0.132 C  
HETATM   26  C   UNL     1      -8.356  10.408  67.571  1.00  0.00    -0.114 A  
ENDBRANCH   9  10
ENDBRANCH   8   9
ENDBRANCH   7   8
ENDBRANCH   3   7
ENDBRANCH   2   3
TORSDOF 6
ENDMDL
MODEL      182
REMARK 921   NORMALIZED FREE ENERGY PREDICTED BY IDOCK:   -2.75 KCAL/MOL
REMARK 922        TOTAL FREE ENERGY PREDICTED BY IDOCK:   -4.61 KCAL/MOL
REMARK 923 INTER-LIGAND FREE ENERGY PREDICTED BY IDOCK:   -3.84 KCAL/MOL
REMARK 924 INTRA-LIGAND FREE ENERGY PREDICTED BY IDOCK:   -0.78 KCAL/MOL
REMARK 927      BINDING AFFINITY PREDICTED BY RF-SCORE:    0.00 PKD
ROOT
HETATM    1  C   UNL     1     -11.031   5.636  73.259  1.00  0.00    -0.316 C  
HETATM    2  C   UNL     1     -11.725   6.299  72.082  1.00  0.00    -0.319 C  
ENDROOT
BRANCH   2   3
HETATM    3  N   UNL     1     -11.044   7.602  71.579  1.00  0.00    -0.234 N  
HETATM    4  C   UNL     1     -12.112   8.706  71.461  1.00  0.00    -0.316 C  
BRANCH   3   5
HETATM    5  C   UNL     1      -9.932   8.099  72.523  1.00  0.00    -0.302 C  
HETATM    6  C   UNL     1      -8.662   8.524  71.801  1.00  0.00    -0.266 C  
ENDBRANCH   3   5
BRANCH   3   7
HETATM    7  C   UNL     1     -10.503   7.279  70.171  1.00  0.00    -0.218 C  
BRANCH   7   8
HETATM    8  C   UNL     1     -11.411   6.426  69.281  1.00  0.00    -0.338 C  
BRANCH   8   9
HETATM    9  O   UNL     1     -10.621   6.108  68.126  1.00  0.00    -0.206 OA 
BRANCH   9  10
HETATM   10  C   UNL     1      -9.867   4.968  68.206  1.00  0.00    -0.150 C  
HETATM   11  O   UNL     1     -10.148   4.017  68.921  1.00  0.00     0.046 OA 
HETATM   12  C   UNL     1      -8.556   5.147  67.374  1.00  0.00    -0.104 C  
HETATM   13  C   UNL     1      -8.728   4.402  66.048  1.00  0.00    -0.114 A  
HETATM   14  O   UNL     1      -8.362   6.539  67.081  1.00  0.00    -0.112 OA 
HETATM   15  C   UNL     1      -7.346   4.634  68.234  1.00  0.00    -0.065 C  
HETATM   16  H   UNL     1      -7.566   6.649  66.575  1.00  0.00     0.000 HD 
HETATM   17  C   UNL     1      -8.632   5.073  64.813  1.00  0.00    -0.150 A  
HETATM   18  C   UNL     1      -5.982   4.707  67.518  1.00  0.00    -0.023 C  
HETATM   19  C   UNL     1      -8.825   4.399  63.607  1.00  0.00    -0.139 A  
HETATM   20  C   UNL     1      -5.401   6.115  67.426  1.00  0.00    -0.005 C  
HETATM   21  C   UNL     1      -5.307   6.790  68.791  1.00  0.00    -0.016 C  
HETATM   22  C   UNL     1      -9.118   3.041  63.610  1.00  0.00    -0.096 A  
HETATM   23  C   UNL     1      -9.215   2.355  64.816  1.00  0.00    -0.139 A  
HETATM   24  C   UNL     1      -6.602   6.723  69.588  1.00  0.00    -0.048 C  
HETATM   25  C   UNL     1      -7.205   5.320  69.618  1.00  0.00    -0.060 C  
HETATM   26  C   UNL     1      -9.020   3.026  66.024  1.00  0.00    -0.147 A  
ENDBRANCH   9  10
ENDBRANCH   8   9
ENDBRANCH   7   8
ENDBRANCH   3   7
ENDBRANCH   2   3
TORSDOF 6
ENDMDL
MODEL      183
REMARK 921   NORMALIZED FREE ENERGY PREDICTED BY IDOCK:   -2.75 KCAL/MOL
REMARK 922        TOTAL FREE ENERGY PREDICTED BY IDOCK:   -4.61 KCAL/MOL
REMARK 923 INTER-LIGAND FREE ENERGY PREDICTED BY IDOCK:   -4.08 KCAL/MOL
REMARK 924 INTRA-LIGAND FREE ENERGY PREDICTED BY IDOCK:   -0.53 KCAL/MOL
REMARK 927      BINDING AFFINITY PREDICTED BY RF-SCORE:    0.00 PKD
ROOT
HETATM    1  C   UNL     1     -12.129  10.252  71.346  1.00  0.00    -0.457 C  
HETATM    2  C   UNL     1     -11.204   9.107  70.970  1.00  0.00    -0.312 C  
ENDROOT
BRANCH   2   3
HETATM    3  N   UNL     1     -11.655   7.714  71.488  1.00  0.00    -0.266 N  
HETATM    4  C   UNL     1     -10.540   7.129  72.374  1.00  0.00    -0.226 C  
BRANCH   3   5
HETATM    5  C   UNL     1     -12.954   7.774  72.316  1.00  0.00    -0.044 C  
HETATM    6  C   UNL     1     -14.178   7.265  71.571  1.00  0.00    -0.540 C  
ENDBRANCH   3   5
BRANCH   3   7
HETATM    7  C   UNL     1     -11.812   6.829  70.234  1.00  0.00    -0.301 C  
BRANCH   7   8
HETATM    8  C   UNL     1     -10.590   5.992  69.844  1.00  0.00    -0.279 C  
BRANCH   8   9
HETATM    9  O   UNL     1     -10.372   6.265  68.452  1.00  0.00    -0.161 OA 
BRANCH   9  10
HETATM   10  C   UNL     1      -9.224   5.750  67.910  1.00  0.00    -0.108 C  
HETATM   11  O   UNL     1      -9.056   4.560  67.683  1.00  0.00    -0.111 OA 
HETATM   12  C   UNL     1      -8.154   6.880  67.777  1.00  0.00    -0.114 C  
HETATM   13  C   UNL     1      -8.111   7.326  66.313  1.00  0.00    -0.121 A  
HETATM   14  O   UNL     1      -8.547   8.007  68.575  1.00  0.00    -0.127 OA 
HETATM   15  C   UNL     1      -6.782   6.333  68.311  1.00  0.00    -0.068 C  
HETATM   16  H   UNL     1      -7.897   8.695  68.494  1.00  0.00     0.000 HD 
HETATM   17  C   UNL     1      -8.376   8.660  65.946  1.00  0.00    -0.140 A  
HETATM   18  C   UNL     1      -5.612   7.331  68.198  1.00  0.00    -0.022 C  
HETATM   19  C   UNL     1      -8.371   9.056  64.608  1.00  0.00    -0.180 A  
HETATM   20  C   UNL     1      -5.642   8.447  69.238  1.00  0.00    -0.031 C  
HETATM   21  C   UNL     1      -5.727   7.905  70.662  1.00  0.00    -0.029 C  
HETATM   22  C   UNL     1      -8.103   8.128  63.610  1.00  0.00    -0.115 A  
HETATM   23  C   UNL     1      -7.836   6.804  63.947  1.00  0.00    -0.106 A  
HETATM   24  C   UNL     1      -6.830   6.873  70.852  1.00  0.00    -0.055 C  
HETATM   25  C   UNL     1      -6.826   5.799  69.766  1.00  0.00    -0.061 C  
HETATM   26  C   UNL     1      -7.836   6.406  65.285  1.00  0.00    -0.108 A  
ENDBRANCH   9  10
ENDBRANCH   8   9
ENDBRANCH   7   8
ENDBRANCH   3   7
ENDBRANCH   2   3
TORSDOF 6
ENDMDL
MODEL      184
REMARK 921   NORMALIZED FREE ENERGY PREDICTED BY IDOCK:   -2.75 KCAL/MOL
REMARK 922        TOTAL FREE ENERGY PREDICTED BY IDOCK:   -4.61 KCAL/MOL
REMARK 923 INTER-LIGAND FREE ENERGY PREDICTED BY IDOCK:   -4.72 KCAL/MOL
REMARK 924 INTRA-LIGAND FREE ENERGY PREDICTED BY IDOCK:    0.11 KCAL/MOL
REMARK 927      BINDING AFFINITY PREDICTED BY RF-SCORE:    0.00 PKD
ROOT
HETATM    1  C   UNL     1      -8.241   4.506  64.504  1.00  0.00    -0.107 C  
HETATM    2  C   UNL     1      -8.489   5.879  65.106  1.00  0.00    -0.130 C  
ENDROOT
BRANCH   2   3
HETATM    3  N   UNL     1      -9.227   5.862  66.473  1.00  0.00    -0.142 N  
HETATM    4  C   UNL     1     -10.347   4.808  66.420  1.00  0.00    -0.273 C  
BRANCH   3   5
HETATM    5  C   UNL     1      -8.294   5.523  67.652  1.00  0.00    -0.100 C  
HETATM    6  C   UNL     1      -8.619   4.200  68.329  1.00  0.00    -0.110 C  
ENDBRANCH   3   5
BRANCH   3   7
HETATM    7  C   UNL     1      -9.863   7.260  66.626  1.00  0.00    -0.187 C  
BRANCH   7   8
HETATM    8  C   UNL     1      -9.659   7.947  67.979  1.00  0.00    -0.151 C  
BRANCH   8   9
HETATM    9  O   UNL     1     -10.326   9.213  67.865  1.00  0.00    -0.207 OA 
BRANCH   9  10
HETATM   10  C   UNL     1      -9.830  10.073  66.920  1.00  0.00    -0.197 C  
HETATM   11  O   UNL     1      -9.787   9.817  65.726  1.00  0.00    -0.260 OA 
HETATM   12  C   UNL     1      -9.214  11.326  67.624  1.00  0.00    -0.156 C  
HETATM   13  C   UNL     1     -10.213  12.479  67.500  1.00  0.00    -0.219 A  
HETATM   14  O   UNL     1      -9.026  11.046  69.019  1.00  0.00    -0.298 OA 
HETATM   15  C   UNL     1      -7.818  11.627  66.971  1.00  0.00    -0.164 C  
HETATM   16  H   UNL     1      -8.652  11.807  69.447  1.00  0.00     0.000 HD 
HETATM   17  C   UNL     1     -10.741  13.115  68.641  1.00  0.00    -0.274 A  
HETATM   18  C   UNL     1      -7.108  12.873  67.537  1.00  0.00    -0.153 C  
HETATM   19  C   UNL     1     -11.678  14.143  68.527  1.00  0.00    -0.380 A  
HETATM   20  C   UNL     1      -6.489  12.666  68.916  1.00  0.00    -0.091 C  
HETATM   21  C   UNL     1      -5.543  11.470  68.950  1.00  0.00    -0.046 C  
HETATM   22  C   UNL     1     -12.107  14.555  67.272  1.00  0.00    -0.298 A  
HETATM   23  C   UNL     1     -11.598  13.945  66.129  1.00  0.00    -0.371 A  
HETATM   24  C   UNL     1      -6.149  10.202  68.364  1.00  0.00    -0.044 C  
HETATM   25  C   UNL     1      -6.820  10.439  67.012  1.00  0.00    -0.085 C  
HETATM   26  C   UNL     1     -10.658  12.919  66.241  1.00  0.00    -0.281 A  
ENDBRANCH   9  10
ENDBRANCH   8   9
ENDBRANCH   7   8
ENDBRANCH   3   7
ENDBRANCH   2   3
TORSDOF 6
ENDMDL
MODEL      185
REMARK 921   NORMALIZED FREE ENERGY PREDICTED BY IDOCK:   -2.74 KCAL/MOL
REMARK 922        TOTAL FREE ENERGY PREDICTED BY IDOCK:   -4.61 KCAL/MOL
REMARK 923 INTER-LIGAND FREE ENERGY PREDICTED BY IDOCK:   -4.78 KCAL/MOL
REMARK 924 INTRA-LIGAND FREE ENERGY PREDICTED BY IDOCK:    0.17 KCAL/MOL
REMARK 927      BINDING AFFINITY PREDICTED BY RF-SCORE:    0.00 PKD
ROOT
HETATM    1  C   UNL     1      -9.690  15.228  65.562  1.00  0.00    -0.313 C  
HETATM    2  C   UNL     1     -10.632  14.262  64.864  1.00  0.00    -0.431 C  
ENDROOT
BRANCH   2   3
HETATM    3  N   UNL     1     -11.465  13.365  65.821  1.00  0.00    -0.314 N  
HETATM    4  C   UNL     1     -12.486  14.246  66.564  1.00  0.00    -0.207 C  
BRANCH   3   5
HETATM    5  C   UNL     1     -12.229  12.250  65.082  1.00  0.00    -0.276 C  
HETATM    6  C   UNL     1     -12.093  12.314  63.568  1.00  0.00    -0.649 C  
ENDBRANCH   3   5
BRANCH   3   7
HETATM    7  C   UNL     1     -10.460  12.794  66.844  1.00  0.00    -0.240 C  
BRANCH   7   8
HETATM    8  C   UNL     1     -11.040  12.392  68.203  1.00  0.00    -0.247 C  
BRANCH   8   9
HETATM    9  O   UNL     1     -10.207  11.321  68.670  1.00  0.00    -0.191 OA 
BRANCH   9  10
HETATM   10  C   UNL     1      -8.872  11.426  68.379  1.00  0.00    -0.167 C  
HETATM   11  O   UNL     1      -8.294  12.490  68.218  1.00  0.00    -0.166 OA 
HETATM   12  C   UNL     1      -8.273  10.000  68.148  1.00  0.00    -0.109 C  
HETATM   13  C   UNL     1      -7.507   9.597  69.411  1.00  0.00    -0.093 A  
HETATM   14  O   UNL     1      -9.340   9.060  67.954  1.00  0.00    -0.140 OA 
HETATM   15  C   UNL     1      -7.383  10.037  66.855  1.00  0.00    -0.092 C  
HETATM   16  H   UNL     1      -8.976   8.193  67.814  1.00  0.00     0.000 HD 
HETATM   17  C   UNL     1      -7.853   8.440  70.137  1.00  0.00    -0.102 A  
HETATM   18  C   UNL     1      -6.685   8.702  66.526  1.00  0.00    -0.071 C  
HETATM   19  C   UNL     1      -7.176   8.093  71.307  1.00  0.00    -0.066 A  
HETATM   20  C   UNL     1      -7.611   7.644  65.935  1.00  0.00    -0.091 C  
HETATM   21  C   UNL     1      -8.360   8.153  64.708  1.00  0.00    -0.113 C  
HETATM   22  C   UNL     1      -6.142   8.894  71.775  1.00  0.00    -0.073 A  
HETATM   23  C   UNL     1      -5.780  10.040  71.074  1.00  0.00    -0.083 A  
HETATM   24  C   UNL     1      -9.043   9.495  64.930  1.00  0.00    -0.276 C  
HETATM   25  C   UNL     1      -8.122  10.525  65.581  1.00  0.00    -0.161 C  
HETATM   26  C   UNL     1      -6.453  10.387  69.901  1.00  0.00    -0.109 A  
ENDBRANCH   9  10
ENDBRANCH   8   9
ENDBRANCH   7   8
ENDBRANCH   3   7
ENDBRANCH   2   3
TORSDOF 6
ENDMDL
MODEL      186
REMARK 921   NORMALIZED FREE ENERGY PREDICTED BY IDOCK:   -2.72 KCAL/MOL
REMARK 922        TOTAL FREE ENERGY PREDICTED BY IDOCK:   -4.57 KCAL/MOL
REMARK 923 INTER-LIGAND FREE ENERGY PREDICTED BY IDOCK:   -4.60 KCAL/MOL
REMARK 924 INTRA-LIGAND FREE ENERGY PREDICTED BY IDOCK:    0.03 KCAL/MOL
REMARK 927      BINDING AFFINITY PREDICTED BY RF-SCORE:    0.00 PKD
ROOT
HETATM    1  C   UNL     1     -11.452  11.697  66.865  1.00  0.00    -0.320 C  
HETATM    2  C   UNL     1     -10.052  11.429  66.341  1.00  0.00    -0.218 C  
ENDROOT
BRANCH   2   3
HETATM    3  N   UNL     1      -9.036  10.956  67.417  1.00  0.00    -0.140 N  
HETATM    4  C   UNL     1      -7.821  10.328  66.710  1.00  0.00    -0.114 C  
BRANCH   3   5
HETATM    5  C   UNL     1      -8.538  12.105  68.316  1.00  0.00    -0.175 C  
HETATM    6  C   UNL     1      -8.519  13.460  67.624  1.00  0.00    -0.187 C  
ENDBRANCH   3   5
BRANCH   3   7
HETATM    7  C   UNL     1      -9.762   9.863  68.229  1.00  0.00    -0.144 C  
BRANCH   7   8
HETATM    8  C   UNL     1      -9.885   8.494  67.553  1.00  0.00    -0.177 C  
BRANCH   8   9
HETATM    9  O   UNL     1      -8.779   7.726  68.048  1.00  0.00    -0.126 OA 
BRANCH   9  10
HETATM   10  C   UNL     1      -8.552   7.795  69.397  1.00  0.00    -0.135 C  
HETATM   11  O   UNL     1      -7.750   8.561  69.912  1.00  0.00    -0.086 OA 
HETATM   12  C   UNL     1      -9.353   6.665  70.122  1.00  0.00    -0.158 C  
HETATM   13  C   UNL     1     -10.597   7.295  70.753  1.00  0.00    -0.237 A  
HETATM   14  O   UNL     1      -9.785   5.693  69.158  1.00  0.00    -0.131 OA 
HETATM   15  C   UNL     1      -8.402   5.968  71.159  1.00  0.00    -0.124 C  
HETATM   16  H   UNL     1     -10.272   5.006  69.599  1.00  0.00     0.000 HD 
HETATM   17  C   UNL     1     -11.892   6.862  70.406  1.00  0.00    -0.351 A  
HETATM   18  C   UNL     1      -9.074   4.855  71.988  1.00  0.00    -0.156 C  
HETATM   19  C   UNL     1     -13.026   7.461  70.956  1.00  0.00    -0.204 A  
HETATM   20  C   UNL     1      -9.294   3.554  71.222  1.00  0.00    -0.209 C  
HETATM   21  C   UNL     1      -8.007   3.029  70.595  1.00  0.00    -0.052 C  
HETATM   22  C   UNL     1     -12.889   8.503  71.863  1.00  0.00    -0.399 A  
HETATM   23  C   UNL     1     -11.621   8.947  72.225  1.00  0.00    -0.332 A  
HETATM   24  C   UNL     1      -7.252   4.080  69.794  1.00  0.00    -0.042 C  
HETATM   25  C   UNL     1      -7.094   5.398  70.550  1.00  0.00    -0.061 C  
HETATM   26  C   UNL     1     -10.485   8.348  71.679  1.00  0.00    -0.321 A  
ENDBRANCH   9  10
ENDBRANCH   8   9
ENDBRANCH   7   8
ENDBRANCH   3   7
ENDBRANCH   2   3
TORSDOF 6
ENDMDL
MODEL      187
REMARK 921   NORMALIZED FREE ENERGY PREDICTED BY IDOCK:   -2.71 KCAL/MOL
REMARK 922        TOTAL FREE ENERGY PREDICTED BY IDOCK:   -4.57 KCAL/MOL
REMARK 923 INTER-LIGAND FREE ENERGY PREDICTED BY IDOCK:   -3.62 KCAL/MOL
REMARK 924 INTRA-LIGAND FREE ENERGY PREDICTED BY IDOCK:   -0.95 KCAL/MOL
REMARK 927      BINDING AFFINITY PREDICTED BY RF-SCORE:    0.00 PKD
ROOT
HETATM    1  C   UNL     1      -7.877   6.799  63.040  1.00  0.00    -0.105 C  
HETATM    2  C   UNL     1      -7.758   8.276  63.374  1.00  0.00    -0.142 C  
ENDROOT
BRANCH   2   3
HETATM    3  N   UNL     1      -7.553   8.584  64.883  1.00  0.00    -0.093 N  
HETATM    4  C   UNL     1      -6.061   8.868  65.133  1.00  0.00    -0.060 C  
BRANCH   3   5
HETATM    5  C   UNL     1      -8.368   9.802  65.361  1.00  0.00    -0.139 C  
HETATM    6  C   UNL     1      -9.587  10.099  64.501  1.00  0.00    -0.376 C  
ENDBRANCH   3   5
BRANCH   3   7
HETATM    7  C   UNL     1      -7.949   7.296  65.634  1.00  0.00    -0.123 C  
BRANCH   7   8
HETATM    8  C   UNL     1      -6.812   6.553  66.340  1.00  0.00    -0.061 C  
BRANCH   8   9
HETATM    9  O   UNL     1      -7.395   6.013  67.535  1.00  0.00    -0.075 OA 
BRANCH   9  10
HETATM   10  C   UNL     1      -7.153   6.707  68.691  1.00  0.00    -0.083 C  
HETATM   11  O   UNL     1      -6.033   6.943  69.118  1.00  0.00    -0.018 OA 
HETATM   12  C   UNL     1      -8.505   7.000  69.419  1.00  0.00    -0.133 C  
HETATM   13  C   UNL     1      -8.881   8.460  69.152  1.00  0.00    -0.142 A  
HETATM   14  O   UNL     1      -9.535   6.166  68.868  1.00  0.00    -0.123 OA 
HETATM   15  C   UNL     1      -8.334   6.661  70.943  1.00  0.00    -0.125 C  
HETATM   16  H   UNL     1     -10.357   6.344  69.310  1.00  0.00     0.000 HD 
HETATM   17  C   UNL     1     -10.092   8.798  68.517  1.00  0.00    -0.210 A  
HETATM   18  C   UNL     1      -9.582   6.947  71.801  1.00  0.00    -0.162 C  
HETATM   19  C   UNL     1     -10.418  10.128  68.243  1.00  0.00    -0.244 A  
HETATM   20  C   UNL     1     -10.701   5.924  71.634  1.00  0.00    -0.308 C  
HETATM   21  C   UNL     1     -10.219   4.497  71.879  1.00  0.00    -0.241 C  
HETATM   22  C   UNL     1      -9.540  11.144  68.597  1.00  0.00    -0.200 A  
HETATM   23  C   UNL     1      -8.339  10.836  69.228  1.00  0.00    -0.072 A  
HETATM   24  C   UNL     1      -8.958   4.144  71.103  1.00  0.00    -0.168 C  
HETATM   25  C   UNL     1      -7.870   5.208  71.229  1.00  0.00    -0.106 C  
HETATM   26  C   UNL     1      -8.013   9.508  69.506  1.00  0.00    -0.110 A  
ENDBRANCH   9  10
ENDBRANCH   8   9
ENDBRANCH   7   8
ENDBRANCH   3   7
ENDBRANCH   2   3
TORSDOF 6
ENDMDL
MODEL      188
REMARK 921   NORMALIZED FREE ENERGY PREDICTED BY IDOCK:   -2.71 KCAL/MOL
REMARK 922        TOTAL FREE ENERGY PREDICTED BY IDOCK:   -4.56 KCAL/MOL
REMARK 923 INTER-LIGAND FREE ENERGY PREDICTED BY IDOCK:   -3.91 KCAL/MOL
REMARK 924 INTRA-LIGAND FREE ENERGY PREDICTED BY IDOCK:   -0.65 KCAL/MOL
REMARK 927      BINDING AFFINITY PREDICTED BY RF-SCORE:    0.00 PKD
ROOT
HETATM    1  C   UNL     1     -12.285   8.223  72.393  1.00  0.00    -0.412 C  
HETATM    2  C   UNL     1     -10.881   7.887  71.922  1.00  0.00    -0.243 C  
ENDROOT
BRANCH   2   3
HETATM    3  N   UNL     1     -10.427   6.433  72.224  1.00  0.00    -0.193 N  
HETATM    4  C   UNL     1      -9.222   6.478  73.182  1.00  0.00    -0.127 C  
BRANCH   3   5
HETATM    5  C   UNL     1     -11.536   5.583  72.875  1.00  0.00    -0.267 C  
HETATM    6  C   UNL     1     -11.094   4.172  73.236  1.00  0.00    -0.318 C  
ENDBRANCH   3   5
BRANCH   3   7
HETATM    7  C   UNL     1      -9.969   5.844  70.873  1.00  0.00    -0.187 C  
BRANCH   7   8
HETATM    8  C   UNL     1     -11.018   5.824  69.758  1.00  0.00    -0.327 C  
BRANCH   8   9
HETATM    9  O   UNL     1     -10.376   5.186  68.644  1.00  0.00    -0.154 OA 
BRANCH   9  10
HETATM   10  C   UNL     1     -10.069   5.994  67.582  1.00  0.00    -0.160 C  
HETATM   11  O   UNL     1     -10.841   6.813  67.107  1.00  0.00    -0.324 OA 
HETATM   12  C   UNL     1      -8.670   5.597  67.009  1.00  0.00    -0.108 C  
HETATM   13  C   UNL     1      -7.644   6.620  67.506  1.00  0.00    -0.105 A  
HETATM   14  O   UNL     1      -8.295   4.307  67.516  1.00  0.00    -0.099 OA 
HETATM   15  C   UNL     1      -8.776   5.519  65.444  1.00  0.00    -0.148 C  
HETATM   16  H   UNL     1      -7.444   4.066  67.168  1.00  0.00     0.000 HD 
HETATM   17  C   UNL     1      -6.531   6.226  68.274  1.00  0.00    -0.053 A  
HETATM   18  C   UNL     1      -7.450   5.180  64.733  1.00  0.00    -0.076 C  
HETATM   19  C   UNL     1      -5.617   7.163  68.756  1.00  0.00    -0.018 A  
HETATM   20  C   UNL     1      -7.043   3.713  64.841  1.00  0.00    -0.065 C  
HETATM   21  C   UNL     1      -8.144   2.772  64.363  1.00  0.00    -0.082 C  
HETATM   22  C   UNL     1      -5.797   8.513  68.481  1.00  0.00    -0.041 A  
HETATM   23  C   UNL     1      -6.887   8.927  67.722  1.00  0.00    -0.070 A  
HETATM   24  C   UNL     1      -9.503   3.068  64.981  1.00  0.00    -0.121 C  
HETATM   25  C   UNL     1      -9.869   4.549  64.922  1.00  0.00    -0.096 C  
HETATM   26  C   UNL     1      -7.801   7.991  67.236  1.00  0.00    -0.109 A  
ENDBRANCH   9  10
ENDBRANCH   8   9
ENDBRANCH   7   8
ENDBRANCH   3   7
ENDBRANCH   2   3
TORSDOF 6
ENDMDL
MODEL      189
REMARK 921   NORMALIZED FREE ENERGY PREDICTED BY IDOCK:   -2.69 KCAL/MOL
REMARK 922        TOTAL FREE ENERGY PREDICTED BY IDOCK:   -4.53 KCAL/MOL
REMARK 923 INTER-LIGAND FREE ENERGY PREDICTED BY IDOCK:   -4.14 KCAL/MOL
REMARK 924 INTRA-LIGAND FREE ENERGY PREDICTED BY IDOCK:   -0.40 KCAL/MOL
REMARK 927      BINDING AFFINITY PREDICTED BY RF-SCORE:    0.00 PKD
ROOT
HETATM    1  C   UNL     1      -9.926   6.630  72.935  1.00  0.00    -0.187 C  
HETATM    2  C   UNL     1     -10.885   7.791  73.142  1.00  0.00    -0.339 C  
ENDROOT
BRANCH   2   3
HETATM    3  N   UNL     1     -11.809   8.091  71.930  1.00  0.00    -0.290 N  
HETATM    4  C   UNL     1     -12.490   6.783  71.489  1.00  0.00    -0.341 C  
BRANCH   3   5
HETATM    5  C   UNL     1     -12.904   9.126  72.254  1.00  0.00    -0.401 C  
HETATM    6  C   UNL     1     -14.318   8.576  72.141  1.00  0.00    -0.529 C  
ENDBRANCH   3   5
BRANCH   3   7
HETATM    7  C   UNL     1     -10.876   8.575  70.800  1.00  0.00    -0.231 C  
BRANCH   7   8
HETATM    8  C   UNL     1     -10.891   7.743  69.514  1.00  0.00    -0.153 C  
BRANCH   8   9
HETATM    9  O   UNL     1     -10.472   8.642  68.476  1.00  0.00    -0.209 OA 
BRANCH   9  10
HETATM   10  C   UNL     1      -9.178   9.085  68.549  1.00  0.00    -0.136 C  
HETATM   11  O   UNL     1      -8.863  10.190  68.967  1.00  0.00    -0.145 OA 
HETATM   12  C   UNL     1      -8.226   8.036  67.890  1.00  0.00    -0.129 C  
HETATM   13  C   UNL     1      -7.544   7.244  69.009  1.00  0.00    -0.099 A  
HETATM   14  O   UNL     1      -8.999   7.118  67.102  1.00  0.00    -0.122 OA 
HETATM   15  C   UNL     1      -7.222   8.794  66.951  1.00  0.00    -0.079 C  
HETATM   16  H   UNL     1      -8.421   6.480  66.701  1.00  0.00     0.000 HD 
HETATM   17  C   UNL     1      -7.682   5.845  69.104  1.00  0.00    -0.091 A  
HETATM   18  C   UNL     1      -6.184   7.884  66.263  1.00  0.00    -0.046 C  
HETATM   19  C   UNL     1      -7.088   5.130  70.145  1.00  0.00    -0.054 A  
HETATM   20  C   UNL     1      -6.745   7.064  65.105  1.00  0.00    -0.047 C  
HETATM   21  C   UNL     1      -7.441   7.935  64.065  1.00  0.00    -0.109 C  
HETATM   22  C   UNL     1      -6.346   5.797  71.111  1.00  0.00    -0.039 A  
HETATM   23  C   UNL     1      -6.192   7.178  71.037  1.00  0.00    -0.036 A  
HETATM   24  C   UNL     1      -8.453   8.901  64.665  1.00  0.00    -0.185 C  
HETATM   25  C   UNL     1      -7.897   9.670  65.862  1.00  0.00    -0.102 C  
HETATM   26  C   UNL     1      -6.782   7.895  69.995  1.00  0.00    -0.041 A  
ENDBRANCH   9  10
ENDBRANCH   8   9
ENDBRANCH   7   8
ENDBRANCH   3   7
ENDBRANCH   2   3
TORSDOF 6
ENDMDL
MODEL      190
REMARK 921   NORMALIZED FREE ENERGY PREDICTED BY IDOCK:   -2.67 KCAL/MOL
REMARK 922        TOTAL FREE ENERGY PREDICTED BY IDOCK:   -4.51 KCAL/MOL
REMARK 923 INTER-LIGAND FREE ENERGY PREDICTED BY IDOCK:   -3.88 KCAL/MOL
REMARK 924 INTRA-LIGAND FREE ENERGY PREDICTED BY IDOCK:   -0.63 KCAL/MOL
REMARK 927      BINDING AFFINITY PREDICTED BY RF-SCORE:    0.00 PKD
ROOT
HETATM    1  C   UNL     1      -9.410   7.968  72.787  1.00  0.00    -0.330 C  
HETATM    2  C   UNL     1     -10.860   7.703  73.153  1.00  0.00    -0.382 C  
ENDROOT
BRANCH   2   3
HETATM    3  N   UNL     1     -11.749   7.224  71.973  1.00  0.00    -0.284 N  
HETATM    4  C   UNL     1     -12.364   5.860  72.336  1.00  0.00     0.096 C  
BRANCH   3   5
HETATM    5  C   UNL     1     -12.893   8.204  71.649  1.00  0.00    -0.326 C  
HETATM    6  C   UNL     1     -14.267   7.552  71.618  1.00  0.00    -0.592 C  
ENDBRANCH   3   5
BRANCH   3   7
HETATM    7  C   UNL     1     -10.794   7.038  70.775  1.00  0.00    -0.246 C  
BRANCH   7   8
HETATM    8  C   UNL     1     -11.187   7.761  69.483  1.00  0.00     0.114 C  
BRANCH   8   9
HETATM    9  O   UNL     1     -10.136   8.710  69.245  1.00  0.00    -0.190 OA 
BRANCH   9  10
HETATM   10  C   UNL     1      -9.750   8.865  67.940  1.00  0.00    -0.160 C  
HETATM   11  O   UNL     1     -10.483   9.295  67.062  1.00  0.00    -0.253 OA 
HETATM   12  C   UNL     1      -8.315   8.278  67.745  1.00  0.00    -0.128 C  
HETATM   13  C   UNL     1      -7.325   9.446  67.707  1.00  0.00    -0.083 A  
HETATM   14  O   UNL     1      -7.982   7.447  68.867  1.00  0.00    -0.121 OA 
HETATM   15  C   UNL     1      -8.307   7.402  66.442  1.00  0.00    -0.127 C  
HETATM   16  H   UNL     1      -7.109   7.091  68.749  1.00  0.00     0.000 HD 
HETATM   17  C   UNL     1      -6.272   9.542  68.638  1.00  0.00    -0.044 A  
HETATM   18  C   UNL     1      -6.934   6.791  66.094  1.00  0.00    -0.061 C  
HETATM   19  C   UNL     1      -5.392  10.625  68.624  1.00  0.00    -0.041 A  
HETATM   20  C   UNL     1      -6.541   5.605  66.970  1.00  0.00    -0.056 C  
HETATM   21  C   UNL     1      -7.607   4.514  66.976  1.00  0.00    -0.086 C  
HETATM   22  C   UNL     1      -5.547  11.633  67.681  1.00  0.00    -0.060 A  
HETATM   23  C   UNL     1      -6.577  11.559  66.749  1.00  0.00    -0.119 A  
HETATM   24  C   UNL     1      -9.007   5.039  67.265  1.00  0.00    -0.113 C  
HETATM   25  C   UNL     1      -9.362   6.265  66.427  1.00  0.00    -0.176 C  
HETATM   26  C   UNL     1      -7.457  10.475  66.759  1.00  0.00    -0.115 A  
ENDBRANCH   9  10
ENDBRANCH   8   9
ENDBRANCH   7   8
ENDBRANCH   3   7
ENDBRANCH   2   3
TORSDOF 6
ENDMDL
MODEL      191
REMARK 921   NORMALIZED FREE ENERGY PREDICTED BY IDOCK:   -2.65 KCAL/MOL
REMARK 922        TOTAL FREE ENERGY PREDICTED BY IDOCK:   -4.49 KCAL/MOL
REMARK 923 INTER-LIGAND FREE ENERGY PREDICTED BY IDOCK:   -3.97 KCAL/MOL
REMARK 924 INTRA-LIGAND FREE ENERGY PREDICTED BY IDOCK:   -0.51 KCAL/MOL
REMARK 927      BINDING AFFINITY PREDICTED BY RF-SCORE:    0.00 PKD
ROOT
HETATM    1  C   UNL     1      -5.633   6.220  65.087  1.00  0.00    -0.021 C  
HETATM    2  C   UNL     1      -6.771   5.230  65.271  1.00  0.00    -0.048 C  
ENDROOT
BRANCH   2   3
HETATM    3  N   UNL     1      -8.190   5.859  65.216  1.00  0.00    -0.136 N  
HETATM    4  C   UNL     1      -8.054   7.369  64.950  1.00  0.00    -0.114 C  
BRANCH   3   5
HETATM    5  C   UNL     1      -9.073   5.246  64.111  1.00  0.00     0.228 C  
HETATM    6  C   UNL     1      -8.284   4.650  62.956  1.00  0.00    -0.096 C  
ENDBRANCH   3   5
BRANCH   3   7
HETATM    7  C   UNL     1      -8.797   5.652  66.619  1.00  0.00    -0.119 C  
BRANCH   7   8
HETATM    8  C   UNL     1      -8.209   6.513  67.740  1.00  0.00    -0.115 C  
BRANCH   8   9
HETATM    9  O   UNL     1      -9.320   7.240  68.284  1.00  0.00    -0.136 OA 
BRANCH   9  10
HETATM   10  C   UNL     1      -9.011   8.352  69.021  1.00  0.00    -0.147 C  
HETATM   11  O   UNL     1      -8.428   9.326  68.568  1.00  0.00    -0.121 OA 
HETATM   12  C   UNL     1      -9.382   8.108  70.519  1.00  0.00    -0.155 C  
HETATM   13  C   UNL     1     -10.699   8.835  70.808  1.00  0.00    -0.277 A  
HETATM   14  O   UNL     1      -9.591   6.704  70.737  1.00  0.00    -0.174 OA 
HETATM   15  C   UNL     1      -8.185   8.590  71.415  1.00  0.00    -0.186 C  
HETATM   16  H   UNL     1      -9.816   6.555  71.648  1.00  0.00     0.000 HD 
HETATM   17  C   UNL     1     -11.835   8.137  71.263  1.00  0.00    -0.317 A  
HETATM   18  C   UNL     1      -8.430   8.452  72.931  1.00  0.00    -0.221 C  
HETATM   19  C   UNL     1     -13.043   8.796  71.491  1.00  0.00    -0.358 A  
HETATM   20  C   UNL     1      -8.324   7.022  73.451  1.00  0.00    -0.140 C  
HETATM   21  C   UNL     1      -6.997   6.369  73.078  1.00  0.00    -0.074 C  
HETATM   22  C   UNL     1     -13.141  10.163  71.270  1.00  0.00    -0.490 A  
HETATM   23  C   UNL     1     -12.033  10.875  70.823  1.00  0.00    -0.449 A  
HETATM   24  C   UNL     1      -6.653   6.500  71.601  1.00  0.00    -0.057 C  
HETATM   25  C   UNL     1      -6.824   7.925  71.080  1.00  0.00    -0.041 C  
HETATM   26  C   UNL     1     -10.821  10.219  70.597  1.00  0.00    -0.210 A  
ENDBRANCH   9  10
ENDBRANCH   8   9
ENDBRANCH   7   8
ENDBRANCH   3   7
ENDBRANCH   2   3
TORSDOF 6
ENDMDL
MODEL      192
REMARK 921   NORMALIZED FREE ENERGY PREDICTED BY IDOCK:   -2.64 KCAL/MOL
REMARK 922        TOTAL FREE ENERGY PREDICTED BY IDOCK:   -4.47 KCAL/MOL
REMARK 923 INTER-LIGAND FREE ENERGY PREDICTED BY IDOCK:   -3.78 KCAL/MOL
REMARK 924 INTRA-LIGAND FREE ENERGY PREDICTED BY IDOCK:   -0.69 KCAL/MOL
REMARK 927      BINDING AFFINITY PREDICTED BY RF-SCORE:    0.00 PKD
ROOT
HETATM    1  C   UNL     1     -10.063   5.611  67.677  1.00  0.00    -0.208 C  
HETATM    2  C   UNL     1      -8.666   5.059  67.451  1.00  0.00    -0.103 C  
ENDROOT
BRANCH   2   3
HETATM    3  N   UNL     1      -8.156   5.166  65.988  1.00  0.00    -0.107 N  
HETATM    4  C   UNL     1      -6.624   5.320  66.007  1.00  0.00    -0.048 C  
BRANCH   3   5
HETATM    5  C   UNL     1      -8.511   3.931  65.138  1.00  0.00    -0.112 C  
HETATM    6  C   UNL     1      -9.216   4.269  63.833  1.00  0.00    -0.143 C  
ENDBRANCH   3   5
BRANCH   3   7
HETATM    7  C   UNL     1      -8.780   6.457  65.418  1.00  0.00    -0.022 C  
BRANCH   7   8
HETATM    8  C   UNL     1      -7.806   7.600  65.118  1.00  0.00    -0.124 C  
BRANCH   8   9
HETATM    9  O   UNL     1      -8.582   8.801  65.236  1.00  0.00    -0.170 OA 
BRANCH   9  10
HETATM   10  C   UNL     1      -7.960   9.864  65.836  1.00  0.00    -0.115 C  
HETATM   11  O   UNL     1      -7.026  10.474  65.336  1.00  0.00    -0.133 OA 
HETATM   12  C   UNL     1      -8.529  10.057  67.279  1.00  0.00    -0.122 C  
HETATM   13  C   UNL     1      -9.514  11.228  67.249  1.00  0.00    -0.184 A  
HETATM   14  O   UNL     1      -9.248   8.878  67.670  1.00  0.00    -0.136 OA 
HETATM   15  C   UNL     1      -7.324  10.270  68.264  1.00  0.00    -0.085 C  
HETATM   16  H   UNL     1      -9.594   8.995  68.548  1.00  0.00     0.000 HD 
HETATM   17  C   UNL     1     -10.862  11.059  67.623  1.00  0.00    -0.306 A  
HETATM   18  C   UNL     1      -7.739  10.522  69.728  1.00  0.00    -0.079 C  
HETATM   19  C   UNL     1     -11.767  12.120  67.561  1.00  0.00    -0.385 A  
HETATM   20  C   UNL     1      -8.204   9.271  70.468  1.00  0.00    -0.219 C  
HETATM   21  C   UNL     1      -7.174   8.148  70.406  1.00  0.00    -0.048 C  
HETATM   22  C   UNL     1     -11.344  13.368  67.124  1.00  0.00    -0.344 A  
HETATM   23  C   UNL     1     -10.018  13.561  66.751  1.00  0.00    -0.269 A  
HETATM   24  C   UNL     1      -6.674   7.864  68.997  1.00  0.00    -0.049 C  
HETATM   25  C   UNL     1      -6.271   9.132  68.247  1.00  0.00    -0.054 C  
HETATM   26  C   UNL     1      -9.110  12.503  66.816  1.00  0.00    -0.214 A  
ENDBRANCH   9  10
ENDBRANCH   8   9
ENDBRANCH   7   8
ENDBRANCH   3   7
ENDBRANCH   2   3
TORSDOF 6
ENDMDL
MODEL      193
REMARK 921   NORMALIZED FREE ENERGY PREDICTED BY IDOCK:   -2.63 KCAL/MOL
REMARK 922        TOTAL FREE ENERGY PREDICTED BY IDOCK:   -4.45 KCAL/MOL
REMARK 923 INTER-LIGAND FREE ENERGY PREDICTED BY IDOCK:   -3.94 KCAL/MOL
REMARK 924 INTRA-LIGAND FREE ENERGY PREDICTED BY IDOCK:   -0.51 KCAL/MOL
REMARK 927      BINDING AFFINITY PREDICTED BY RF-SCORE:    0.00 PKD
ROOT
HETATM    1  C   UNL     1     -10.237   5.523  73.052  1.00  0.00    -0.214 C  
HETATM    2  C   UNL     1     -11.238   5.533  71.909  1.00  0.00    -0.119 C  
ENDROOT
BRANCH   2   3
HETATM    3  N   UNL     1     -11.630   6.948  71.403  1.00  0.00    -0.281 N  
HETATM    4  C   UNL     1     -13.161   7.092  71.469  1.00  0.00    -0.360 C  
BRANCH   3   5
HETATM    5  C   UNL     1     -10.997   8.079  72.237  1.00  0.00    -0.314 C  
HETATM    6  C   UNL     1     -10.006   8.932  71.460  1.00  0.00    -0.391 C  
ENDBRANCH   3   5
BRANCH   3   7
HETATM    7  C   UNL     1     -11.187   7.006  69.926  1.00  0.00    -0.246 C  
BRANCH   7   8
HETATM    8  C   UNL     1     -10.360   5.818  69.425  1.00  0.00    -0.262 C  
BRANCH   8   9
HETATM    9  O   UNL     1      -9.740   6.271  68.213  1.00  0.00    -0.119 OA 
BRANCH   9  10
HETATM   10  C   UNL     1      -9.811   5.417  67.144  1.00  0.00    -0.158 C  
HETATM   11  O   UNL     1     -10.850   5.142  66.563  1.00  0.00    -0.258 OA 
HETATM   12  C   UNL     1      -8.412   4.764  66.902  1.00  0.00    -0.105 C  
HETATM   13  C   UNL     1      -7.754   5.476  65.716  1.00  0.00    -0.088 A  
HETATM   14  O   UNL     1      -7.584   4.965  68.057  1.00  0.00    -0.080 OA 
HETATM   15  C   UNL     1      -8.613   3.222  66.681  1.00  0.00    -0.117 C  
HETATM   16  H   UNL     1      -6.733   4.568  67.911  1.00  0.00     0.000 HD 
HETATM   17  C   UNL     1      -6.514   6.130  65.853  1.00  0.00    -0.046 A  
HETATM   18  C   UNL     1      -7.313   2.448  66.382  1.00  0.00    -0.065 C  
HETATM   19  C   UNL     1      -5.933   6.808  64.780  1.00  0.00    -0.035 A  
HETATM   20  C   UNL     1      -6.428   2.221  67.604  1.00  0.00    -0.032 C  
HETATM   21  C   UNL     1      -7.183   1.547  68.745  1.00  0.00    -0.039 C  
HETATM   22  C   UNL     1      -6.579   6.845  63.551  1.00  0.00    -0.043 A  
HETATM   23  C   UNL     1      -7.803   6.204  63.390  1.00  0.00    -0.107 A  
HETATM   24  C   UNL     1      -8.507   2.221  69.076  1.00  0.00    -0.091 C  
HETATM   25  C   UNL     1      -9.354   2.500  67.836  1.00  0.00    -0.241 C  
HETATM   26  C   UNL     1      -8.385   5.522  64.460  1.00  0.00    -0.127 A  
ENDBRANCH   9  10
ENDBRANCH   8   9
ENDBRANCH   7   8
ENDBRANCH   3   7
ENDBRANCH   2   3
TORSDOF 6
ENDMDL
MODEL      194
REMARK 921   NORMALIZED FREE ENERGY PREDICTED BY IDOCK:   -2.61 KCAL/MOL
REMARK 922        TOTAL FREE ENERGY PREDICTED BY IDOCK:   -4.43 KCAL/MOL
REMARK 923 INTER-LIGAND FREE ENERGY PREDICTED BY IDOCK:   -4.51 KCAL/MOL
REMARK 924 INTRA-LIGAND FREE ENERGY PREDICTED BY IDOCK:    0.08 KCAL/MOL
REMARK 927      BINDING AFFINITY PREDICTED BY RF-SCORE:    0.00 PKD
ROOT
HETATM    1  C   UNL     1     -12.521   7.748  71.838  1.00  0.00    -0.343 C  
HETATM    2  C   UNL     1     -12.153   6.607  70.905  1.00  0.00    -0.320 C  
ENDROOT
BRANCH   2   3
HETATM    3  N   UNL     1     -10.627   6.357  70.759  1.00  0.00    -0.228 N  
HETATM    4  C   UNL     1      -9.890   7.121  71.875  1.00  0.00    -0.159 C  
BRANCH   3   5
HETATM    5  C   UNL     1     -10.252   4.866  70.860  1.00  0.00    -0.202 C  
HETATM    6  C   UNL     1      -8.913   4.526  70.221  1.00  0.00    -0.141 C  
ENDBRANCH   3   5
BRANCH   3   7
HETATM    7  C   UNL     1     -10.229   6.960  69.395  1.00  0.00    -0.182 C  
BRANCH   7   8
HETATM    8  C   UNL     1     -11.148   6.623  68.218  1.00  0.00    -0.198 C  
BRANCH   8   9
HETATM    9  O   UNL     1     -10.859   7.610  67.217  1.00  0.00    -0.293 OA 
BRANCH   9  10
HETATM   10  C   UNL     1      -9.997   8.608  67.585  1.00  0.00    -0.194 C  
HETATM   11  O   UNL     1     -10.225   9.405  68.484  1.00  0.00    -0.185 OA 
HETATM   12  C   UNL     1      -8.786   8.646  66.598  1.00  0.00    -0.123 C  
HETATM   13  C   UNL     1      -7.592   7.975  67.283  1.00  0.00    -0.097 A  
HETATM   14  O   UNL     1      -9.106   7.889  65.420  1.00  0.00    -0.394 OA 
HETATM   15  C   UNL     1      -8.523  10.139  66.189  1.00  0.00    -0.134 C  
HETATM   16  H   UNL     1      -8.371   7.912  64.820  1.00  0.00     0.000 HD 
HETATM   17  C   UNL     1      -6.964   6.847  66.720  1.00  0.00    -0.066 A  
HETATM   18  C   UNL     1      -7.318  10.336  65.246  1.00  0.00    -0.139 C  
HETATM   19  C   UNL     1      -5.899   6.216  67.364  1.00  0.00    -0.017 A  
HETATM   20  C   UNL     1      -7.583   9.922  63.802  1.00  0.00    -0.136 C  
HETATM   21  C   UNL     1      -8.815  10.609  63.221  1.00  0.00    -0.202 C  
HETATM   22  C   UNL     1      -5.440   6.699  68.583  1.00  0.00    -0.016 A  
HETATM   23  C   UNL     1      -6.042   7.815  69.158  1.00  0.00    -0.035 A  
HETATM   24  C   UNL     1     -10.043  10.503  64.113  1.00  0.00    -0.351 C  
HETATM   25  C   UNL     1      -9.748  10.861  65.569  1.00  0.00    -0.282 C  
HETATM   26  C   UNL     1      -7.105   8.449  68.514  1.00  0.00    -0.076 A  
ENDBRANCH   9  10
ENDBRANCH   8   9
ENDBRANCH   7   8
ENDBRANCH   3   7
ENDBRANCH   2   3
TORSDOF 6
ENDMDL
MODEL      195
REMARK 921   NORMALIZED FREE ENERGY PREDICTED BY IDOCK:   -2.55 KCAL/MOL
REMARK 922        TOTAL FREE ENERGY PREDICTED BY IDOCK:   -4.35 KCAL/MOL
REMARK 923 INTER-LIGAND FREE ENERGY PREDICTED BY IDOCK:   -3.65 KCAL/MOL
REMARK 924 INTRA-LIGAND FREE ENERGY PREDICTED BY IDOCK:   -0.71 KCAL/MOL
REMARK 927      BINDING AFFINITY PREDICTED BY RF-SCORE:    0.00 PKD
ROOT
HETATM    1  C   UNL     1     -10.928  12.940  67.394  1.00  0.00    -0.288 C  
HETATM    2  C   UNL     1     -10.132  11.683  67.700  1.00  0.00    -0.188 C  
ENDROOT
BRANCH   2   3
HETATM    3  N   UNL     1      -9.868  10.768  66.473  1.00  0.00    -0.196 N  
HETATM    4  C   UNL     1     -10.584  11.364  65.247  1.00  0.00    -0.277 C  
BRANCH   3   5
HETATM    5  C   UNL     1      -8.369  10.629  66.141  1.00  0.00    -0.158 C  
HETATM    6  C   UNL     1      -7.449  11.082  67.265  1.00  0.00    -0.107 C  
ENDBRANCH   3   5
BRANCH   3   7
HETATM    7  C   UNL     1     -10.511   9.408  66.814  1.00  0.00    -0.195 C  
BRANCH   7   8
HETATM    8  C   UNL     1     -10.639   9.079  68.304  1.00  0.00    -0.163 C  
BRANCH   8   9
HETATM    9  O   UNL     1      -9.956   7.829  68.477  1.00  0.00    -0.171 OA 
BRANCH   9  10
HETATM   10  C   UNL     1      -9.987   7.294  69.738  1.00  0.00    -0.183 C  
HETATM   11  O   UNL     1     -10.939   7.402  70.497  1.00  0.00    -0.243 OA 
HETATM   12  C   UNL     1      -8.592   6.679  70.080  1.00  0.00    -0.140 C  
HETATM   13  C   UNL     1      -8.691   5.159  69.920  1.00  0.00    -0.119 A  
HETATM   14  O   UNL     1      -7.614   7.163  69.147  1.00  0.00    -0.095 OA 
HETATM   15  C   UNL     1      -8.187   7.136  71.527  1.00  0.00    -0.107 C  
HETATM   16  H   UNL     1      -6.766   6.789  69.355  1.00  0.00     0.000 HD 
HETATM   17  C   UNL     1      -7.863   4.464  69.017  1.00  0.00    -0.069 A  
HETATM   18  C   UNL     1      -6.843   6.563  72.021  1.00  0.00    -0.068 C  
HETATM   19  C   UNL     1      -7.978   3.083  68.847  1.00  0.00    -0.065 A  
HETATM   20  C   UNL     1      -5.617   7.226  71.401  1.00  0.00    -0.035 C  
HETATM   21  C   UNL     1      -5.630   8.741  71.574  1.00  0.00    -0.045 C  
HETATM   22  C   UNL     1      -8.923   2.371  69.575  1.00  0.00    -0.165 A  
HETATM   23  C   UNL     1      -9.751   3.035  70.475  1.00  0.00    -0.099 A  
HETATM   24  C   UNL     1      -6.943   9.387  71.152  1.00  0.00    -0.025 C  
HETATM   25  C   UNL     1      -8.164   8.674  71.731  1.00  0.00    -0.184 C  
HETATM   26  C   UNL     1      -9.635   4.415  70.650  1.00  0.00    -0.262 A  
ENDBRANCH   9  10
ENDBRANCH   8   9
ENDBRANCH   7   8
ENDBRANCH   3   7
ENDBRANCH   2   3
TORSDOF 6
ENDMDL
MODEL      196
REMARK 921   NORMALIZED FREE ENERGY PREDICTED BY IDOCK:   -2.51 KCAL/MOL
REMARK 922        TOTAL FREE ENERGY PREDICTED BY IDOCK:   -4.30 KCAL/MOL
REMARK 923 INTER-LIGAND FREE ENERGY PREDICTED BY IDOCK:   -3.68 KCAL/MOL
REMARK 924 INTRA-LIGAND FREE ENERGY PREDICTED BY IDOCK:   -0.62 KCAL/MOL
REMARK 927      BINDING AFFINITY PREDICTED BY RF-SCORE:    0.00 PKD
ROOT
HETATM    1  C   UNL     1      -8.980   4.874  73.108  1.00  0.00    -0.111 C  
HETATM    2  C   UNL     1      -9.899   4.927  71.899  1.00  0.00    -0.184 C  
ENDROOT
BRANCH   2   3
HETATM    3  N   UNL     1     -10.060   6.338  71.270  1.00  0.00    -0.187 N  
HETATM    4  C   UNL     1     -11.371   6.375  70.464  1.00  0.00    -0.375 C  
BRANCH   3   5
HETATM    5  C   UNL     1     -10.103   7.462  72.323  1.00  0.00    -0.196 C  
HETATM    6  C   UNL     1     -11.505   7.980  72.608  1.00  0.00    -0.465 C  
ENDBRANCH   3   5
BRANCH   3   7
HETATM    7  C   UNL     1      -8.871   6.505  70.299  1.00  0.00    -0.151 C  
BRANCH   7   8
HETATM    8  C   UNL     1      -9.082   5.967  68.881  1.00  0.00    -0.121 C  
BRANCH   8   9
HETATM    9  O   UNL     1      -9.106   7.127  68.036  1.00  0.00    -0.133 OA 
BRANCH   9  10
HETATM   10  C   UNL     1      -7.909   7.493  67.480  1.00  0.00    -0.116 C  
HETATM   11  O   UNL     1      -6.950   6.743  67.380  1.00  0.00    -0.076 OA 
HETATM   12  C   UNL     1      -7.931   9.020  67.148  1.00  0.00    -0.102 C  
HETATM   13  C   UNL     1      -8.165   9.177  65.643  1.00  0.00    -0.121 A  
HETATM   14  O   UNL     1      -9.026   9.643  67.837  1.00  0.00    -0.120 OA 
HETATM   15  C   UNL     1      -6.586   9.658  67.648  1.00  0.00    -0.066 C  
HETATM   16  H   UNL     1      -9.040  10.571  67.635  1.00  0.00     0.000 HD 
HETATM   17  C   UNL     1      -9.276   9.887  65.146  1.00  0.00    -0.288 A  
HETATM   18  C   UNL     1      -6.446  11.164  67.344  1.00  0.00    -0.071 C  
HETATM   19  C   UNL     1      -9.506   9.998  63.774  1.00  0.00    -0.267 A  
HETATM   20  C   UNL     1      -7.281  12.063  68.251  1.00  0.00    -0.090 C  
HETATM   21  C   UNL     1      -7.009  11.804  69.729  1.00  0.00     0.182 C  
HETATM   22  C   UNL     1      -8.633   9.402  62.873  1.00  0.00    -0.222 A  
HETATM   23  C   UNL     1      -7.527   8.698  63.339  1.00  0.00    -0.110 A  
HETATM   24  C   UNL     1      -7.081  10.331  70.108  1.00  0.00    -0.154 C  
HETATM   25  C   UNL     1      -6.291   9.437  69.155  1.00  0.00    -0.042 C  
HETATM   26  C   UNL     1      -7.293   8.588  64.711  1.00  0.00    -0.091 A  
ENDBRANCH   9  10
ENDBRANCH   8   9
ENDBRANCH   7   8
ENDBRANCH   3   7
ENDBRANCH   2   3
TORSDOF 6
ENDMDL
MODEL      197
REMARK 921   NORMALIZED FREE ENERGY PREDICTED BY IDOCK:   -2.49 KCAL/MOL
REMARK 922        TOTAL FREE ENERGY PREDICTED BY IDOCK:   -4.27 KCAL/MOL
REMARK 923 INTER-LIGAND FREE ENERGY PREDICTED BY IDOCK:   -3.90 KCAL/MOL
REMARK 924 INTRA-LIGAND FREE ENERGY PREDICTED BY IDOCK:   -0.37 KCAL/MOL
REMARK 927      BINDING AFFINITY PREDICTED BY RF-SCORE:    0.00 PKD
ROOT
HETATM    1  C   UNL     1      -9.713   8.087  72.618  1.00  0.00    -0.332 C  
HETATM    2  C   UNL     1     -11.199   7.821  72.794  1.00  0.00    -0.398 C  
ENDROOT
BRANCH   2   3
HETATM    3  N   UNL     1     -12.057   8.081  71.526  1.00  0.00    -0.290 N  
HETATM    4  C   UNL     1     -13.409   8.679  71.956  1.00  0.00    -0.392 C  
BRANCH   3   5
HETATM    5  C   UNL     1     -11.386   9.053  70.537  1.00  0.00    -0.243 C  
HETATM    6  C   UNL     1     -11.985  10.452  70.552  1.00  0.00    -0.427 C  
ENDBRANCH   3   5
BRANCH   3   7
HETATM    7  C   UNL     1     -12.304   6.695  70.893  1.00  0.00    -0.201 C  
BRANCH   7   8
HETATM    8  C   UNL     1     -11.486   6.373  69.639  1.00  0.00    -0.378 C  
BRANCH   8   9
HETATM    9  O   UNL     1     -10.311   5.700  70.114  1.00  0.00    -0.224 OA 
BRANCH   9  10
HETATM   10  C   UNL     1      -9.162   5.918  69.402  1.00  0.00    -0.130 C  
HETATM   11  O   UNL     1      -9.142   6.379  68.270  1.00  0.00    -0.117 OA 
HETATM   12  C   UNL     1      -7.939   5.356  70.196  1.00  0.00    -0.085 C  
HETATM   13  C   UNL     1      -7.219   6.535  70.857  1.00  0.00    -0.071 A  
HETATM   14  O   UNL     1      -8.404   4.480  71.233  1.00  0.00    -0.098 OA 
HETATM   15  C   UNL     1      -7.034   4.539  69.206  1.00  0.00    -0.050 C  
HETATM   16  H   UNL     1      -7.661   4.138  71.716  1.00  0.00     0.000 HD 
HETATM   17  C   UNL     1      -7.055   6.601  72.255  1.00  0.00    -0.073 A  
HETATM   18  C   UNL     1      -5.755   3.960  69.844  1.00  0.00    -0.017 C  
HETATM   19  C   UNL     1      -6.430   7.693  72.858  1.00  0.00    -0.063 A  
HETATM   20  C   UNL     1      -5.998   2.740  70.728  1.00  0.00    -0.018 C  
HETATM   21  C   UNL     1      -6.757   1.639  69.994  1.00  0.00    -0.029 C  
HETATM   22  C   UNL     1      -5.958   8.740  72.079  1.00  0.00    -0.071 A  
HETATM   23  C   UNL     1      -6.105   8.698  70.695  1.00  0.00    -0.033 A  
HETATM   24  C   UNL     1      -8.014   2.134  69.292  1.00  0.00    -0.057 C  
HETATM   25  C   UNL     1      -7.768   3.393  68.462  1.00  0.00    -0.055 C  
HETATM   26  C   UNL     1      -6.726   7.605  70.089  1.00  0.00    -0.049 A  
ENDBRANCH   9  10
ENDBRANCH   8   9
ENDBRANCH   7   8
ENDBRANCH   3   7
ENDBRANCH   2   3
TORSDOF 6
ENDMDL
MODEL      198
REMARK 921   NORMALIZED FREE ENERGY PREDICTED BY IDOCK:   -2.48 KCAL/MOL
REMARK 922        TOTAL FREE ENERGY PREDICTED BY IDOCK:   -4.26 KCAL/MOL
REMARK 923 INTER-LIGAND FREE ENERGY PREDICTED BY IDOCK:   -3.87 KCAL/MOL
REMARK 924 INTRA-LIGAND FREE ENERGY PREDICTED BY IDOCK:   -0.38 KCAL/MOL
REMARK 927      BINDING AFFINITY PREDICTED BY RF-SCORE:    0.00 PKD
ROOT
HETATM    1  C   UNL     1     -13.467  15.965  73.052  1.00  0.00    -0.653 C  
HETATM    2  C   UNL     1     -12.509  14.790  72.954  1.00  0.00    -0.337 C  
ENDROOT
BRANCH   2   3
HETATM    3  N   UNL     1     -12.707  13.896  71.699  1.00  0.00    -0.339 N  
HETATM    4  C   UNL     1     -13.981  14.351  70.962  1.00  0.00    -0.007 C  
BRANCH   3   5
HETATM    5  C   UNL     1     -11.523  13.972  70.716  1.00  0.00     0.151 C  
HETATM    6  C   UNL     1     -11.942  14.035  69.255  1.00  0.00    -0.396 C  
ENDBRANCH   3   5
BRANCH   3   7
HETATM    7  C   UNL     1     -12.923  12.464  72.231  1.00  0.00    -0.075 C  
BRANCH   7   8
HETATM    8  C   UNL     1     -12.763  11.335  71.208  1.00  0.00    -0.405 C  
BRANCH   8   9
HETATM    9  O   UNL     1     -11.849  10.406  71.809  1.00  0.00    -0.147 OA 
BRANCH   9  10
HETATM   10  C   UNL     1     -11.290   9.481  70.967  1.00  0.00    -0.352 C  
HETATM   11  O   UNL     1     -11.252   9.606  69.752  1.00  0.00    -0.233 OA 
HETATM   12  C   UNL     1     -10.862   8.220  71.784  1.00  0.00    -0.267 C  
HETATM   13  C   UNL     1      -9.346   8.281  71.995  1.00  0.00    -0.298 A  
HETATM   14  O   UNL     1     -11.493   8.249  73.073  1.00  0.00    -0.291 OA 
HETATM   15  C   UNL     1     -11.341   6.939  71.011  1.00  0.00    -0.342 C  
HETATM   16  H   UNL     1     -11.233   7.482  73.571  1.00  0.00     0.000 HD 
HETATM   17  C   UNL     1      -8.788   8.298  73.288  1.00  0.00    -0.283 A  
HETATM   18  C   UNL     1     -10.945   5.608  71.681  1.00  0.00    -0.277 C  
HETATM   19  C   UNL     1      -7.408   8.389  73.478  1.00  0.00    -0.123 A  
HETATM   20  C   UNL     1     -11.780   5.255  72.909  1.00  0.00    -0.228 C  
HETATM   21  C   UNL     1     -13.276   5.262  72.610  1.00  0.00     1.273 C  
HETATM   22  C   UNL     1      -6.560   8.466  72.381  1.00  0.00    -0.095 A  
HETATM   23  C   UNL     1      -7.087   8.447  71.093  1.00  0.00    -0.066 A  
HETATM   24  C   UNL     1     -13.746   6.525  71.903  1.00  0.00     0.105 C  
HETATM   25  C   UNL     1     -12.863   6.900  70.715  1.00  0.00    -0.033 C  
HETATM   26  C   UNL     1      -8.467   8.353  70.900  1.00  0.00    -0.158 A  
ENDBRANCH   9  10
ENDBRANCH   8   9
ENDBRANCH   7   8
ENDBRANCH   3   7
ENDBRANCH   2   3
TORSDOF 6
ENDMDL
MODEL      199
REMARK 921   NORMALIZED FREE ENERGY PREDICTED BY IDOCK:   -2.47 KCAL/MOL
REMARK 922        TOTAL FREE ENERGY PREDICTED BY IDOCK:   -4.24 KCAL/MOL
REMARK 923 INTER-LIGAND FREE ENERGY PREDICTED BY IDOCK:   -4.54 KCAL/MOL
REMARK 924 INTRA-LIGAND FREE ENERGY PREDICTED BY IDOCK:    0.30 KCAL/MOL
REMARK 927      BINDING AFFINITY PREDICTED BY RF-SCORE:    0.00 PKD
ROOT
HETATM    1  C   UNL     1     -10.099  11.529  62.972  1.00  0.00    -0.330 C  
HETATM    2  C   UNL     1     -11.484  11.840  63.514  1.00  0.00    -0.394 C  
ENDROOT
BRANCH   2   3
HETATM    3  N   UNL     1     -11.510  12.895  64.654  1.00  0.00    -0.313 N  
HETATM    4  C   UNL     1     -12.332  14.110  64.187  1.00  0.00    -0.335 C  
BRANCH   3   5
HETATM    5  C   UNL     1     -12.135  12.355  65.955  1.00  0.00    -0.281 C  
HETATM    6  C   UNL     1     -11.164  11.566  66.819  1.00  0.00    -0.350 C  
ENDBRANCH   3   5
BRANCH   3   7
HETATM    7  C   UNL     1     -10.045  13.332  64.858  1.00  0.00    -0.226 C  
BRANCH   7   8
HETATM    8  C   UNL     1      -9.682  13.837  66.257  1.00  0.00    -0.284 C  
BRANCH   8   9
HETATM    9  O   UNL     1      -9.561  15.261  66.128  1.00  0.00    -0.276 OA 
BRANCH   9  10
HETATM   10  C   UNL     1      -9.254  15.946  67.273  1.00  0.00    -0.206 C  
HETATM   11  O   UNL     1     -10.088  16.318  68.086  1.00  0.00    -0.234 OA 
HETATM   12  C   UNL     1      -7.729  16.290  67.285  1.00  0.00    -0.178 C  
HETATM   13  C   UNL     1      -7.027  15.304  68.223  1.00  0.00    -0.119 A  
HETATM   14  O   UNL     1      -7.189  16.114  65.967  1.00  0.00     0.169 OA 
HETATM   15  C   UNL     1      -7.560  17.793  67.709  1.00  0.00    -0.213 C  
HETATM   16  H   UNL     1      -6.262  16.323  65.974  1.00  0.00     0.000 HD 
HETATM   17  C   UNL     1      -5.997  14.461  67.759  1.00  0.00    -0.111 A  
HETATM   18  C   UNL     1      -6.096  18.264  67.810  1.00  0.00    -0.180 C  
HETATM   19  C   UNL     1      -5.382  13.538  68.606  1.00  0.00    -0.077 A  
HETATM   20  C   UNL     1      -5.424  18.504  66.461  1.00  0.00    -0.168 C  
HETATM   21  C   UNL     1      -6.219  19.465  65.584  1.00  0.00    -0.239 C  
HETATM   22  C   UNL     1      -5.784  13.439  69.932  1.00  0.00    -0.119 A  
HETATM   23  C   UNL     1      -6.796  14.262  70.415  1.00  0.00     0.195 A  
HETATM   24  C   UNL     1      -7.692  19.100  65.467  1.00  0.00     0.227 C  
HETATM   25  C   UNL     1      -8.335  18.801  66.820  1.00  0.00    -0.288 C  
HETATM   26  C   UNL     1      -7.411  15.189  69.570  1.00  0.00    -0.210 A  
ENDBRANCH   9  10
ENDBRANCH   8   9
ENDBRANCH   7   8
ENDBRANCH   3   7
ENDBRANCH   2   3
TORSDOF 6
ENDMDL
MODEL      200
REMARK 921   NORMALIZED FREE ENERGY PREDICTED BY IDOCK:   -2.46 KCAL/MOL
REMARK 922        TOTAL FREE ENERGY PREDICTED BY IDOCK:   -4.23 KCAL/MOL
REMARK 923 INTER-LIGAND FREE ENERGY PREDICTED BY IDOCK:   -4.48 KCAL/MOL
REMARK 924 INTRA-LIGAND FREE ENERGY PREDICTED BY IDOCK:    0.25 KCAL/MOL
REMARK 927      BINDING AFFINITY PREDICTED BY RF-SCORE:    0.00 PKD
ROOT
HETATM    1  C   UNL     1     -11.381  13.615  66.089  1.00  0.00    -0.324 C  
HETATM    2  C   UNL     1     -11.785  12.295  66.722  1.00  0.00    -0.342 C  
ENDROOT
BRANCH   2   3
HETATM    3  N   UNL     1     -10.609  11.481  67.329  1.00  0.00    -0.218 N  
HETATM    4  C   UNL     1      -9.838  10.795  66.187  1.00  0.00    -0.221 C  
BRANCH   3   5
HETATM    5  C   UNL     1      -9.623  12.358  68.126  1.00  0.00    -0.218 C  
HETATM    6  C   UNL     1      -8.206  12.342  67.573  1.00  0.00    -0.170 C  
ENDBRANCH   3   5
BRANCH   3   7
HETATM    7  C   UNL     1     -11.259  10.397  68.214  1.00  0.00    -0.267 C  
BRANCH   7   8
HETATM    8  C   UNL     1     -10.994  10.507  69.718  1.00  0.00    -0.294 C  
BRANCH   8   9
HETATM    9  O   UNL     1      -9.632  10.090  69.895  1.00  0.00    -0.226 OA 
BRANCH   9  10
HETATM   10  C   UNL     1      -9.367   8.771  69.633  1.00  0.00    -0.158 C  
HETATM   11  O   UNL     1      -9.110   8.339  68.519  1.00  0.00    -0.137 OA 
HETATM   12  C   UNL     1      -9.591   7.925  70.928  1.00  0.00    -0.161 C  
HETATM   13  C   UNL     1      -8.220   7.615  71.536  1.00  0.00    -0.108 A  
HETATM   14  O   UNL     1     -10.337   8.698  71.881  1.00  0.00    -0.278 OA 
HETATM   15  C   UNL     1     -10.418   6.645  70.550  1.00  0.00    -0.240 C  
HETATM   16  H   UNL     1     -10.473   8.184  72.668  1.00  0.00     0.000 HD 
HETATM   17  C   UNL     1      -7.891   8.023  72.844  1.00  0.00    -0.190 A  
HETATM   18  C   UNL     1     -10.678   5.685  71.729  1.00  0.00    -0.305 C  
HETATM   19  C   UNL     1      -6.629   7.770  73.383  1.00  0.00    -0.088 A  
HETATM   20  C   UNL     1     -11.750   6.168  72.701  1.00  0.00    -0.193 C  
HETATM   21  C   UNL     1     -13.064   6.491  71.997  1.00  0.00     0.014 C  
HETATM   22  C   UNL     1      -5.672   7.106  72.628  1.00  0.00    -0.038 A  
HETATM   23  C   UNL     1      -5.974   6.690  71.335  1.00  0.00    -0.036 A  
HETATM   24  C   UNL     1     -12.894   7.400  70.787  1.00  0.00    -0.017 C  
HETATM   25  C   UNL     1     -11.774   6.939  69.856  1.00  0.00    -0.199 C  
HETATM   26  C   UNL     1      -7.236   6.938  70.794  1.00  0.00    -0.069 A  
ENDBRANCH   9  10
ENDBRANCH   8   9
ENDBRANCH   7   8
ENDBRANCH   3   7
ENDBRANCH   2   3
TORSDOF 6
ENDMDL
MODEL      201
REMARK 921   NORMALIZED FREE ENERGY PREDICTED BY IDOCK:   -2.42 KCAL/MOL
REMARK 922        TOTAL FREE ENERGY PREDICTED BY IDOCK:   -4.17 KCAL/MOL
REMARK 923 INTER-LIGAND FREE ENERGY PREDICTED BY IDOCK:   -4.04 KCAL/MOL
REMARK 924 INTRA-LIGAND FREE ENERGY PREDICTED BY IDOCK:   -0.13 KCAL/MOL
REMARK 927      BINDING AFFINITY PREDICTED BY RF-SCORE:    0.00 PKD
ROOT
HETATM    1  C   UNL     1     -11.034  10.623  66.148  1.00  0.00     0.015 C  
HETATM    2  C   UNL     1     -10.197   9.579  66.867  1.00  0.00    -0.249 C  
ENDROOT
BRANCH   2   3
HETATM    3  N   UNL     1      -8.675   9.885  66.907  1.00  0.00    -0.128 N  
HETATM    4  C   UNL     1      -8.270  10.201  68.358  1.00  0.00    -0.112 C  
BRANCH   3   5
HETATM    5  C   UNL     1      -7.815   8.710  66.405  1.00  0.00    -0.099 C  
HETATM    6  C   UNL     1      -8.577   7.398  66.290  1.00  0.00    -0.148 C  
ENDBRANCH   3   5
BRANCH   3   7
HETATM    7  C   UNL     1      -8.477  11.152  66.047  1.00  0.00    -0.138 C  
BRANCH   7   8
HETATM    8  C   UNL     1      -7.774  12.327  66.733  1.00  0.00     0.079 C  
BRANCH   8   9
HETATM    9  O   UNL     1      -8.734  12.855  67.659  1.00  0.00    -0.162 OA 
BRANCH   9  10
HETATM   10  C   UNL     1      -9.379  13.999  67.272  1.00  0.00    -0.230 C  
HETATM   11  O   UNL     1      -9.964  14.121  66.206  1.00  0.00    -0.283 OA 
HETATM   12  C   UNL     1      -9.120  15.128  68.322  1.00  0.00    -0.183 C  
HETATM   13  C   UNL     1     -10.369  15.257  69.199  1.00  0.00    -0.248 A  
HETATM   14  O   UNL     1      -8.020  14.753  69.165  1.00  0.00    -0.159 OA 
HETATM   15  C   UNL     1      -8.749  16.447  67.555  1.00  0.00    -0.188 C  
HETATM   16  H   UNL     1      -7.862  15.439  69.803  1.00  0.00     0.000 HD 
HETATM   17  C   UNL     1     -10.304  15.073  70.595  1.00  0.00     0.233 A  
HETATM   18  C   UNL     1      -8.509  17.667  68.467  1.00  0.00    -0.289 C  
HETATM   19  C   UNL     1     -11.449  15.156  71.388  1.00  0.00    -0.405 A  
HETATM   20  C   UNL     1      -7.172  17.643  69.201  1.00  0.00    -0.153 C  
HETATM   21  C   UNL     1      -5.994  17.469  68.248  1.00  0.00    -0.162 C  
HETATM   22  C   UNL     1     -12.680  15.424  70.804  1.00  0.00    -0.516 A  
HETATM   23  C   UNL     1     -12.770  15.613  69.428  1.00  0.00     0.338 A  
HETATM   24  C   UNL     1      -6.169  16.310  67.276  1.00  0.00    -0.205 C  
HETATM   25  C   UNL     1      -7.536  16.312  66.596  1.00  0.00    -0.268 C  
HETATM   26  C   UNL     1     -11.625  15.534  68.633  1.00  0.00    -0.379 A  
ENDBRANCH   9  10
ENDBRANCH   8   9
ENDBRANCH   7   8
ENDBRANCH   3   7
ENDBRANCH   2   3
TORSDOF 6
ENDMDL
MODEL      202
REMARK 921   NORMALIZED FREE ENERGY PREDICTED BY IDOCK:   -2.41 KCAL/MOL
REMARK 922        TOTAL FREE ENERGY PREDICTED BY IDOCK:   -4.16 KCAL/MOL
REMARK 923 INTER-LIGAND FREE ENERGY PREDICTED BY IDOCK:   -3.31 KCAL/MOL
REMARK 924 INTRA-LIGAND FREE ENERGY PREDICTED BY IDOCK:   -0.86 KCAL/MOL
REMARK 927      BINDING AFFINITY PREDICTED BY RF-SCORE:    0.00 PKD
ROOT
HETATM    1  C   UNL     1      -7.776   9.866  64.398  1.00  0.00    -0.142 C  
HETATM    2  C   UNL     1      -8.031   9.316  65.791  1.00  0.00    -0.109 C  
ENDROOT
BRANCH   2   3
HETATM    3  N   UNL     1      -8.240  10.398  66.886  1.00  0.00    -0.123 N  
HETATM    4  C   UNL     1      -7.661  11.732  66.382  1.00  0.00     0.158 C  
BRANCH   3   5
HETATM    5  C   UNL     1      -9.725  10.613  67.239  1.00  0.00    -0.168 C  
HETATM    6  C   UNL     1     -10.655   9.570  66.637  1.00  0.00    -0.174 C  
ENDBRANCH   3   5
BRANCH   3   7
HETATM    7  C   UNL     1      -7.421   9.927  68.105  1.00  0.00    -0.080 C  
BRANCH   7   8
HETATM    8  C   UNL     1      -7.225   8.414  68.241  1.00  0.00    -0.086 C  
BRANCH   8   9
HETATM    9  O   UNL     1      -7.602   8.101  69.589  1.00  0.00    -0.093 OA 
BRANCH   9  10
HETATM   10  C   UNL     1      -8.873   7.621  69.763  1.00  0.00    -0.140 C  
HETATM   11  O   UNL     1      -9.856   8.335  69.901  1.00  0.00    -0.182 OA 
HETATM   12  C   UNL     1      -8.831   6.065  69.900  1.00  0.00    -0.138 C  
HETATM   13  C   UNL     1      -9.267   5.457  68.564  1.00  0.00    -0.130 A  
HETATM   14  O   UNL     1      -7.483   5.645  70.163  1.00  0.00    -0.073 OA 
HETATM   15  C   UNL     1      -9.740   5.646  71.110  1.00  0.00    -0.218 C  
HETATM   16  H   UNL     1      -7.457   4.699  70.246  1.00  0.00     0.000 HD 
HETATM   17  C   UNL     1      -8.417   4.598  67.840  1.00  0.00    -0.103 A  
HETATM   18  C   UNL     1      -9.833   4.124  71.339  1.00  0.00    -0.254 C  
HETATM   19  C   UNL     1      -8.802   4.073  66.605  1.00  0.00    -0.122 A  
HETATM   20  C   UNL     1      -8.590   3.514  71.981  1.00  0.00    -0.104 C  
HETATM   21  C   UNL     1      -8.212   4.212  73.283  1.00  0.00    -0.090 C  
HETATM   22  C   UNL     1     -10.042   4.397  66.070  1.00  0.00    -0.260 A  
HETATM   23  C   UNL     1     -10.900   5.241  66.767  1.00  0.00    -0.124 A  
HETATM   24  C   UNL     1      -8.144   5.728  73.159  1.00  0.00    -0.117 C  
HETATM   25  C   UNL     1      -9.365   6.318  72.458  1.00  0.00    -0.146 C  
HETATM   26  C   UNL     1     -10.519   5.765  68.004  1.00  0.00    -0.286 A  
ENDBRANCH   9  10
ENDBRANCH   8   9
ENDBRANCH   7   8
ENDBRANCH   3   7
ENDBRANCH   2   3
TORSDOF 6
ENDMDL
MODEL      203
REMARK 921   NORMALIZED FREE ENERGY PREDICTED BY IDOCK:   -2.39 KCAL/MOL
REMARK 922        TOTAL FREE ENERGY PREDICTED BY IDOCK:   -4.13 KCAL/MOL
REMARK 923 INTER-LIGAND FREE ENERGY PREDICTED BY IDOCK:   -3.24 KCAL/MOL
REMARK 924 INTRA-LIGAND FREE ENERGY PREDICTED BY IDOCK:   -0.89 KCAL/MOL
REMARK 927      BINDING AFFINITY PREDICTED BY RF-SCORE:    0.00 PKD
ROOT
HETATM    1  C   UNL     1      -9.694   8.977  70.359  1.00  0.00    -0.245 C  
HETATM    2  C   UNL     1      -8.243   9.428  70.385  1.00  0.00    -0.188 C  
ENDROOT
BRANCH   2   3
HETATM    3  N   UNL     1      -7.214   8.285  70.600  1.00  0.00    -0.047 N  
HETATM    4  C   UNL     1      -6.406   8.578  71.878  1.00  0.00    -0.069 C  
BRANCH   3   5
HETATM    5  C   UNL     1      -7.877   6.902  70.749  1.00  0.00    -0.097 C  
HETATM    6  C   UNL     1      -7.591   6.226  72.081  1.00  0.00    -0.095 C  
ENDBRANCH   3   5
BRANCH   3   7
HETATM    7  C   UNL     1      -6.263   8.340  69.386  1.00  0.00    -0.037 C  
BRANCH   7   8
HETATM    8  C   UNL     1      -6.005   7.010  68.673  1.00  0.00    -0.022 C  
BRANCH   8   9
HETATM    9  O   UNL     1      -5.592   7.365  67.345  1.00  0.00    -0.027 OA 
BRANCH   9  10
HETATM   10  C   UNL     1      -6.155   6.643  66.326  1.00  0.00    -0.033 C  
HETATM   11  O   UNL     1      -5.777   5.530  65.993  1.00  0.00    -0.016 OA 
HETATM   12  C   UNL     1      -7.224   7.518  65.593  1.00  0.00    -0.066 C  
HETATM   13  C   UNL     1      -8.609   7.075  66.071  1.00  0.00    -0.154 A  
HETATM   14  O   UNL     1      -7.045   8.895  65.958  1.00  0.00    -0.085 OA 
HETATM   15  C   UNL     1      -7.012   7.369  64.044  1.00  0.00    -0.058 C  
HETATM   16  H   UNL     1      -7.694   9.427  65.513  1.00  0.00     0.000 HD 
HETATM   17  C   UNL     1      -9.490   7.979  66.696  1.00  0.00    -0.273 A  
HETATM   18  C   UNL     1      -8.032   8.146  63.187  1.00  0.00    -0.151 C  
HETATM   19  C   UNL     1     -10.739   7.566  67.162  1.00  0.00    -0.379 A  
HETATM   20  C   UNL     1      -7.787   9.651  63.138  1.00  0.00    -0.133 C  
HETATM   21  C   UNL     1      -6.368   9.991  62.693  1.00  0.00    -0.121 C  
HETATM   22  C   UNL     1     -11.131   6.242  67.014  1.00  0.00    -0.379 A  
HETATM   23  C   UNL     1     -10.280   5.330  66.397  1.00  0.00    -0.289 A  
HETATM   24  C   UNL     1      -5.295   9.230  63.459  1.00  0.00    -0.066 C  
HETATM   25  C   UNL     1      -5.587   7.733  63.553  1.00  0.00    -0.053 C  
HETATM   26  C   UNL     1      -9.032   5.742  65.927  1.00  0.00    -0.158 A  
ENDBRANCH   9  10
ENDBRANCH   8   9
ENDBRANCH   7   8
ENDBRANCH   3   7
ENDBRANCH   2   3
TORSDOF 6
ENDMDL
MODEL      204
REMARK 921   NORMALIZED FREE ENERGY PREDICTED BY IDOCK:   -2.36 KCAL/MOL
REMARK 922        TOTAL FREE ENERGY PREDICTED BY IDOCK:   -4.09 KCAL/MOL
REMARK 923 INTER-LIGAND FREE ENERGY PREDICTED BY IDOCK:   -3.24 KCAL/MOL
REMARK 924 INTRA-LIGAND FREE ENERGY PREDICTED BY IDOCK:   -0.86 KCAL/MOL
REMARK 927      BINDING AFFINITY PREDICTED BY RF-SCORE:    0.00 PKD
ROOT
HETATM    1  C   UNL     1      -8.257   8.407  74.015  1.00  0.00    -0.186 C  
HETATM    2  C   UNL     1      -9.187   7.254  73.678  1.00  0.00    -0.219 C  
ENDROOT
BRANCH   2   3
HETATM    3  N   UNL     1      -8.701   6.348  72.514  1.00  0.00    -0.123 N  
HETATM    4  C   UNL     1      -8.548   4.908  73.037  1.00  0.00    -0.110 C  
BRANCH   3   5
HETATM    5  C   UNL     1      -9.676   6.333  71.321  1.00  0.00    -0.174 C  
HETATM    6  C   UNL     1     -10.376   4.997  71.119  1.00  0.00    -0.254 C  
ENDBRANCH   3   5
BRANCH   3   7
HETATM    7  C   UNL     1      -7.311   6.885  72.115  1.00  0.00    -0.087 C  
BRANCH   7   8
HETATM    8  C   UNL     1      -6.682   6.260  70.866  1.00  0.00    -0.058 C  
BRANCH   8   9
HETATM    9  O   UNL     1      -6.601   7.325  69.908  1.00  0.00    -0.038 OA 
BRANCH   9  10
HETATM   10  C   UNL     1      -6.417   6.949  68.603  1.00  0.00    -0.036 C  
HETATM   11  O   UNL     1      -5.565   6.152  68.241  1.00  0.00    -0.010 OA 
HETATM   12  C   UNL     1      -7.348   7.798  67.678  1.00  0.00    -0.092 C  
HETATM   13  C   UNL     1      -8.548   6.932  67.287  1.00  0.00    -0.120 A  
HETATM   14  O   UNL     1      -7.836   8.935  68.404  1.00  0.00    -0.101 OA 
HETATM   15  C   UNL     1      -6.506   8.300  66.450  1.00  0.00    -0.054 C  
HETATM   16  H   UNL     1      -8.401   9.452  67.842  1.00  0.00     0.000 HD 
HETATM   17  C   UNL     1      -9.865   7.326  67.596  1.00  0.00    -0.189 A  
HETATM   18  C   UNL     1      -7.310   9.118  65.420  1.00  0.00    -0.089 C  
HETATM   19  C   UNL     1     -10.956   6.518  67.271  1.00  0.00    -0.475 A  
HETATM   20  C   UNL     1      -7.626  10.543  65.866  1.00  0.00    -0.148 C  
HETATM   21  C   UNL     1      -6.373  11.310  66.274  1.00  0.00    -0.048 C  
HETATM   22  C   UNL     1     -10.753   5.301  66.632  1.00  0.00    -0.274 A  
HETATM   23  C   UNL     1      -9.462   4.891  66.314  1.00  0.00    -0.160 A  
HETATM   24  C   UNL     1      -5.493  10.552  67.257  1.00  0.00    -0.041 C  
HETATM   25  C   UNL     1      -5.237   9.109  66.829  1.00  0.00    -0.038 C  
HETATM   26  C   UNL     1      -8.369   5.699  66.635  1.00  0.00    -0.112 A  
ENDBRANCH   9  10
ENDBRANCH   8   9
ENDBRANCH   7   8
ENDBRANCH   3   7
ENDBRANCH   2   3
TORSDOF 6
ENDMDL
MODEL      205
REMARK 921   NORMALIZED FREE ENERGY PREDICTED BY IDOCK:   -2.33 KCAL/MOL
REMARK 922        TOTAL FREE ENERGY PREDICTED BY IDOCK:   -4.05 KCAL/MOL
REMARK 923 INTER-LIGAND FREE ENERGY PREDICTED BY IDOCK:   -3.62 KCAL/MOL
REMARK 924 INTRA-LIGAND FREE ENERGY PREDICTED BY IDOCK:   -0.43 KCAL/MOL
REMARK 927      BINDING AFFINITY PREDICTED BY RF-SCORE:    0.00 PKD
ROOT
HETATM    1  C   UNL     1     -11.391  10.189  70.686  1.00  0.00    -0.433 C  
HETATM    2  C   UNL     1     -10.314   9.117  70.656  1.00  0.00    -0.246 C  
ENDROOT
BRANCH   2   3
HETATM    3  N   UNL     1     -10.670   7.820  71.433  1.00  0.00    -0.221 N  
HETATM    4  C   UNL     1      -9.506   7.473  72.380  1.00  0.00    -0.157 C  
BRANCH   3   5
HETATM    5  C   UNL     1     -11.956   7.957  72.270  1.00  0.00    -0.337 C  
HETATM    6  C   UNL     1     -13.207   7.469  71.556  1.00  0.00    -0.404 C  
ENDBRANCH   3   5
BRANCH   3   7
HETATM    7  C   UNL     1     -10.792   6.711  70.366  1.00  0.00    -0.266 C  
BRANCH   7   8
HETATM    8  C   UNL     1      -9.781   5.565  70.468  1.00  0.00    -0.183 C  
BRANCH   8   9
HETATM    9  O   UNL     1      -9.459   5.223  69.113  1.00  0.00    -0.120 OA 
BRANCH   9  10
HETATM   10  C   UNL     1      -8.125   5.154  68.809  1.00  0.00    -0.085 C  
HETATM   11  O   UNL     1      -7.296   4.597  69.514  1.00  0.00    -0.051 OA 
HETATM   12  C   UNL     1      -7.833   6.010  67.534  1.00  0.00    -0.098 C  
HETATM   13  C   UNL     1      -7.692   5.056  66.344  1.00  0.00    -0.092 A  
HETATM   14  O   UNL     1      -8.945   6.881  67.278  1.00  0.00    -0.117 OA 
HETATM   15  C   UNL     1      -6.553   6.881  67.800  1.00  0.00    -0.055 C  
HETATM   16  H   UNL     1      -8.768   7.401  66.503  1.00  0.00     0.000 HD 
HETATM   17  C   UNL     1      -8.536   5.159  65.221  1.00  0.00    -0.148 A  
HETATM   18  C   UNL     1      -6.115   7.748  66.603  1.00  0.00    -0.048 C  
HETATM   19  C   UNL     1      -8.429   4.267  64.153  1.00  0.00    -0.111 A  
HETATM   20  C   UNL     1      -6.985   8.982  66.376  1.00  0.00    -0.080 C  
HETATM   21  C   UNL     1      -7.098   9.845  67.628  1.00  0.00    -0.087 C  
HETATM   22  C   UNL     1      -7.478   3.255  64.186  1.00  0.00    -0.070 A  
HETATM   23  C   UNL     1      -6.631   3.134  65.283  1.00  0.00    -0.036 A  
HETATM   24  C   UNL     1      -7.483   9.058  68.873  1.00  0.00    -0.075 C  
HETATM   25  C   UNL     1      -6.646   7.792  69.052  1.00  0.00    -0.048 C  
HETATM   26  C   UNL     1      -6.733   4.028  66.351  1.00  0.00    -0.053 A  
ENDBRANCH   9  10
ENDBRANCH   8   9
ENDBRANCH   7   8
ENDBRANCH   3   7
ENDBRANCH   2   3
TORSDOF 6
ENDMDL
MODEL      206
REMARK 921   NORMALIZED FREE ENERGY PREDICTED BY IDOCK:   -2.27 KCAL/MOL
REMARK 922        TOTAL FREE ENERGY PREDICTED BY IDOCK:   -3.96 KCAL/MOL
REMARK 923 INTER-LIGAND FREE ENERGY PREDICTED BY IDOCK:   -3.33 KCAL/MOL
REMARK 924 INTRA-LIGAND FREE ENERGY PREDICTED BY IDOCK:   -0.64 KCAL/MOL
REMARK 927      BINDING AFFINITY PREDICTED BY RF-SCORE:    0.00 PKD
ROOT
HETATM    1  C   UNL     1      -8.741   9.003  64.573  1.00  0.00    -0.153 C  
HETATM    2  C   UNL     1      -8.392   7.778  65.401  1.00  0.00    -0.136 C  
ENDROOT
BRANCH   2   3
HETATM    3  N   UNL     1      -8.086   8.072  66.895  1.00  0.00    -0.107 N  
HETATM    4  C   UNL     1      -8.149   6.752  67.685  1.00  0.00    -0.116 C  
BRANCH   3   5
HETATM    5  C   UNL     1      -6.695   8.702  67.108  1.00  0.00    -0.063 C  
HETATM    6  C   UNL     1      -5.703   7.776  67.796  1.00  0.00    -0.037 C  
ENDBRANCH   3   5
BRANCH   3   7
HETATM    7  C   UNL     1      -9.218   9.000  67.383  1.00  0.00    -0.138 C  
BRANCH   7   8
HETATM    8  C   UNL     1      -8.806  10.114  68.349  1.00  0.00    -0.123 C  
BRANCH   8   9
HETATM    9  O   UNL     1      -9.399  11.311  67.825  1.00  0.00    -0.157 OA 
BRANCH   9  10
HETATM   10  C   UNL     1      -8.555  12.161  67.161  1.00  0.00    -0.185 C  
HETATM   11  O   UNL     1      -8.045  11.904  66.080  1.00  0.00     0.086 OA 
HETATM   12  C   UNL     1      -8.249  13.403  68.059  1.00  0.00    -0.161 C  
HETATM   13  C   UNL     1      -9.098  14.574  67.556  1.00  0.00    -0.193 A  
HETATM   14  O   UNL     1      -8.636  13.121  69.412  1.00  0.00     0.140 OA 
HETATM   15  C   UNL     1      -6.704  13.679  68.017  1.00  0.00    -0.141 C  
HETATM   16  H   UNL     1      -8.450  13.876  69.958  1.00  0.00     0.000 HD 
HETATM   17  C   UNL     1     -10.025  15.220  68.397  1.00  0.00    -0.220 A  
HETATM   18  C   UNL     1      -6.257  14.914  68.827  1.00  0.00    -0.083 C  
HETATM   19  C   UNL     1     -10.822  16.264  67.927  1.00  0.00    -0.330 A  
HETATM   20  C   UNL     1      -6.241  14.696  70.337  1.00  0.00    -0.168 C  
HETATM   21  C   UNL     1      -5.406  13.483  70.735  1.00  0.00    -0.145 C  
HETATM   22  C   UNL     1     -10.710  16.683  66.608  1.00  0.00    -0.124 A  
HETATM   23  C   UNL     1      -9.800  16.063  65.757  1.00  0.00    -0.357 A  
HETATM   24  C   UNL     1      -5.750  12.227  69.949  1.00  0.00    -0.125 C  
HETATM   25  C   UNL     1      -5.824  12.475  68.444  1.00  0.00    -0.057 C  
HETATM   26  C   UNL     1      -8.998  15.021  66.226  1.00  0.00    -0.233 A  
ENDBRANCH   9  10
ENDBRANCH   8   9
ENDBRANCH   7   8
ENDBRANCH   3   7
ENDBRANCH   2   3
TORSDOF 6
ENDMDL
MODEL      207
REMARK 921   NORMALIZED FREE ENERGY PREDICTED BY IDOCK:   -2.25 KCAL/MOL
REMARK 922        TOTAL FREE ENERGY PREDICTED BY IDOCK:   -3.94 KCAL/MOL
REMARK 923 INTER-LIGAND FREE ENERGY PREDICTED BY IDOCK:   -3.65 KCAL/MOL
REMARK 924 INTRA-LIGAND FREE ENERGY PREDICTED BY IDOCK:   -0.29 KCAL/MOL
REMARK 927      BINDING AFFINITY PREDICTED BY RF-SCORE:    0.00 PKD
ROOT
HETATM    1  C   UNL     1     -12.005  10.283  69.500  1.00  0.00    -0.087 C  
HETATM    2  C   UNL     1     -11.217  11.499  69.045  1.00  0.00    -0.262 C  
ENDROOT
BRANCH   2   3
HETATM    3  N   UNL     1     -10.600  11.376  67.624  1.00  0.00    -0.193 N  
HETATM    4  C   UNL     1      -9.066  11.323  67.752  1.00  0.00    -0.152 C  
BRANCH   3   5
HETATM    5  C   UNL     1     -11.070  10.115  66.874  1.00  0.00     0.074 C  
HETATM    6  C   UNL     1      -9.935   9.307  66.262  1.00  0.00    -0.357 C  
ENDBRANCH   3   5
BRANCH   3   7
HETATM    7  C   UNL     1     -10.994  12.669  66.880  1.00  0.00    -0.262 C  
BRANCH   7   8
HETATM    8  C   UNL     1     -10.029  13.136  65.787  1.00  0.00    -0.252 C  
BRANCH   8   9
HETATM    9  O   UNL     1     -10.095  14.570  65.809  1.00  0.00    -0.308 OA 
BRANCH   9  10
HETATM   10  C   UNL     1      -9.178  15.203  66.605  1.00  0.00    -0.270 C  
HETATM   11  O   UNL     1      -7.995  14.899  66.652  1.00  0.00    -0.022 OA 
HETATM   12  C   UNL     1      -9.906  16.240  67.520  1.00  0.00    -0.238 C  
HETATM   13  C   UNL     1      -9.686  17.635  66.927  1.00  0.00    -0.292 A  
HETATM   14  O   UNL     1     -11.317  15.972  67.518  1.00  0.00    -0.200 OA 
HETATM   15  C   UNL     1      -9.360  16.083  68.984  1.00  0.00    -0.239 C  
HETATM   16  H   UNL     1     -11.760  16.603  68.074  1.00  0.00     0.000 HD 
HETATM   17  C   UNL     1     -10.772  18.444  66.539  1.00  0.00    -0.232 A  
HETATM   18  C   UNL     1      -9.959  17.081  69.996  1.00  0.00     0.685 C  
HETATM   19  C   UNL     1     -10.568  19.700  65.966  1.00  0.00    -0.584 A  
HETATM   20  C   UNL     1     -11.386  16.751  70.426  1.00  0.00     0.282 C  
HETATM   21  C   UNL     1     -11.513  15.329  70.962  1.00  0.00    -0.396 C  
HETATM   22  C   UNL     1      -9.276  20.172  65.770  1.00  0.00    -0.032 A  
HETATM   23  C   UNL     1      -8.187  19.393  66.149  1.00  0.00    -0.319 A  
HETATM   24  C   UNL     1     -10.902  14.280  70.044  1.00  0.00     0.105 C  
HETATM   25  C   UNL     1      -9.499  14.654  69.571  1.00  0.00     0.167 C  
HETATM   26  C   UNL     1      -8.389  18.138  66.725  1.00  0.00    -0.270 A  
ENDBRANCH   9  10
ENDBRANCH   8   9
ENDBRANCH   7   8
ENDBRANCH   3   7
ENDBRANCH   2   3
TORSDOF 6
ENDMDL
MODEL      208
REMARK 921   NORMALIZED FREE ENERGY PREDICTED BY IDOCK:   -2.19 KCAL/MOL
REMARK 922        TOTAL FREE ENERGY PREDICTED BY IDOCK:   -3.86 KCAL/MOL
REMARK 923 INTER-LIGAND FREE ENERGY PREDICTED BY IDOCK:   -3.34 KCAL/MOL
REMARK 924 INTRA-LIGAND FREE ENERGY PREDICTED BY IDOCK:   -0.51 KCAL/MOL
REMARK 927      BINDING AFFINITY PREDICTED BY RF-SCORE:    0.00 PKD
ROOT
HETATM    1  C   UNL     1     -12.951   9.302  71.562  1.00  0.00    -0.429 C  
HETATM    2  C   UNL     1     -11.479   9.230  71.192  1.00  0.00    -0.333 C  
ENDROOT
BRANCH   2   3
HETATM    3  N   UNL     1     -10.737   7.976  71.729  1.00  0.00    -0.230 N  
HETATM    4  C   UNL     1      -9.629   8.432  72.697  1.00  0.00    -0.267 C  
BRANCH   3   5
HETATM    5  C   UNL     1     -11.669   7.004  72.479  1.00  0.00    -0.162 C  
HETATM    6  C   UNL     1     -10.947   6.107  73.472  1.00  0.00    -0.116 C  
ENDBRANCH   3   5
BRANCH   3   7
HETATM    7  C   UNL     1     -10.084   7.313  70.499  1.00  0.00    -0.191 C  
BRANCH   7   8
HETATM    8  C   UNL     1      -8.677   7.801  70.140  1.00  0.00    -0.140 C  
BRANCH   8   9
HETATM    9  O   UNL     1      -8.473   7.400  68.777  1.00  0.00    -0.128 OA 
BRANCH   9  10
HETATM   10  C   UNL     1      -8.715   8.355  67.825  1.00  0.00    -0.137 C  
HETATM   11  O   UNL     1      -9.835   8.675  67.455  1.00  0.00    -0.167 OA 
HETATM   12  C   UNL     1      -7.361   8.837  67.211  1.00  0.00    -0.081 C  
HETATM   13  C   UNL     1      -7.010  10.190  67.835  1.00  0.00    -0.083 A  
HETATM   14  O   UNL     1      -6.323   7.906  67.552  1.00  0.00    -0.052 OA 
HETATM   15  C   UNL     1      -7.511   8.883  65.648  1.00  0.00    -0.086 C  
HETATM   16  H   UNL     1      -5.500   8.199  67.179  1.00  0.00     0.000 HD 
HETATM   17  C   UNL     1      -5.811  10.377  68.550  1.00  0.00    -0.040 A  
HETATM   18  C   UNL     1      -6.259   9.389  64.904  1.00  0.00    -0.072 C  
HETATM   19  C   UNL     1      -5.510  11.601  69.149  1.00  0.00    -0.047 A  
HETATM   20  C   UNL     1      -5.125   8.370  64.828  1.00  0.00    -0.035 C  
HETATM   21  C   UNL     1      -5.582   7.042  64.232  1.00  0.00    -0.032 C  
HETATM   22  C   UNL     1      -6.400  12.662  69.045  1.00  0.00    -0.092 A  
HETATM   23  C   UNL     1      -7.590  12.504  68.341  1.00  0.00    -0.129 A  
HETATM   24  C   UNL     1      -6.845   6.492  64.879  1.00  0.00    -0.046 C  
HETATM   25  C   UNL     1      -7.949   7.540  65.005  1.00  0.00    -0.132 C  
HETATM   26  C   UNL     1      -7.892  11.282  67.739  1.00  0.00    -0.115 A  
ENDBRANCH   9  10
ENDBRANCH   8   9
ENDBRANCH   7   8
ENDBRANCH   3   7
ENDBRANCH   2   3
TORSDOF 6
ENDMDL
MODEL      209
REMARK 921   NORMALIZED FREE ENERGY PREDICTED BY IDOCK:   -2.14 KCAL/MOL
REMARK 922        TOTAL FREE ENERGY PREDICTED BY IDOCK:   -3.79 KCAL/MOL
REMARK 923 INTER-LIGAND FREE ENERGY PREDICTED BY IDOCK:   -2.72 KCAL/MOL
REMARK 924 INTRA-LIGAND FREE ENERGY PREDICTED BY IDOCK:   -1.07 KCAL/MOL
REMARK 927      BINDING AFFINITY PREDICTED BY RF-SCORE:    0.00 PKD
ROOT
HETATM    1  C   UNL     1      -7.980   5.728  71.940  1.00  0.00    -0.107 C  
HETATM    2  C   UNL     1      -8.636   6.967  71.354  1.00  0.00    -0.121 C  
ENDROOT
BRANCH   2   3
HETATM    3  N   UNL     1      -7.794   7.692  70.268  1.00  0.00    -0.091 N  
HETATM    4  C   UNL     1      -8.120   9.197  70.311  1.00  0.00    -0.148 C  
BRANCH   3   5
HETATM    5  C   UNL     1      -6.277   7.516  70.469  1.00  0.00    -0.038 C  
HETATM    6  C   UNL     1      -5.531   7.140  69.198  1.00  0.00    -0.015 C  
ENDBRANCH   3   5
BRANCH   3   7
HETATM    7  C   UNL     1      -8.267   7.118  68.916  1.00  0.00    -0.125 C  
BRANCH   7   8
HETATM    8  C   UNL     1      -9.427   7.855  68.240  1.00  0.00    -0.144 C  
BRANCH   8   9
HETATM    9  O   UNL     1      -9.181   7.739  66.831  1.00  0.00    -0.138 OA 
BRANCH   9  10
HETATM   10  C   UNL     1      -9.203   8.908  66.118  1.00  0.00    -0.217 C  
HETATM   11  O   UNL     1     -10.230   9.493  65.806  1.00  0.00    -0.255 OA 
HETATM   12  C   UNL     1      -7.754   9.269  65.658  1.00  0.00    -0.095 C  
HETATM   13  C   UNL     1      -7.222  10.368  66.582  1.00  0.00    -0.113 A  
HETATM   14  O   UNL     1      -6.907   8.119  65.800  1.00  0.00    -0.061 OA 
HETATM   15  C   UNL     1      -7.800   9.685  64.144  1.00  0.00    -0.130 C  
HETATM   16  H   UNL     1      -6.026   8.338  65.521  1.00  0.00     0.000 HD 
HETATM   17  C   UNL     1      -6.053  10.179  67.346  1.00  0.00    -0.057 A  
HETATM   18  C   UNL     1      -6.438  10.115  63.562  1.00  0.00    -0.134 C  
HETATM   19  C   UNL     1      -5.590  11.169  68.214  1.00  0.00    -0.045 A  
HETATM   20  C   UNL     1      -5.487   8.956  63.279  1.00  0.00    -0.068 C  
HETATM   21  C   UNL     1      -6.121   7.894  62.387  1.00  0.00    -0.073 C  
HETATM   22  C   UNL     1      -6.284  12.365  68.336  1.00  0.00    -0.057 A  
HETATM   23  C   UNL     1      -7.439  12.578  67.590  1.00  0.00    -0.139 A  
HETATM   24  C   UNL     1      -7.494   7.444  62.864  1.00  0.00    -0.106 C  
HETATM   25  C   UNL     1      -8.414   8.615  63.203  1.00  0.00    -0.100 C  
HETATM   26  C   UNL     1      -7.903  11.591  66.718  1.00  0.00    -0.146 A  
ENDBRANCH   9  10
ENDBRANCH   8   9
ENDBRANCH   7   8
ENDBRANCH   3   7
ENDBRANCH   2   3
TORSDOF 6
ENDMDL
MODEL      210
REMARK 921   NORMALIZED FREE ENERGY PREDICTED BY IDOCK:   -2.13 KCAL/MOL
REMARK 922        TOTAL FREE ENERGY PREDICTED BY IDOCK:   -3.78 KCAL/MOL
REMARK 923 INTER-LIGAND FREE ENERGY PREDICTED BY IDOCK:   -3.71 KCAL/MOL
REMARK 924 INTRA-LIGAND FREE ENERGY PREDICTED BY IDOCK:   -0.07 KCAL/MOL
REMARK 927      BINDING AFFINITY PREDICTED BY RF-SCORE:    0.00 PKD
ROOT
HETATM    1  C   UNL     1      -8.067   6.353  68.965  1.00  0.00    -0.111 C  
HETATM    2  C   UNL     1      -8.562   7.562  69.740  1.00  0.00    -0.140 C  
ENDROOT
BRANCH   2   3
HETATM    3  N   UNL     1      -9.155   8.697  68.860  1.00  0.00    -0.145 N  
HETATM    4  C   UNL     1      -8.163   9.015  67.727  1.00  0.00    -0.109 C  
BRANCH   3   5
HETATM    5  C   UNL     1     -10.510   8.321  68.231  1.00  0.00    -0.161 C  
HETATM    6  C   UNL     1     -10.614   8.664  66.752  1.00  0.00    -0.223 C  
ENDBRANCH   3   5
BRANCH   3   7
HETATM    7  C   UNL     1      -9.270   9.928  69.783  1.00  0.00    -0.227 C  
BRANCH   7   8
HETATM    8  C   UNL     1     -10.560  10.744  69.657  1.00  0.00    -0.175 C  
BRANCH   8   9
HETATM    9  O   UNL     1     -10.453  11.432  68.402  1.00  0.00    -0.185 OA 
BRANCH   9  10
HETATM   10  C   UNL     1     -10.015  12.729  68.461  1.00  0.00    -0.164 C  
HETATM   11  O   UNL     1      -8.852  13.043  68.665  1.00  0.00    -0.082 OA 
HETATM   12  C   UNL     1     -11.238  13.699  68.378  1.00  0.00    -0.276 C  
HETATM   13  C   UNL     1     -11.304  14.259  66.955  1.00  0.00    -0.354 A  
HETATM   14  O   UNL     1     -12.447  12.966  68.626  1.00  0.00     0.103 OA 
HETATM   15  C   UNL     1     -11.074  14.802  69.484  1.00  0.00    -0.302 C  
HETATM   16  H   UNL     1     -13.190  13.556  68.575  1.00  0.00     0.000 HD 
HETATM   17  C   UNL     1     -12.442  14.069  66.146  1.00  0.00    -0.467 A  
HETATM   18  C   UNL     1     -12.192  15.865  69.491  1.00  0.00    -0.107 C  
HETATM   19  C   UNL     1     -12.487  14.550  64.837  1.00  0.00    -0.321 A  
HETATM   20  C   UNL     1     -13.511  15.378  70.083  1.00  0.00     0.407 C  
HETATM   21  C   UNL     1     -13.336  14.799  71.484  1.00  0.00    -0.452 C  
HETATM   22  C   UNL     1     -11.396  15.230  64.310  1.00  0.00    -0.114 A  
HETATM   23  C   UNL     1     -10.261  15.433  65.089  1.00  0.00    -0.360 A  
HETATM   24  C   UNL     1     -12.217  13.772  71.578  1.00  0.00    -0.175 C  
HETATM   25  C   UNL     1     -10.921  14.249  70.925  1.00  0.00     0.719 C  
HETATM   26  C   UNL     1     -10.216  14.956  66.400  1.00  0.00    -0.292 A  
ENDBRANCH   9  10
ENDBRANCH   8   9
ENDBRANCH   7   8
ENDBRANCH   3   7
ENDBRANCH   2   3
TORSDOF 6
ENDMDL
MODEL      211
REMARK 921   NORMALIZED FREE ENERGY PREDICTED BY IDOCK:   -2.09 KCAL/MOL
REMARK 922        TOTAL FREE ENERGY PREDICTED BY IDOCK:   -3.73 KCAL/MOL
REMARK 923 INTER-LIGAND FREE ENERGY PREDICTED BY IDOCK:   -3.31 KCAL/MOL
REMARK 924 INTRA-LIGAND FREE ENERGY PREDICTED BY IDOCK:   -0.42 KCAL/MOL
REMARK 927      BINDING AFFINITY PREDICTED BY RF-SCORE:    0.00 PKD
ROOT
HETATM    1  C   UNL     1     -11.746   6.054  72.554  1.00  0.00    -0.280 C  
HETATM    2  C   UNL     1     -10.682   5.080  72.078  1.00  0.00    -0.135 C  
ENDROOT
BRANCH   2   3
HETATM    3  N   UNL     1      -9.223   5.591  72.227  1.00  0.00    -0.142 N  
HETATM    4  C   UNL     1      -9.183   6.663  73.332  1.00  0.00    -0.131 C  
BRANCH   3   5
HETATM    5  C   UNL     1      -8.231   4.472  72.599  1.00  0.00    -0.106 C  
HETATM    6  C   UNL     1      -7.895   3.543  71.442  1.00  0.00    -0.060 C  
ENDBRANCH   3   5
BRANCH   3   7
HETATM    7  C   UNL     1      -8.867   6.251  70.879  1.00  0.00    -0.136 C  
BRANCH   7   8
HETATM    8  C   UNL     1      -9.161   7.750  70.765  1.00  0.00    -0.149 C  
BRANCH   8   9
HETATM    9  O   UNL     1      -8.482   8.181  69.576  1.00  0.00    -0.124 OA 
BRANCH   9  10
HETATM   10  C   UNL     1      -9.233   8.213  68.431  1.00  0.00    -0.135 C  
HETATM   11  O   UNL     1     -10.291   8.818  68.330  1.00  0.00    -0.202 OA 
HETATM   12  C   UNL     1      -8.606   7.256  67.366  1.00  0.00    -0.121 C  
HETATM   13  C   UNL     1      -7.841   8.110  66.352  1.00  0.00    -0.093 A  
HETATM   14  O   UNL     1      -7.670   6.377  68.007  1.00  0.00    -0.100 OA 
HETATM   15  C   UNL     1      -9.757   6.398  66.729  1.00  0.00    -0.199 C  
HETATM   16  H   UNL     1      -7.288   5.795  67.360  1.00  0.00     0.000 HD 
HETATM   17  C   UNL     1      -6.461   7.925  66.134  1.00  0.00    -0.046 A  
HETATM   18  C   UNL     1      -9.290   5.434  65.619  1.00  0.00    -0.098 C  
HETATM   19  C   UNL     1      -5.758   8.727  65.235  1.00  0.00    -0.047 A  
HETATM   20  C   UNL     1      -8.567   4.193  66.136  1.00  0.00    -0.113 C  
HETATM   21  C   UNL     1      -9.391   3.434  67.171  1.00  0.00    -0.224 C  
HETATM   22  C   UNL     1      -6.418   9.730  64.537  1.00  0.00    -0.112 A  
HETATM   23  C   UNL     1      -7.781   9.931  64.732  1.00  0.00    -0.138 A  
HETATM   24  C   UNL     1      -9.933   4.322  68.282  1.00  0.00    -0.034 C  
HETATM   25  C   UNL     1     -10.598   5.590  67.752  1.00  0.00    -0.229 C  
HETATM   26  C   UNL     1      -8.487   9.127  65.628  1.00  0.00    -0.151 A  
ENDBRANCH   9  10
ENDBRANCH   8   9
ENDBRANCH   7   8
ENDBRANCH   3   7
ENDBRANCH   2   3
TORSDOF 6
ENDMDL
MODEL      212
REMARK 921   NORMALIZED FREE ENERGY PREDICTED BY IDOCK:   -2.06 KCAL/MOL
REMARK 922        TOTAL FREE ENERGY PREDICTED BY IDOCK:   -3.69 KCAL/MOL
REMARK 923 INTER-LIGAND FREE ENERGY PREDICTED BY IDOCK:   -2.70 KCAL/MOL
REMARK 924 INTRA-LIGAND FREE ENERGY PREDICTED BY IDOCK:   -1.00 KCAL/MOL
REMARK 927      BINDING AFFINITY PREDICTED BY RF-SCORE:    0.00 PKD
ROOT
HETATM    1  C   UNL     1      -9.418   9.359  70.090  1.00  0.00    -0.276 C  
HETATM    2  C   UNL     1      -8.033   9.629  69.527  1.00  0.00    -0.125 C  
ENDROOT
BRANCH   2   3
HETATM    3  N   UNL     1      -6.864   9.091  70.396  1.00  0.00    -0.048 N  
HETATM    4  C   UNL     1      -6.209  10.274  71.134  1.00  0.00     0.148 C  
BRANCH   3   5
HETATM    5  C   UNL     1      -7.322   8.057  71.442  1.00  0.00    -0.070 C  
HETATM    6  C   UNL     1      -7.013   8.459  72.877  1.00  0.00    -0.103 C  
ENDBRANCH   3   5
BRANCH   3   7
HETATM    7  C   UNL     1      -5.842   8.494  69.405  1.00  0.00    -0.030 C  
BRANCH   7   8
HETATM    8  C   UNL     1      -5.450   7.033  69.643  1.00  0.00    -0.015 C  
BRANCH   8   9
HETATM    9  O   UNL     1      -5.989   6.309  68.528  1.00  0.00    -0.018 OA 
BRANCH   9  10
HETATM   10  C   UNL     1      -6.393   5.025  68.782  1.00  0.00    -0.035 C  
HETATM   11  O   UNL     1      -5.663   4.165  69.253  1.00  0.00    -0.016 OA 
HETATM   12  C   UNL     1      -7.846   4.816  68.245  1.00  0.00    -0.081 C  
HETATM   13  C   UNL     1      -8.806   4.876  69.436  1.00  0.00    -0.120 A  
HETATM   14  O   UNL     1      -8.181   5.885  67.348  1.00  0.00    -0.105 OA 
HETATM   15  C   UNL     1      -7.896   3.457  67.460  1.00  0.00    -0.077 C  
HETATM   16  H   UNL     1      -9.065   5.759  67.021  1.00  0.00     0.000 HD 
HETATM   17  C   UNL     1      -9.841   5.829  69.494  1.00  0.00    -0.231 A  
HETATM   18  C   UNL     1      -9.290   3.094  66.908  1.00  0.00    -0.163 C  
HETATM   19  C   UNL     1     -10.693   5.905  70.596  1.00  0.00    -0.353 A  
HETATM   20  C   UNL     1      -9.699   3.893  65.675  1.00  0.00    -0.170 C  
HETATM   21  C   UNL     1      -8.661   3.807  64.561  1.00  0.00    -0.114 C  
HETATM   22  C   UNL     1     -10.528   5.030  71.662  1.00  0.00    -0.232 A  
HETATM   23  C   UNL     1      -9.514   4.077  71.628  1.00  0.00    -0.216 A  
HETATM   24  C   UNL     1      -7.244   4.105  65.030  1.00  0.00    -0.071 C  
HETATM   25  C   UNL     1      -6.871   3.346  66.301  1.00  0.00    -0.053 C  
HETATM   26  C   UNL     1      -8.663   3.997  70.525  1.00  0.00    -0.120 A  
ENDBRANCH   9  10
ENDBRANCH   8   9
ENDBRANCH   7   8
ENDBRANCH   3   7
ENDBRANCH   2   3
TORSDOF 6
ENDMDL
MODEL      213
REMARK 921   NORMALIZED FREE ENERGY PREDICTED BY IDOCK:   -2.05 KCAL/MOL
REMARK 922        TOTAL FREE ENERGY PREDICTED BY IDOCK:   -3.67 KCAL/MOL
REMARK 923 INTER-LIGAND FREE ENERGY PREDICTED BY IDOCK:   -3.12 KCAL/MOL
REMARK 924 INTRA-LIGAND FREE ENERGY PREDICTED BY IDOCK:   -0.55 KCAL/MOL
REMARK 927      BINDING AFFINITY PREDICTED BY RF-SCORE:    0.00 PKD
ROOT
HETATM    1  C   UNL     1      -9.511   7.558  72.917  1.00  0.00    -0.239 C  
HETATM    2  C   UNL     1      -8.990   6.282  73.556  1.00  0.00    -0.124 C  
ENDROOT
BRANCH   2   3
HETATM    3  N   UNL     1      -9.584   4.974  72.966  1.00  0.00    -0.141 N  
HETATM    4  C   UNL     1      -8.644   3.803  73.308  1.00  0.00    -0.090 C  
BRANCH   3   5
HETATM    5  C   UNL     1     -10.986   4.651  73.518  1.00  0.00    -0.318 C  
HETATM    6  C   UNL     1     -11.317   3.166  73.519  1.00  0.00    -0.237 C  
ENDBRANCH   3   5
BRANCH   3   7
HETATM    7  C   UNL     1      -9.599   5.170  71.435  1.00  0.00    -0.161 C  
BRANCH   7   8
HETATM    8  C   UNL     1      -8.435   4.541  70.665  1.00  0.00    -0.086 C  
BRANCH   8   9
HETATM    9  O   UNL     1      -8.898   4.415  69.313  1.00  0.00    -0.084 OA 
BRANCH   9  10
HETATM   10  C   UNL     1      -7.931   4.400  68.343  1.00  0.00    -0.078 C  
HETATM   11  O   UNL     1      -6.877   3.790  68.445  1.00  0.00    -0.045 OA 
HETATM   12  C   UNL     1      -8.328   5.382  67.193  1.00  0.00    -0.107 C  
HETATM   13  C   UNL     1      -8.875   4.554  66.028  1.00  0.00    -0.119 A  
HETATM   14  O   UNL     1      -9.372   6.255  67.650  1.00  0.00    -0.119 OA 
HETATM   15  C   UNL     1      -7.070   6.245  66.819  1.00  0.00    -0.073 C  
HETATM   16  H   UNL     1      -9.614   6.852  66.951  1.00  0.00     0.000 HD 
HETATM   17  C   UNL     1     -10.181   4.753  65.539  1.00  0.00    -0.162 A  
HETATM   18  C   UNL     1      -7.300   7.234  65.659  1.00  0.00    -0.075 C  
HETATM   19  C   UNL     1     -10.690   3.973  64.500  1.00  0.00    -0.181 A  
HETATM   20  C   UNL     1      -8.110   8.469  66.044  1.00  0.00    -0.110 C  
HETATM   21  C   UNL     1      -7.510   9.202  67.240  1.00  0.00    -0.088 C  
HETATM   22  C   UNL     1      -9.905   2.979  63.929  1.00  0.00    -0.154 A  
HETATM   23  C   UNL     1      -8.611   2.766  64.392  1.00  0.00    -0.091 A  
HETATM   24  C   UNL     1      -7.206   8.288  68.419  1.00  0.00    -0.092 C  
HETATM   25  C   UNL     1      -6.450   7.026  68.008  1.00  0.00    -0.047 C  
HETATM   26  C   UNL     1      -8.098   3.547  65.429  1.00  0.00    -0.097 A  
ENDBRANCH   9  10
ENDBRANCH   8   9
ENDBRANCH   7   8
ENDBRANCH   3   7
ENDBRANCH   2   3
TORSDOF 6
ENDMDL
MODEL      214
REMARK 921   NORMALIZED FREE ENERGY PREDICTED BY IDOCK:   -2.03 KCAL/MOL
REMARK 922        TOTAL FREE ENERGY PREDICTED BY IDOCK:   -3.64 KCAL/MOL
REMARK 923 INTER-LIGAND FREE ENERGY PREDICTED BY IDOCK:   -3.22 KCAL/MOL
REMARK 924 INTRA-LIGAND FREE ENERGY PREDICTED BY IDOCK:   -0.43 KCAL/MOL
REMARK 927      BINDING AFFINITY PREDICTED BY RF-SCORE:    0.00 PKD
ROOT
HETATM    1  C   UNL     1      -9.830   7.181  73.290  1.00  0.00    -0.275 C  
HETATM    2  C   UNL     1     -10.950   8.183  73.067  1.00  0.00    -0.111 C  
ENDROOT
BRANCH   2   3
HETATM    3  N   UNL     1     -11.668   8.056  71.695  1.00  0.00    -0.272 N  
HETATM    4  C   UNL     1     -12.669   6.888  71.766  1.00  0.00    -0.327 C  
BRANCH   3   5
HETATM    5  C   UNL     1     -12.436   9.333  71.301  1.00  0.00    -0.316 C  
HETATM    6  C   UNL     1     -13.918   9.102  71.048  1.00  0.00     0.023 C  
ENDBRANCH   3   5
BRANCH   3   7
HETATM    7  C   UNL     1     -10.566   7.708  70.673  1.00  0.00    -0.221 C  
BRANCH   7   8
HETATM    8  C   UNL     1     -11.034   7.019  69.388  1.00  0.00    -0.201 C  
BRANCH   8   9
HETATM    9  O   UNL     1     -10.242   7.594  68.338  1.00  0.00    -0.188 OA 
BRANCH   9  10
HETATM   10  C   UNL     1      -8.914   7.258  68.332  1.00  0.00    -0.126 C  
HETATM   11  O   UNL     1      -8.456   6.290  68.921  1.00  0.00    -0.118 OA 
HETATM   12  C   UNL     1      -8.097   8.370  67.597  1.00  0.00    -0.118 C  
HETATM   13  C   UNL     1      -7.769   7.866  66.189  1.00  0.00    -0.091 A  
HETATM   14  O   UNL     1      -8.903   9.551  67.472  1.00  0.00    -0.125 OA 
HETATM   15  C   UNL     1      -6.828   8.707  68.459  1.00  0.00    -0.064 C  
HETATM   16  H   UNL     1      -8.406  10.227  67.025  1.00  0.00     0.000 HD 
HETATM   17  C   UNL     1      -8.194   8.568  65.044  1.00  0.00    -0.160 A  
HETATM   18  C   UNL     1      -5.896   9.763  67.831  1.00  0.00    -0.040 C  
HETATM   19  C   UNL     1      -7.924   8.089  63.762  1.00  0.00    -0.123 A  
HETATM   20  C   UNL     1      -6.419  11.193  67.928  1.00  0.00    -0.058 C  
HETATM   21  C   UNL     1      -6.757  11.587  69.362  1.00  0.00    -0.116 C  
HETATM   22  C   UNL     1      -7.225   6.899  63.598  1.00  0.00    -0.067 A  
HETATM   23  C   UNL     1      -6.792   6.189  64.713  1.00  0.00    -0.047 A  
HETATM   24  C   UNL     1      -7.640  10.573  70.076  1.00  0.00     0.044 C  
HETATM   25  C   UNL     1      -7.138   9.139  69.917  1.00  0.00    -0.056 C  
HETATM   26  C   UNL     1      -7.058   6.668  65.997  1.00  0.00    -0.062 A  
ENDBRANCH   9  10
ENDBRANCH   8   9
ENDBRANCH   7   8
ENDBRANCH   3   7
ENDBRANCH   2   3
TORSDOF 6
ENDMDL
MODEL      215
REMARK 921   NORMALIZED FREE ENERGY PREDICTED BY IDOCK:   -1.94 KCAL/MOL
REMARK 922        TOTAL FREE ENERGY PREDICTED BY IDOCK:   -3.52 KCAL/MOL
REMARK 923 INTER-LIGAND FREE ENERGY PREDICTED BY IDOCK:   -3.60 KCAL/MOL
REMARK 924 INTRA-LIGAND FREE ENERGY PREDICTED BY IDOCK:    0.08 KCAL/MOL
REMARK 927      BINDING AFFINITY PREDICTED BY RF-SCORE:    0.00 PKD
ROOT
HETATM    1  C   UNL     1      -5.703  14.601  70.162  1.00  0.00    -0.129 C  
HETATM    2  C   UNL     1      -5.369  13.148  70.456  1.00  0.00    -0.144 C  
ENDROOT
BRANCH   2   3
HETATM    3  N   UNL     1      -5.902  12.136  69.405  1.00  0.00    -0.078 N  
HETATM    4  C   UNL     1      -5.208  12.410  68.057  1.00  0.00    -0.073 C  
BRANCH   3   5
HETATM    5  C   UNL     1      -5.640  10.670  69.799  1.00  0.00    -0.043 C  
HETATM    6  C   UNL     1      -5.330  10.479  71.276  1.00  0.00    -0.070 C  
ENDBRANCH   3   5
BRANCH   3   7
HETATM    7  C   UNL     1      -7.409  12.433  69.259  1.00  0.00     0.209 C  
BRANCH   7   8
HETATM    8  C   UNL     1      -8.303  11.232  68.937  1.00  0.00    -0.071 C  
BRANCH   8   9
HETATM    9  O   UNL     1      -9.304  11.734  68.039  1.00  0.00    -0.171 OA 
BRANCH   9  10
HETATM   10  C   UNL     1      -8.849  12.230  66.846  1.00  0.00    -0.207 C  
HETATM   11  O   UNL     1      -8.075  13.171  66.753  1.00  0.00     0.008 OA 
HETATM   12  C   UNL     1      -9.580  11.509  65.667  1.00  0.00    -0.231 C  
HETATM   13  C   UNL     1      -8.625  10.464  65.083  1.00  0.00    -0.189 A  
HETATM   14  O   UNL     1     -10.737  10.824  66.169  1.00  0.00    -0.210 OA 
HETATM   15  C   UNL     1     -10.040  12.594  64.629  1.00  0.00    -0.260 C  
HETATM   16  H   UNL     1     -11.181  10.386  65.453  1.00  0.00     0.000 HD 
HETATM   17  C   UNL     1      -8.967   9.098  65.049  1.00  0.00    -0.221 A  
HETATM   18  C   UNL     1     -10.740  12.022  63.379  1.00  0.00    -0.475 C  
HETATM   19  C   UNL     1      -8.081   8.143  64.549  1.00  0.00    -0.142 A  
HETATM   20  C   UNL     1     -12.173  11.559  63.626  1.00  0.00    -0.154 C  
HETATM   21  C   UNL     1     -13.034  12.654  64.247  1.00  0.00    -0.204 C  
HETATM   22  C   UNL     1      -6.836   8.534  64.073  1.00  0.00    -0.075 A  
HETATM   23  C   UNL     1      -6.475   9.877  64.093  1.00  0.00    -0.126 A  
HETATM   24  C   UNL     1     -12.395  13.309  65.463  1.00  0.00    -0.533 C  
HETATM   25  C   UNL     1     -10.941  13.709  65.222  1.00  0.00    -0.314 C  
HETATM   26  C   UNL     1      -7.361  10.835  64.589  1.00  0.00     0.306 A  
ENDBRANCH   9  10
ENDBRANCH   8   9
ENDBRANCH   7   8
ENDBRANCH   3   7
ENDBRANCH   2   3
TORSDOF 6
ENDMDL
MODEL      216
REMARK 921   NORMALIZED FREE ENERGY PREDICTED BY IDOCK:   -1.89 KCAL/MOL
REMARK 922        TOTAL FREE ENERGY PREDICTED BY IDOCK:   -3.46 KCAL/MOL
REMARK 923 INTER-LIGAND FREE ENERGY PREDICTED BY IDOCK:   -3.78 KCAL/MOL
REMARK 924 INTRA-LIGAND FREE ENERGY PREDICTED BY IDOCK:    0.32 KCAL/MOL
REMARK 927      BINDING AFFINITY PREDICTED BY RF-SCORE:    0.00 PKD
ROOT
HETATM    1  C   UNL     1      -8.530   5.787  67.305  1.00  0.00    -0.107 C  
HETATM    2  C   UNL     1      -7.817   6.945  67.983  1.00  0.00    -0.114 C  
ENDROOT
BRANCH   2   3
HETATM    3  N   UNL     1      -8.629   8.269  68.025  1.00  0.00    -0.131 N  
HETATM    4  C   UNL     1      -7.889   9.276  68.925  1.00  0.00    -0.087 C  
BRANCH   3   5
HETATM    5  C   UNL     1      -8.814   8.903  66.633  1.00  0.00    -0.129 C  
HETATM    6  C   UNL     1      -9.657  10.170  66.644  1.00  0.00    -0.230 C  
ENDBRANCH   3   5
BRANCH   3   7
HETATM    7  C   UNL     1      -9.980   7.914  68.680  1.00  0.00    -0.191 C  
BRANCH   7   8
HETATM    8  C   UNL     1      -9.919   6.951  69.869  1.00  0.00    -0.176 C  
BRANCH   8   9
HETATM    9  O   UNL     1      -9.796   7.787  71.029  1.00  0.00    -0.174 OA 
BRANCH   9  10
HETATM   10  C   UNL     1      -9.974   7.169  72.239  1.00  0.00    -0.172 C  
HETATM   11  O   UNL     1     -10.923   7.385  72.977  1.00  0.00    -0.335 OA 
HETATM   12  C   UNL     1      -8.725   6.289  72.566  1.00  0.00    -0.120 C  
HETATM   13  C   UNL     1      -9.082   4.829  72.276  1.00  0.00    -0.144 A  
HETATM   14  O   UNL     1      -7.638   6.663  71.706  1.00  0.00    -0.091 OA 
HETATM   15  C   UNL     1      -8.307   6.552  74.058  1.00  0.00    -0.129 C  
HETATM   16  H   UNL     1      -6.878   6.128  71.904  1.00  0.00     0.000 HD 
HETATM   17  C   UNL     1      -8.351   4.070  71.340  1.00  0.00    -0.086 A  
HETATM   18  C   UNL     1      -7.108   5.712  74.539  1.00  0.00    -0.085 C  
HETATM   19  C   UNL     1      -8.700   2.750  71.051  1.00  0.00    -0.119 A  
HETATM   20  C   UNL     1      -5.759   6.191  74.011  1.00  0.00    -0.054 C  
HETATM   21  C   UNL     1      -5.513   7.666  74.312  1.00  0.00    -0.061 C  
HETATM   22  C   UNL     1      -9.786   2.163  71.689  1.00  0.00    -0.217 A  
HETATM   23  C   UNL     1     -10.521   2.891  72.619  1.00  0.00    -0.180 A  
HETATM   24  C   UNL     1      -6.672   8.567  73.910  1.00  0.00    -0.124 C  
HETATM   25  C   UNL     1      -8.023   8.040  74.392  1.00  0.00    -0.299 C  
HETATM   26  C   UNL     1     -10.172   4.211  72.913  1.00  0.00    -0.228 A  
ENDBRANCH   9  10
ENDBRANCH   8   9
ENDBRANCH   7   8
ENDBRANCH   3   7
ENDBRANCH   2   3
TORSDOF 6
ENDMDL
MODEL      217
REMARK 921   NORMALIZED FREE ENERGY PREDICTED BY IDOCK:   -1.87 KCAL/MOL
REMARK 922        TOTAL FREE ENERGY PREDICTED BY IDOCK:   -3.43 KCAL/MOL
REMARK 923 INTER-LIGAND FREE ENERGY PREDICTED BY IDOCK:   -2.93 KCAL/MOL
REMARK 924 INTRA-LIGAND FREE ENERGY PREDICTED BY IDOCK:   -0.50 KCAL/MOL
REMARK 927      BINDING AFFINITY PREDICTED BY RF-SCORE:    0.00 PKD
ROOT
HETATM    1  C   UNL     1     -13.484   8.372  71.746  1.00  0.00    -0.388 C  
HETATM    2  C   UNL     1     -12.365   8.858  70.840  1.00  0.00    -0.090 C  
ENDROOT
BRANCH   2   3
HETATM    3  N   UNL     1     -11.084   7.980  70.865  1.00  0.00    -0.251 N  
HETATM    4  C   UNL     1     -10.614   7.747  69.417  1.00  0.00    -0.208 C  
BRANCH   3   5
HETATM    5  C   UNL     1      -9.930   8.627  71.654  1.00  0.00    -0.282 C  
HETATM    6  C   UNL     1      -8.580   8.525  70.960  1.00  0.00    -0.190 C  
ENDBRANCH   3   5
BRANCH   3   7
HETATM    7  C   UNL     1     -11.511   6.628  71.475  1.00  0.00    -0.297 C  
BRANCH   7   8
HETATM    8  C   UNL     1     -10.883   5.380  70.849  1.00  0.00    -0.120 C  
BRANCH   8   9
HETATM    9  O   UNL     1     -10.458   4.573  71.957  1.00  0.00    -0.178 OA 
BRANCH   9  10
HETATM   10  C   UNL     1      -9.807   3.410  71.640  1.00  0.00    -0.152 C  
HETATM   11  O   UNL     1     -10.340   2.310  71.652  1.00  0.00    -0.011 OA 
HETATM   12  C   UNL     1      -8.288   3.703  71.418  1.00  0.00    -0.072 C  
HETATM   13  C   UNL     1      -8.026   3.733  69.909  1.00  0.00    -0.054 A  
HETATM   14  O   UNL     1      -7.968   4.996  71.952  1.00  0.00    -0.105 OA 
HETATM   15  C   UNL     1      -7.453   2.614  72.183  1.00  0.00    -0.047 C  
HETATM   16  H   UNL     1      -7.045   5.175  71.816  1.00  0.00     0.000 HD 
HETATM   17  C   UNL     1      -7.500   4.879  69.281  1.00  0.00    -0.057 A  
HETATM   18  C   UNL     1      -5.927   2.750  72.014  1.00  0.00    -0.013 C  
HETATM   19  C   UNL     1      -7.295   4.916  67.901  1.00  0.00    -0.071 A  
HETATM   20  C   UNL     1      -5.309   3.885  72.826  1.00  0.00     0.000 C  
HETATM   21  C   UNL     1      -5.661   3.792  74.307  1.00  0.00    -0.004 C  
HETATM   22  C   UNL     1      -7.611   3.810  67.122  1.00  0.00    -0.079 A  
HETATM   23  C   UNL     1      -8.128   2.665  67.720  1.00  0.00    -0.072 A  
HETATM   24  C   UNL     1      -7.150   3.609  74.564  1.00  0.00    -0.052 C  
HETATM   25  C   UNL     1      -7.767   2.512  73.698  1.00  0.00    -0.050 C  
HETATM   26  C   UNL     1      -8.331   2.624  69.100  1.00  0.00    -0.086 A  
ENDBRANCH   9  10
ENDBRANCH   8   9
ENDBRANCH   7   8
ENDBRANCH   3   7
ENDBRANCH   2   3
TORSDOF 6
ENDMDL
MODEL      218
REMARK 921   NORMALIZED FREE ENERGY PREDICTED BY IDOCK:   -1.85 KCAL/MOL
REMARK 922        TOTAL FREE ENERGY PREDICTED BY IDOCK:   -3.40 KCAL/MOL
REMARK 923 INTER-LIGAND FREE ENERGY PREDICTED BY IDOCK:   -3.27 KCAL/MOL
REMARK 924 INTRA-LIGAND FREE ENERGY PREDICTED BY IDOCK:   -0.13 KCAL/MOL
REMARK 927      BINDING AFFINITY PREDICTED BY RF-SCORE:    0.00 PKD
ROOT
HETATM    1  C   UNL     1      -8.988  16.280  67.053  1.00  0.00    -0.227 C  
HETATM    2  C   UNL     1      -9.982  15.134  67.129  1.00  0.00    -0.237 C  
ENDROOT
BRANCH   2   3
HETATM    3  N   UNL     1      -9.944  14.331  68.458  1.00  0.00    -0.232 N  
HETATM    4  C   UNL     1      -9.249  15.185  69.534  1.00  0.00    -0.135 C  
BRANCH   3   5
HETATM    5  C   UNL     1     -11.348  13.952  68.968  1.00  0.00    -0.283 C  
HETATM    6  C   UNL     1     -11.809  12.571  68.524  1.00  0.00    -0.341 C  
ENDBRANCH   3   5
BRANCH   3   7
HETATM    7  C   UNL     1      -9.079  13.085  68.173  1.00  0.00    -0.204 C  
BRANCH   7   8
HETATM    8  C   UNL     1      -9.289  12.418  66.811  1.00  0.00    -0.220 C  
BRANCH   8   9
HETATM    9  O   UNL     1      -8.483  11.231  66.842  1.00  0.00    -0.141 OA 
BRANCH   9  10
HETATM   10  C   UNL     1      -9.152  10.053  67.045  1.00  0.00    -0.142 C  
HETATM   11  O   UNL     1     -10.366   9.940  66.966  1.00  0.00    -0.222 OA 
HETATM   12  C   UNL     1      -8.148   8.955  67.524  1.00  0.00    -0.109 C  
HETATM   13  C   UNL     1      -7.829   8.049  66.332  1.00  0.00    -0.097 A  
HETATM   14  O   UNL     1      -6.926   9.579  67.950  1.00  0.00    -0.077 OA 
HETATM   15  C   UNL     1      -8.784   8.196  68.743  1.00  0.00    -0.138 C  
HETATM   16  H   UNL     1      -6.315   8.912  68.241  1.00  0.00     0.000 HD 
HETATM   17  C   UNL     1      -6.509   7.892  65.865  1.00  0.00    -0.042 A  
HETATM   18  C   UNL     1      -7.919   7.045  69.296  1.00  0.00    -0.119 C  
HETATM   19  C   UNL     1      -6.226   7.093  64.757  1.00  0.00    -0.037 A  
HETATM   20  C   UNL     1      -6.725   7.507  70.127  1.00  0.00    -0.050 C  
HETATM   21  C   UNL     1      -7.138   8.438  71.262  1.00  0.00    -0.070 C  
HETATM   22  C   UNL     1      -7.254   6.436  64.093  1.00  0.00    -0.065 A  
HETATM   23  C   UNL     1      -8.566   6.573  64.537  1.00  0.00     0.247 A  
HETATM   24  C   UNL     1      -8.036   9.581  70.811  1.00  0.00    -0.081 C  
HETATM   25  C   UNL     1      -9.191   9.111  69.928  1.00  0.00    -0.194 C  
HETATM   26  C   UNL     1      -8.852   7.369  65.648  1.00  0.00    -0.056 A  
ENDBRANCH   9  10
ENDBRANCH   8   9
ENDBRANCH   7   8
ENDBRANCH   3   7
ENDBRANCH   2   3
TORSDOF 6
ENDMDL
MODEL      219
REMARK 921   NORMALIZED FREE ENERGY PREDICTED BY IDOCK:   -1.84 KCAL/MOL
REMARK 922        TOTAL FREE ENERGY PREDICTED BY IDOCK:   -3.39 KCAL/MOL
REMARK 923 INTER-LIGAND FREE ENERGY PREDICTED BY IDOCK:   -3.69 KCAL/MOL
REMARK 924 INTRA-LIGAND FREE ENERGY PREDICTED BY IDOCK:    0.31 KCAL/MOL
REMARK 927      BINDING AFFINITY PREDICTED BY RF-SCORE:    0.00 PKD
ROOT
HETATM    1  C   UNL     1     -13.475   9.985  71.724  1.00  0.00    -0.422 C  
HETATM    2  C   UNL     1     -12.854   8.832  72.494  1.00  0.00    -0.316 C  
ENDROOT
BRANCH   2   3
HETATM    3  N   UNL     1     -11.522   8.300  71.899  1.00  0.00    -0.288 N  
HETATM    4  C   UNL     1     -10.626   7.805  73.050  1.00  0.00    -0.379 C  
BRANCH   3   5
HETATM    5  C   UNL     1     -11.730   7.137  70.909  1.00  0.00    -0.328 C  
HETATM    6  C   UNL     1     -13.094   6.472  71.024  1.00  0.00     0.391 C  
ENDBRANCH   3   5
BRANCH   3   7
HETATM    7  C   UNL     1     -10.845   9.513  71.227  1.00  0.00    -0.343 C  
BRANCH   7   8
HETATM    8  C   UNL     1      -9.976   9.207  70.004  1.00  0.00    -0.199 C  
BRANCH   8   9
HETATM    9  O   UNL     1      -8.639   9.552  70.392  1.00  0.00    -0.200 OA 
BRANCH   9  10
HETATM   10  C   UNL     1      -7.651   8.698  69.978  1.00  0.00    -0.068 C  
HETATM   11  O   UNL     1      -6.889   8.121  70.740  1.00  0.00    -0.037 OA 
HETATM   12  C   UNL     1      -7.571   8.706  68.417  1.00  0.00    -0.096 C  
HETATM   13  C   UNL     1      -8.262   7.442  67.899  1.00  0.00    -0.120 A  
HETATM   14  O   UNL     1      -8.284   9.844  67.909  1.00  0.00    -0.112 OA 
HETATM   15  C   UNL     1      -6.063   8.821  67.996  1.00  0.00    -0.051 C  
HETATM   16  H   UNL     1      -8.236   9.850  66.960  1.00  0.00     0.000 HD 
HETATM   17  C   UNL     1      -9.365   7.516  67.027  1.00  0.00    -0.186 A  
HETATM   18  C   UNL     1      -5.825   8.794  66.473  1.00  0.00    -0.051 C  
HETATM   19  C   UNL     1     -10.015   6.364  66.583  1.00  0.00    -0.207 A  
HETATM   20  C   UNL     1      -6.186  10.095  65.763  1.00  0.00    -0.100 C  
HETATM   21  C   UNL     1      -5.483  11.301  66.377  1.00  0.00    -0.139 C  
HETATM   22  C   UNL     1      -9.575   5.115  67.003  1.00  0.00    -0.155 A  
HETATM   23  C   UNL     1      -8.485   5.014  67.862  1.00  0.00    -0.104 A  
HETATM   24  C   UNL     1      -5.628  11.380  67.890  1.00  0.00    -0.044 C  
HETATM   25  C   UNL     1      -5.324  10.053  68.581  1.00  0.00    -0.039 C  
HETATM   26  C   UNL     1      -7.832   6.166  68.304  1.00  0.00    -0.104 A  
ENDBRANCH   9  10
ENDBRANCH   8   9
ENDBRANCH   7   8
ENDBRANCH   3   7
ENDBRANCH   2   3
TORSDOF 6
ENDMDL
MODEL      220
REMARK 921   NORMALIZED FREE ENERGY PREDICTED BY IDOCK:   -1.69 KCAL/MOL
REMARK 922        TOTAL FREE ENERGY PREDICTED BY IDOCK:   -3.18 KCAL/MOL
REMARK 923 INTER-LIGAND FREE ENERGY PREDICTED BY IDOCK:   -2.77 KCAL/MOL
REMARK 924 INTRA-LIGAND FREE ENERGY PREDICTED BY IDOCK:   -0.42 KCAL/MOL
REMARK 927      BINDING AFFINITY PREDICTED BY RF-SCORE:    0.00 PKD
ROOT
HETATM    1  C   UNL     1      -9.522   9.394  70.101  1.00  0.00    -0.276 C  
HETATM    2  C   UNL     1      -8.323   9.559  69.183  1.00  0.00    -0.125 C  
ENDROOT
BRANCH   2   3
HETATM    3  N   UNL     1      -6.976   9.073  69.783  1.00  0.00    -0.052 N  
HETATM    4  C   UNL     1      -6.044  10.286  69.960  1.00  0.00    -0.071 C  
BRANCH   3   5
HETATM    5  C   UNL     1      -7.144   8.384  71.151  1.00  0.00    -0.066 C  
HETATM    6  C   UNL     1      -6.306   9.007  72.258  1.00  0.00     0.041 C  
ENDBRANCH   3   5
BRANCH   3   7
HETATM    7  C   UNL     1      -6.364   8.123  68.732  1.00  0.00    -0.045 C  
BRANCH   7   8
HETATM    8  C   UNL     1      -6.106   6.686  69.193  1.00  0.00    -0.026 C  
BRANCH   8   9
HETATM    9  O   UNL     1      -6.663   5.853  68.166  1.00  0.00    -0.053 OA 
BRANCH   9  10
HETATM   10  C   UNL     1      -7.969   6.095  67.835  1.00  0.00    -0.110 C  
HETATM   11  O   UNL     1      -8.815   6.466  68.636  1.00  0.00    -0.121 OA 
HETATM   12  C   UNL     1      -8.218   5.685  66.347  1.00  0.00    -0.107 C  
HETATM   13  C   UNL     1      -8.236   6.959  65.499  1.00  0.00    -0.135 A  
HETATM   14  O   UNL     1      -7.134   4.861  65.891  1.00  0.00    -0.065 OA 
HETATM   15  C   UNL     1      -9.552   4.858  66.274  1.00  0.00    -0.180 C  
HETATM   16  H   UNL     1      -7.284   4.612  64.987  1.00  0.00     0.000 HD 
HETATM   17  C   UNL     1      -7.327   7.146  64.439  1.00  0.00    -0.082 A  
HETATM   18  C   UNL     1      -9.952   4.422  64.850  1.00  0.00    -0.139 C  
HETATM   19  C   UNL     1      -7.322   8.323  63.690  1.00  0.00    -0.108 A  
HETATM   20  C   UNL     1      -9.129   3.261  64.300  1.00  0.00    -0.122 C  
HETATM   21  C   UNL     1      -9.137   2.055  65.233  1.00  0.00    -0.107 C  
HETATM   22  C   UNL     1      -8.224   9.337  63.985  1.00  0.00    -0.164 A  
HETATM   23  C   UNL     1      -9.135   9.176  65.025  1.00  0.00    -0.215 A  
HETATM   24  C   UNL     1      -8.797   2.404  66.675  1.00  0.00    -0.139 C  
HETATM   25  C   UNL     1      -9.583   3.608  67.192  1.00  0.00    -0.194 C  
HETATM   26  C   UNL     1      -9.144   7.997  65.774  1.00  0.00    -0.109 A  
ENDBRANCH   9  10
ENDBRANCH   8   9
ENDBRANCH   7   8
ENDBRANCH   3   7
ENDBRANCH   2   3
TORSDOF 6
ENDMDL
MODEL      221
REMARK 921   NORMALIZED FREE ENERGY PREDICTED BY IDOCK:   -1.66 KCAL/MOL
REMARK 922        TOTAL FREE ENERGY PREDICTED BY IDOCK:   -3.15 KCAL/MOL
REMARK 923 INTER-LIGAND FREE ENERGY PREDICTED BY IDOCK:   -4.04 KCAL/MOL
REMARK 924 INTRA-LIGAND FREE ENERGY PREDICTED BY IDOCK:    0.89 KCAL/MOL
REMARK 927      BINDING AFFINITY PREDICTED BY RF-SCORE:    0.00 PKD
ROOT
HETATM    1  C   UNL     1     -14.386  15.170  72.073  1.00  0.00    -0.682 C  
HETATM    2  C   UNL     1     -12.871  15.265  72.118  1.00  0.00    -0.357 C  
ENDROOT
BRANCH   2   3
HETATM    3  N   UNL     1     -12.180  15.250  70.726  1.00  0.00    -0.328 N  
HETATM    4  C   UNL     1     -13.197  15.703  69.662  1.00  0.00     1.031 C  
BRANCH   3   5
HETATM    5  C   UNL     1     -10.955  16.182  70.657  1.00  0.00    -0.209 C  
HETATM    6  C   UNL     1      -9.633  15.445  70.497  1.00  0.00     0.781 C  
ENDBRANCH   3   5
BRANCH   3   7
HETATM    7  C   UNL     1     -11.800  13.779  70.460  1.00  0.00    -0.223 C  
BRANCH   7   8
HETATM    8  C   UNL     1     -12.512  13.102  69.285  1.00  0.00     0.213 C  
BRANCH   8   9
HETATM    9  O   UNL     1     -12.083  13.819  68.118  1.00  0.00    -0.364 OA 
BRANCH   9  10
HETATM   10  C   UNL     1     -10.780  13.630  67.740  1.00  0.00    -0.246 C  
HETATM   11  O   UNL     1      -9.903  14.470  67.884  1.00  0.00    -0.217 OA 
HETATM   12  C   UNL     1     -10.645  12.269  66.985  1.00  0.00    -0.223 C  
HETATM   13  C   UNL     1     -10.042  11.246  67.951  1.00  0.00    -0.195 A  
HETATM   14  O   UNL     1     -11.948  11.805  66.600  1.00  0.00    -0.561 OA 
HETATM   15  C   UNL     1      -9.784  12.499  65.691  1.00  0.00    -0.169 C  
HETATM   16  H   UNL     1     -11.867  10.977  66.141  1.00  0.00     0.000 HD 
HETATM   17  C   UNL     1     -10.727  10.059  68.281  1.00  0.00    -0.280 A  
HETATM   18  C   UNL     1      -9.527  11.224  64.864  1.00  0.00    -0.223 C  
HETATM   19  C   UNL     1     -10.191   9.145  69.190  1.00  0.00    -0.215 A  
HETATM   20  C   UNL     1     -10.732  10.753  64.053  1.00  0.00    -0.043 C  
HETATM   21  C   UNL     1     -11.286  11.853  63.154  1.00  0.00    -0.232 C  
HETATM   22  C   UNL     1      -8.963   9.398  69.787  1.00  0.00    -0.199 A  
HETATM   23  C   UNL     1      -8.266  10.561  69.475  1.00  0.00    -0.092 A  
HETATM   24  C   UNL     1     -11.526  13.167  63.883  1.00  0.00    -0.451 C  
HETATM   25  C   UNL     1     -10.336  13.593  64.739  1.00  0.00    -0.414 C  
HETATM   26  C   UNL     1      -8.798  11.476  68.564  1.00  0.00    -0.139 A  
ENDBRANCH   9  10
ENDBRANCH   8   9
ENDBRANCH   7   8
ENDBRANCH   3   7
ENDBRANCH   2   3
TORSDOF 6
ENDMDL
MODEL      222
REMARK 921   NORMALIZED FREE ENERGY PREDICTED BY IDOCK:   -1.62 KCAL/MOL
REMARK 922        TOTAL FREE ENERGY PREDICTED BY IDOCK:   -3.10 KCAL/MOL
REMARK 923 INTER-LIGAND FREE ENERGY PREDICTED BY IDOCK:   -3.21 KCAL/MOL
REMARK 924 INTRA-LIGAND FREE ENERGY PREDICTED BY IDOCK:    0.11 KCAL/MOL
REMARK 927      BINDING AFFINITY PREDICTED BY RF-SCORE:    0.00 PKD
ROOT
HETATM    1  C   UNL     1     -10.714   7.232  67.619  1.00  0.00    -0.294 C  
HETATM    2  C   UNL     1     -11.276   7.564  68.991  1.00  0.00     0.269 C  
ENDROOT
BRANCH   2   3
HETATM    3  N   UNL     1     -10.753   8.894  69.599  1.00  0.00    -0.233 N  
HETATM    4  C   UNL     1     -11.185  10.060  68.690  1.00  0.00    -0.121 C  
BRANCH   3   5
HETATM    5  C   UNL     1     -11.294   9.157  71.018  1.00  0.00    -0.309 C  
HETATM    6  C   UNL     1     -11.582   7.889  71.808  1.00  0.00    -0.321 C  
ENDBRANCH   3   5
BRANCH   3   7
HETATM    7  C   UNL     1      -9.213   8.791  69.581  1.00  0.00    -0.150 C  
BRANCH   7   8
HETATM    8  C   UNL     1      -8.595   7.788  70.559  1.00  0.00    -0.132 C  
BRANCH   8   9
HETATM    9  O   UNL     1      -8.869   6.495  70.001  1.00  0.00    -0.141 OA 
BRANCH   9  10
HETATM   10  C   UNL     1      -8.009   5.490  70.358  1.00  0.00    -0.102 C  
HETATM   11  O   UNL     1      -6.814   5.656  70.549  1.00  0.00    -0.048 OA 
HETATM   12  C   UNL     1      -8.763   4.121  70.331  1.00  0.00    -0.078 C  
HETATM   13  C   UNL     1      -9.100   3.735  71.774  1.00  0.00    -0.164 A  
HETATM   14  O   UNL     1      -9.996   4.268  69.610  1.00  0.00    -0.214 OA 
HETATM   15  C   UNL     1      -7.862   3.070  69.590  1.00  0.00    -0.048 C  
HETATM   16  H   UNL     1     -10.455   3.437  69.593  1.00  0.00     0.000 HD 
HETATM   17  C   UNL     1     -10.432   3.530  72.185  1.00  0.00     0.000 A  
HETATM   18  C   UNL     1      -8.461   1.650  69.528  1.00  0.00    -0.078 C  
HETATM   19  C   UNL     1     -10.739   3.212  73.508  1.00  0.00    -0.298 A  
HETATM   20  C   UNL     1      -9.588   1.494  68.510  1.00  0.00    -0.203 C  
HETATM   21  C   UNL     1      -9.170   1.943  67.114  1.00  0.00    -0.082 C  
HETATM   22  C   UNL     1      -9.723   3.095  74.448  1.00  0.00    -0.141 A  
HETATM   23  C   UNL     1      -8.399   3.290  74.067  1.00  0.00    -0.074 A  
HETATM   24  C   UNL     1      -8.523   3.321  67.090  1.00  0.00    -0.105 C  
HETATM   25  C   UNL     1      -7.441   3.483  68.155  1.00  0.00    -0.057 C  
HETATM   26  C   UNL     1      -8.089   3.604  72.742  1.00  0.00    -0.081 A  
ENDBRANCH   9  10
ENDBRANCH   8   9
ENDBRANCH   7   8
ENDBRANCH   3   7
ENDBRANCH   2   3
TORSDOF 6
ENDMDL
MODEL      223
REMARK 921   NORMALIZED FREE ENERGY PREDICTED BY IDOCK:   -1.40 KCAL/MOL
REMARK 922        TOTAL FREE ENERGY PREDICTED BY IDOCK:   -2.80 KCAL/MOL
REMARK 923 INTER-LIGAND FREE ENERGY PREDICTED BY IDOCK:   -2.55 KCAL/MOL
REMARK 924 INTRA-LIGAND FREE ENERGY PREDICTED BY IDOCK:   -0.25 KCAL/MOL
REMARK 927      BINDING AFFINITY PREDICTED BY RF-SCORE:    0.00 PKD
ROOT
HETATM    1  C   UNL     1     -11.730   8.027  71.081  1.00  0.00    -0.307 C  
HETATM    2  C   UNL     1     -10.498   7.184  71.361  1.00  0.00    -0.204 C  
ENDROOT
BRANCH   2   3
HETATM    3  N   UNL     1      -9.686   6.785  70.098  1.00  0.00    -0.168 N  
HETATM    4  C   UNL     1      -8.336   7.525  70.121  1.00  0.00    -0.134 C  
BRANCH   3   5
HETATM    5  C   UNL     1      -9.411   5.271  70.017  1.00  0.00    -0.152 C  
HETATM    6  C   UNL     1      -9.944   4.618  68.750  1.00  0.00    -0.153 C  
ENDBRANCH   3   5
BRANCH   3   7
HETATM    7  C   UNL     1     -10.509   7.285  68.892  1.00  0.00    -0.206 C  
BRANCH   7   8
HETATM    8  C   UNL     1      -9.705   7.843  67.714  1.00  0.00    -0.155 C  
BRANCH   8   9
HETATM    9  O   UNL     1      -9.989   9.250  67.694  1.00  0.00    -0.173 OA 
BRANCH   9  10
HETATM   10  C   UNL     1     -10.222   9.800  66.461  1.00  0.00    -0.219 C  
HETATM   11  O   UNL     1     -11.270   9.667  65.846  1.00  0.00     1.030 OA 
HETATM   12  C   UNL     1      -8.914  10.472  65.931  1.00  0.00    -0.166 C  
HETATM   13  C   UNL     1      -9.042  11.984  66.132  1.00  0.00    -0.129 A  
HETATM   14  O   UNL     1      -7.795  10.012  66.702  1.00  0.00    -0.108 OA 
HETATM   15  C   UNL     1      -8.709  10.049  64.432  1.00  0.00    -0.217 C  
HETATM   16  H   UNL     1      -6.999  10.420  66.381  1.00  0.00     0.000 HD 
HETATM   17  C   UNL     1      -8.116  12.698  66.918  1.00  0.00    -0.015 A  
HETATM   18  C   UNL     1      -7.473  10.678  63.758  1.00  0.00     0.191 C  
HETATM   19  C   UNL     1      -8.254  14.071  67.128  1.00  0.00    -0.146 A  
HETATM   20  C   UNL     1      -6.147  10.054  64.181  1.00  0.00    -0.132 C  
HETATM   21  C   UNL     1      -6.132   8.542  63.983  1.00  0.00    -0.071 C  
HETATM   22  C   UNL     1      -9.319  14.757  66.559  1.00  0.00    -0.316 A  
HETATM   23  C   UNL     1     -10.245  14.075  65.776  1.00  0.00    -0.343 A  
HETATM   24  C   UNL     1      -7.345   7.842  64.579  1.00  0.00    -0.089 C  
HETATM   25  C   UNL     1      -8.662   8.516  64.198  1.00  0.00     0.114 C  
HETATM   26  C   UNL     1     -10.108  12.702  65.561  1.00  0.00    -0.279 A  
ENDBRANCH   9  10
ENDBRANCH   8   9
ENDBRANCH   7   8
ENDBRANCH   3   7
ENDBRANCH   2   3
TORSDOF 6
ENDMDL
MODEL      224
REMARK 921   NORMALIZED FREE ENERGY PREDICTED BY IDOCK:   -1.40 KCAL/MOL
REMARK 922        TOTAL FREE ENERGY PREDICTED BY IDOCK:   -2.79 KCAL/MOL
REMARK 923 INTER-LIGAND FREE ENERGY PREDICTED BY IDOCK:   -5.72 KCAL/MOL
REMARK 924 INTRA-LIGAND FREE ENERGY PREDICTED BY IDOCK:    2.93 KCAL/MOL
REMARK 927      BINDING AFFINITY PREDICTED BY RF-SCORE:    0.00 PKD
ROOT
HETATM    1  C   UNL     1      -8.289  19.072  66.284  1.00  0.00    -0.293 C  
HETATM    2  C   UNL     1      -7.477  18.780  67.534  1.00  0.00    -0.228 C  
ENDROOT
BRANCH   2   3
HETATM    3  N   UNL     1      -7.313  17.270  67.863  1.00  0.00    -0.180 N  
HETATM    4  C   UNL     1      -6.348  16.642  66.841  1.00  0.00    -0.173 C  
BRANCH   3   5
HETATM    5  C   UNL     1      -6.755  17.022  69.277  1.00  0.00    -0.234 C  
HETATM    6  C   UNL     1      -5.237  16.938  69.330  1.00  0.00    -0.136 C  
ENDBRANCH   3   5
BRANCH   3   7
HETATM    7  C   UNL     1      -8.712  16.645  67.678  1.00  0.00    -0.202 C  
BRANCH   7   8
HETATM    8  C   UNL     1      -8.839  15.599  66.567  1.00  0.00    -0.310 C  
BRANCH   8   9
HETATM    9  O   UNL     1      -8.137  14.445  67.050  1.00  0.00    -0.177 OA 
BRANCH   9  10
HETATM   10  C   UNL     1      -8.914  13.418  67.515  1.00  0.00    -0.207 C  
HETATM   11  O   UNL     1      -8.468  12.436  68.091  1.00  0.00    -0.167 OA 
HETATM   12  C   UNL     1     -10.395  13.636  67.067  1.00  0.00    -0.260 C  
HETATM   13  C   UNL     1     -11.181  14.177  68.265  1.00  0.00    -0.295 A  
HETATM   14  O   UNL     1     -10.438  14.622  66.024  1.00  0.00    -0.284 OA 
HETATM   15  C   UNL     1     -10.952  12.278  66.507  1.00  0.00    -0.320 C  
HETATM   16  H   UNL     1     -11.338  14.756  65.751  1.00  0.00     0.000 HD 
HETATM   17  C   UNL     1     -11.840  15.420  68.206  1.00  0.00    -0.225 A  
HETATM   18  C   UNL     1     -12.429  12.331  66.066  1.00  0.00     0.498 C  
HETATM   19  C   UNL     1     -12.525  15.927  69.311  1.00  0.00     0.263 A  
HETATM   20  C   UNL     1     -12.657  13.044  64.737  1.00  0.00    -0.460 C  
HETATM   21  C   UNL     1     -11.801  12.463  63.616  1.00  0.00    -0.610 C  
HETATM   22  C   UNL     1     -12.565  15.203  70.495  1.00  0.00    -0.429 A  
HETATM   23  C   UNL     1     -11.925  13.970  70.577  1.00  0.00    -0.390 A  
HETATM   24  C   UNL     1     -10.330  12.331  63.985  1.00  0.00    -0.423 C  
HETATM   25  C   UNL     1     -10.120  11.672  65.347  1.00  0.00    -0.299 C  
HETATM   26  C   UNL     1     -11.242  13.459  69.473  1.00  0.00    -0.181 A  
ENDBRANCH   9  10
ENDBRANCH   8   9
ENDBRANCH   7   8
ENDBRANCH   3   7
ENDBRANCH   2   3
TORSDOF 6
ENDMDL
MODEL      225
REMARK 921   NORMALIZED FREE ENERGY PREDICTED BY IDOCK:   -1.01 KCAL/MOL
REMARK 922        TOTAL FREE ENERGY PREDICTED BY IDOCK:   -2.27 KCAL/MOL
REMARK 923 INTER-LIGAND FREE ENERGY PREDICTED BY IDOCK:   -5.06 KCAL/MOL
REMARK 924 INTRA-LIGAND FREE ENERGY PREDICTED BY IDOCK:    2.78 KCAL/MOL
REMARK 927      BINDING AFFINITY PREDICTED BY RF-SCORE:    0.00 PKD
ROOT
HETATM    1  C   UNL     1     -10.107  11.521  62.968  1.00  0.00    -0.330 C  
HETATM    2  C   UNL     1     -11.511  11.813  63.468  1.00  0.00    -0.394 C  
ENDROOT
BRANCH   2   3
HETATM    3  N   UNL     1     -11.588  12.876  64.599  1.00  0.00    -0.330 N  
HETATM    4  C   UNL     1     -12.392  14.086  64.089  1.00  0.00    -0.332 C  
BRANCH   3   5
HETATM    5  C   UNL     1     -12.264  12.344  65.876  1.00  0.00    -0.144 C  
HETATM    6  C   UNL     1     -11.326  11.569  66.789  1.00  0.00    -0.309 C  
ENDBRANCH   3   5
BRANCH   3   7
HETATM    7  C   UNL     1     -10.132  13.319  64.859  1.00  0.00    -0.226 C  
BRANCH   7   8
HETATM    8  C   UNL     1      -9.833  13.852  66.263  1.00  0.00    -0.306 C  
BRANCH   8   9
HETATM    9  O   UNL     1      -9.693  15.272  66.108  1.00  0.00    -0.269 OA 
BRANCH   9  10
HETATM   10  C   UNL     1      -9.455  15.983  67.255  1.00  0.00    -0.215 C  
HETATM   11  O   UNL     1      -9.450  17.204  67.307  1.00  0.00    -0.239 OA 
HETATM   12  C   UNL     1      -9.056  15.003  68.405  1.00  0.00    -0.184 C  
HETATM   13  C   UNL     1     -10.275  14.813  69.312  1.00  0.00    -0.193 A  
HETATM   14  O   UNL     1      -8.711  13.726  67.847  1.00  0.00    -0.162 OA 
HETATM   15  C   UNL     1      -7.803  15.590  69.148  1.00  0.00    -0.215 C  
HETATM   16  H   UNL     1      -8.469  13.130  68.546  1.00  0.00     0.000 HD 
HETATM   17  C   UNL     1     -10.834  13.538  69.527  1.00  0.00     0.060 A  
HETATM   18  C   UNL     1      -7.321  14.747  70.345  1.00  0.00     0.517 C  
HETATM   19  C   UNL     1     -11.966  13.371  70.326  1.00  0.00    -0.378 A  
HETATM   20  C   UNL     1      -6.571  13.477  69.952  1.00  0.00     0.060 C  
HETATM   21  C   UNL     1      -5.402  13.765  69.016  1.00  0.00    -0.076 C  
HETATM   22  C   UNL     1     -12.563  14.473  70.923  1.00  0.00    -0.414 A  
HETATM   23  C   UNL     1     -12.028  15.743  70.729  1.00  0.00    -0.444 A  
HETATM   24  C   UNL     1      -5.780  14.635  67.826  1.00  0.00    -0.079 C  
HETATM   25  C   UNL     1      -6.584  15.869  68.229  1.00  0.00    -0.123 C  
HETATM   26  C   UNL     1     -10.893  15.912  69.933  1.00  0.00    -0.333 A  
ENDBRANCH   9  10
ENDBRANCH   8   9
ENDBRANCH   7   8
ENDBRANCH   3   7
ENDBRANCH   2   3
TORSDOF 6
ENDMDL
MODEL      226
REMARK 921   NORMALIZED FREE ENERGY PREDICTED BY IDOCK:   -0.83 KCAL/MOL
REMARK 922        TOTAL FREE ENERGY PREDICTED BY IDOCK:   -2.03 KCAL/MOL
REMARK 923 INTER-LIGAND FREE ENERGY PREDICTED BY IDOCK:   -3.17 KCAL/MOL
REMARK 924 INTRA-LIGAND FREE ENERGY PREDICTED BY IDOCK:    1.14 KCAL/MOL
REMARK 927      BINDING AFFINITY PREDICTED BY RF-SCORE:    0.00 PKD
ROOT
HETATM    1  C   UNL     1      -5.843  14.263  70.675  1.00  0.00    -0.190 C  
HETATM    2  C   UNL     1      -5.862  12.764  70.425  1.00  0.00    -0.153 C  
ENDROOT
BRANCH   2   3
HETATM    3  N   UNL     1      -6.280  12.353  68.987  1.00  0.00    -0.076 N  
HETATM    4  C   UNL     1      -5.239  12.898  67.992  1.00  0.00    -0.094 C  
BRANCH   3   5
HETATM    5  C   UNL     1      -6.375  10.826  68.805  1.00  0.00    -0.044 C  
HETATM    6  C   UNL     1      -6.380  10.052  70.115  1.00  0.00    -0.093 C  
ENDBRANCH   3   5
BRANCH   3   7
HETATM    7  C   UNL     1      -7.633  13.049  68.726  1.00  0.00    -0.027 C  
BRANCH   7   8
HETATM    8  C   UNL     1      -7.880  13.521  67.290  1.00  0.00    -0.091 C  
BRANCH   8   9
HETATM    9  O   UNL     1      -8.828  14.592  67.401  1.00  0.00    -0.176 OA 
BRANCH   9  10
HETATM   10  C   UNL     1      -8.733  15.367  68.526  1.00  0.00    -0.178 C  
HETATM   11  O   UNL     1      -7.743  15.407  69.242  1.00  0.00    -0.187 OA 
HETATM   12  C   UNL     1     -10.110  16.050  68.810  1.00  0.00    -0.225 C  
HETATM   13  C   UNL     1     -10.024  17.506  68.344  1.00  0.00    -0.335 A  
HETATM   14  O   UNL     1     -11.134  15.397  68.044  1.00  0.00    -0.289 OA 
HETATM   15  C   UNL     1     -10.439  15.894  70.338  1.00  0.00    -0.096 C  
HETATM   16  H   UNL     1     -11.972  15.811  68.216  1.00  0.00     0.000 HD 
HETATM   17  C   UNL     1     -10.900  18.013  67.364  1.00  0.00    -0.236 A  
HETATM   18  C   UNL     1     -11.756  16.565  70.776  1.00  0.00     0.125 C  
HETATM   19  C   UNL     1     -10.797  19.331  66.916  1.00  0.00    -0.479 A  
HETATM   20  C   UNL     1     -13.011  15.801  70.365  1.00  0.00     0.012 C  
HETATM   21  C   UNL     1     -12.985  14.351  70.837  1.00  0.00    -0.413 C  
HETATM   22  C   UNL     1      -9.818  20.167  67.437  1.00  0.00    -0.573 A  
HETATM   23  C   UNL     1      -8.943  19.690  68.408  1.00  0.00    -0.372 A  
HETATM   24  C   UNL     1     -11.695  13.624  70.486  1.00  0.00    -0.175 C  
HETATM   25  C   UNL     1     -10.447  14.428  70.846  1.00  0.00     1.384 C  
HETATM   26  C   UNL     1      -9.046  18.374  68.861  1.00  0.00    -0.185 A  
ENDBRANCH   9  10
ENDBRANCH   8   9
ENDBRANCH   7   8
ENDBRANCH   3   7
ENDBRANCH   2   3
TORSDOF 6
ENDMDL
MODEL      227
REMARK 921   NORMALIZED FREE ENERGY PREDICTED BY IDOCK:   -0.78 KCAL/MOL
REMARK 922        TOTAL FREE ENERGY PREDICTED BY IDOCK:   -1.96 KCAL/MOL
REMARK 923 INTER-LIGAND FREE ENERGY PREDICTED BY IDOCK:   -3.56 KCAL/MOL
REMARK 924 INTRA-LIGAND FREE ENERGY PREDICTED BY IDOCK:    1.60 KCAL/MOL
REMARK 927      BINDING AFFINITY PREDICTED BY RF-SCORE:    0.00 PKD
ROOT
HETATM    1  C   UNL     1     -13.076  10.260  71.561  1.00  0.00    -0.534 C  
HETATM    2  C   UNL     1     -12.991   8.853  72.130  1.00  0.00    -0.416 C  
ENDROOT
BRANCH   2   3
HETATM    3  N   UNL     1     -11.669   8.104  71.808  1.00  0.00    -0.279 N  
HETATM    4  C   UNL     1     -10.849   7.965  73.104  1.00  0.00    -0.252 C  
BRANCH   3   5
HETATM    5  C   UNL     1     -11.905   6.696  71.227  1.00  0.00    -0.350 C  
HETATM    6  C   UNL     1     -10.783   5.714  71.528  1.00  0.00    -0.306 C  
ENDBRANCH   3   5
BRANCH   3   7
HETATM    7  C   UNL     1     -10.899   9.011  70.825  1.00  0.00    -0.251 C  
BRANCH   7   8
HETATM    8  C   UNL     1      -9.586   9.604  71.345  1.00  0.00     0.521 C  
BRANCH   8   9
HETATM    9  O   UNL     1      -8.618   9.339  70.319  1.00  0.00    -0.168 OA 
BRANCH   9  10
HETATM   10  C   UNL     1      -9.116   9.119  69.063  1.00  0.00    -0.143 C  
HETATM   11  O   UNL     1     -10.226   9.480  68.700  1.00  0.00    -0.181 OA 
HETATM   12  C   UNL     1      -8.119   8.228  68.253  1.00  0.00    -0.124 C  
HETATM   13  C   UNL     1      -7.340   9.134  67.297  1.00  0.00    -0.087 A  
HETATM   14  O   UNL     1      -7.182   7.619  69.155  1.00  0.00    -0.075 OA 
HETATM   15  C   UNL     1      -8.936   7.099  67.528  1.00  0.00    -0.121 C  
HETATM   16  H   UNL     1      -6.576   7.077  68.663  1.00  0.00     0.000 HD 
HETATM   17  C   UNL     1      -5.935   9.223  67.355  1.00  0.00    -0.049 A  
HETATM   18  C   UNL     1      -8.083   6.163  66.647  1.00  0.00    -0.109 C  
HETATM   19  C   UNL     1      -5.229  10.076  66.506  1.00  0.00    -0.040 A  
HETATM   20  C   UNL     1      -7.258   5.149  67.433  1.00  0.00    -0.074 C  
HETATM   21  C   UNL     1      -8.115   4.324  68.388  1.00  0.00    -0.081 C  
HETATM   22  C   UNL     1      -5.912  10.858  65.584  1.00  0.00    -0.065 A  
HETATM   23  C   UNL     1      -7.299  10.786  65.504  1.00  0.00     0.016 A  
HETATM   24  C   UNL     1      -9.027   5.169  69.266  1.00  0.00    -0.126 C  
HETATM   25  C   UNL     1      -9.799   6.222  68.474  1.00  0.00    -0.152 C  
HETATM   26  C   UNL     1      -8.007   9.931  66.350  1.00  0.00    -0.111 A  
ENDBRANCH   9  10
ENDBRANCH   8   9
ENDBRANCH   7   8
ENDBRANCH   3   7
ENDBRANCH   2   3
TORSDOF 6
ENDMDL
MODEL      228
REMARK 921   NORMALIZED FREE ENERGY PREDICTED BY IDOCK:    0.00 KCAL/MOL
REMARK 922        TOTAL FREE ENERGY PREDICTED BY IDOCK:   -0.90 KCAL/MOL
REMARK 923 INTER-LIGAND FREE ENERGY PREDICTED BY IDOCK:   -2.18 KCAL/MOL
REMARK 924 INTRA-LIGAND FREE ENERGY PREDICTED BY IDOCK:    1.28 KCAL/MOL
REMARK 927      BINDING AFFINITY PREDICTED BY RF-SCORE:    0.00 PKD
ROOT
HETATM    1  C   UNL     1      -5.125  18.083  65.572  1.00  0.00    -0.209 C  
HETATM    2  C   UNL     1      -5.536  18.242  67.026  1.00  0.00    -0.135 C  
ENDROOT
BRANCH   2   3
HETATM    3  N   UNL     1      -6.080  16.947  67.689  1.00  0.00    -0.131 N  
HETATM    4  C   UNL     1      -5.677  16.944  69.176  1.00  0.00    -0.155 C  
BRANCH   3   5
HETATM    5  C   UNL     1      -7.614  16.828  67.600  1.00  0.00    -0.167 C  
HETATM    6  C   UNL     1      -8.121  16.485  66.207  1.00  0.00    -0.341 C  
ENDBRANCH   3   5
BRANCH   3   7
HETATM    7  C   UNL     1      -5.369  15.777  66.977  1.00  0.00     0.477 C  
BRANCH   7   8
HETATM    8  C   UNL     1      -5.558  14.394  67.605  1.00  0.00     0.056 C  
BRANCH   8   9
HETATM    9  O   UNL     1      -6.746  14.497  68.402  1.00  0.00    -0.091 OA 
BRANCH   9  10
HETATM   10  C   UNL     1      -7.246  13.321  68.896  1.00  0.00    -0.054 C  
HETATM   11  O   UNL     1      -6.991  12.890  70.010  1.00  0.00     0.335 OA 
HETATM   12  C   UNL     1      -8.044  12.579  67.774  1.00  0.00    -0.164 C  
HETATM   13  C   UNL     1      -9.537  12.799  68.029  1.00  0.00    -0.217 A  
HETATM   14  O   UNL     1      -7.720  13.153  66.499  1.00  0.00    -0.080 OA 
HETATM   15  C   UNL     1      -7.618  11.068  67.776  1.00  0.00    -0.099 C  
HETATM   16  H   UNL     1      -8.205  12.703  65.817  1.00  0.00     0.000 HD 
HETATM   17  C   UNL     1     -10.360  13.419  67.068  1.00  0.00    -0.247 A  
HETATM   18  C   UNL     1      -8.364  10.196  66.745  1.00  0.00    -0.122 C  
HETATM   19  C   UNL     1     -11.714  13.650  67.317  1.00  0.00    -0.416 A  
HETATM   20  C   UNL     1      -7.892  10.392  65.307  1.00  0.00    -0.137 C  
HETATM   21  C   UNL     1      -6.386  10.194  65.163  1.00  0.00    -0.121 C  
HETATM   22  C   UNL     1     -12.272  13.267  68.529  1.00  0.00    -0.104 A  
HETATM   23  C   UNL     1     -11.481  12.650  69.494  1.00  0.00    -0.294 A  
HETATM   24  C   UNL     1      -5.572  10.985  66.177  1.00  0.00    -0.147 C  
HETATM   25  C   UNL     1      -6.095  10.829  67.603  1.00  0.00    -0.047 C  
HETATM   26  C   UNL     1     -10.127  12.415  69.246  1.00  0.00     0.435 A  
ENDBRANCH   9  10
ENDBRANCH   8   9
ENDBRANCH   7   8
ENDBRANCH   3   7
ENDBRANCH   2   3
TORSDOF 6
ENDMDL
MODEL      229
REMARK 921   NORMALIZED FREE ENERGY PREDICTED BY IDOCK:    0.56 KCAL/MOL
REMARK 922        TOTAL FREE ENERGY PREDICTED BY IDOCK:   -0.15 KCAL/MOL
REMARK 923 INTER-LIGAND FREE ENERGY PREDICTED BY IDOCK:   -1.75 KCAL/MOL
REMARK 924 INTRA-LIGAND FREE ENERGY PREDICTED BY IDOCK:    1.60 KCAL/MOL
REMARK 927      BINDING AFFINITY PREDICTED BY RF-SCORE:    0.00 PKD
ROOT
HETATM    1  C   UNL     1      -8.597  12.627  64.942  1.00  0.00     2.238 C  
HETATM    2  C   UNL     1      -9.520  12.570  66.148  1.00  0.00    -0.184 C  
ENDROOT
BRANCH   2   3
HETATM    3  N   UNL     1     -10.038  13.952  66.632  1.00  0.00    -0.267 N  
HETATM    4  C   UNL     1     -11.578  13.935  66.625  1.00  0.00    -0.374 C  
BRANCH   3   5
HETATM    5  C   UNL     1      -9.560  14.307  68.053  1.00  0.00    -0.223 C  
HETATM    6  C   UNL     1      -9.698  13.164  69.048  1.00  0.00     0.310 C  
ENDBRANCH   3   5
BRANCH   3   7
HETATM    7  C   UNL     1      -9.547  14.976  65.587  1.00  0.00    -0.244 C  
BRANCH   7   8
HETATM    8  C   UNL     1      -8.670  16.112  66.120  1.00  0.00    -0.323 C  
BRANCH   8   9
HETATM    9  O   UNL     1      -9.566  16.987  66.821  1.00  0.00    -0.245 OA 
BRANCH   9  10
HETATM   10  C   UNL     1      -9.120  17.471  68.022  1.00  0.00    -0.269 C  
HETATM   11  O   UNL     1      -9.851  17.712  68.971  1.00  0.00    -0.297 OA 
HETATM   12  C   UNL     1      -7.593  17.793  67.922  1.00  0.00    -0.212 C  
HETATM   13  C   UNL     1      -6.822  16.659  68.603  1.00  0.00    -0.168 A  
HETATM   14  O   UNL     1      -7.202  17.832  66.541  1.00  0.00    -0.200 OA 
HETATM   15  C   UNL     1      -7.339  19.204  68.563  1.00  0.00    -0.348 C  
HETATM   16  H   UNL     1      -6.275  18.027  66.480  1.00  0.00     0.000 HD 
HETATM   17  C   UNL     1      -5.872  15.894  67.898  1.00  0.00    -0.155 A  
HETATM   18  C   UNL     1      -5.859  19.638  68.578  1.00  0.00    -0.254 C  
HETATM   19  C   UNL     1      -5.196  14.839  68.512  1.00  0.00    -0.103 A  
HETATM   20  C   UNL     1      -5.329  20.090  67.221  1.00  0.00    -0.163 C  
HETATM   21  C   UNL     1      -6.186  21.190  66.604  1.00  0.00    -0.364 C  
HETATM   22  C   UNL     1      -5.456  14.526  69.839  1.00  0.00    -0.098 A  
HETATM   23  C   UNL     1      -6.388  15.268  70.558  1.00  0.00     0.079 A  
HETATM   24  C   UNL     1      -7.672  20.864  66.592  1.00  0.00    -0.002 C  
HETATM   25  C   UNL     1      -8.175  20.353  67.941  1.00  0.00    -0.151 C  
HETATM   26  C   UNL     1      -7.063  16.327  69.948  1.00  0.00     0.269 A  
ENDBRANCH   9  10
ENDBRANCH   8   9
ENDBRANCH   7   8
ENDBRANCH   3   7
ENDBRANCH   2   3
TORSDOF 6
ENDMDL
MODEL      230
REMARK 921   NORMALIZED FREE ENERGY PREDICTED BY IDOCK:    1.00 KCAL/MOL
REMARK 922        TOTAL FREE ENERGY PREDICTED BY IDOCK:    0.45 KCAL/MOL
REMARK 923 INTER-LIGAND FREE ENERGY PREDICTED BY IDOCK:   -2.13 KCAL/MOL
REMARK 924 INTRA-LIGAND FREE ENERGY PREDICTED BY IDOCK:    2.58 KCAL/MOL
REMARK 927      BINDING AFFINITY PREDICTED BY RF-SCORE:    0.00 PKD
ROOT
HETATM    1  C   UNL     1      -5.161  12.742  69.937  1.00  0.00    -0.082 C  
HETATM    2  C   UNL     1      -6.446  13.491  70.248  1.00  0.00     0.117 C  
ENDROOT
BRANCH   2   3
HETATM    3  N   UNL     1      -6.553  14.894  69.590  1.00  0.00    -0.149 N  
HETATM    4  C   UNL     1      -6.504  15.965  70.695  1.00  0.00     0.608 C  
BRANCH   3   5
HETATM    5  C   UNL     1      -5.415  15.175  68.589  1.00  0.00    -0.092 C  
HETATM    6  C   UNL     1      -5.857  15.962  67.365  1.00  0.00    -0.108 C  
ENDBRANCH   3   5
BRANCH   3   7
HETATM    7  C   UNL     1      -7.939  14.938  68.913  1.00  0.00    -0.163 C  
BRANCH   7   8
HETATM    8  C   UNL     1      -8.555  16.328  68.731  1.00  0.00    -0.240 C  
BRANCH   8   9
HETATM    9  O   UNL     1      -9.802  16.286  69.441  1.00  0.00    -0.252 OA 
BRANCH   9  10
HETATM   10  C   UNL     1     -10.878  15.809  68.741  1.00  0.00    -0.274 C  
HETATM   11  O   UNL     1     -11.746  16.523  68.262  1.00  0.00    -0.106 OA 
HETATM   12  C   UNL     1     -10.884  14.247  68.790  1.00  0.00    -0.253 C  
HETATM   13  C   UNL     1     -10.353  13.727  67.452  1.00  0.00    -0.252 A  
HETATM   14  O   UNL     1      -9.998  13.798  69.826  1.00  0.00     0.069 OA 
HETATM   15  C   UNL     1     -12.342  13.764  69.121  1.00  0.00    -0.138 C  
HETATM   16  H   UNL     1     -10.001  12.848  69.857  1.00  0.00     0.000 HD 
HETATM   17  C   UNL     1      -9.211  12.905  67.388  1.00  0.00    -0.197 A  
HETATM   18  C   UNL     1     -12.511  12.232  69.157  1.00  0.00     0.337 C  
HETATM   19  C   UNL     1      -8.708  12.461  66.164  1.00  0.00     0.192 A  
HETATM   20  C   UNL     1     -11.940  11.571  70.409  1.00  0.00    -0.459 C  
HETATM   21  C   UNL     1     -12.497  12.185  71.689  1.00  0.00    -0.056 C  
HETATM   22  C   UNL     1      -9.335  12.829  64.981  1.00  0.00     0.491 A  
HETATM   23  C   UNL     1     -10.466  13.638  65.018  1.00  0.00    -0.406 A  
HETATM   24  C   UNL     1     -12.412  13.704  71.718  1.00  0.00    -0.207 C  
HETATM   25  C   UNL     1     -12.929  14.348  70.433  1.00  0.00    -0.208 C  
HETATM   26  C   UNL     1     -10.974  14.081  66.241  1.00  0.00    -0.300 A  
ENDBRANCH   9  10
ENDBRANCH   8   9
ENDBRANCH   7   8
ENDBRANCH   3   7
ENDBRANCH   2   3
TORSDOF 6
ENDMDL
MODEL      231
REMARK 921   NORMALIZED FREE ENERGY PREDICTED BY IDOCK:    1.06 KCAL/MOL
REMARK 922        TOTAL FREE ENERGY PREDICTED BY IDOCK:    0.53 KCAL/MOL
REMARK 923 INTER-LIGAND FREE ENERGY PREDICTED BY IDOCK:    1.07 KCAL/MOL
REMARK 924 INTRA-LIGAND FREE ENERGY PREDICTED BY IDOCK:   -0.53 KCAL/MOL
REMARK 927      BINDING AFFINITY PREDICTED BY RF-SCORE:    0.00 PKD
ROOT
HETATM    1  C   UNL     1      -8.986  11.420  65.506  1.00  0.00    -0.096 C  
HETATM    2  C   UNL     1     -10.476  11.438  65.210  1.00  0.00    -0.283 C  
ENDROOT
BRANCH   2   3
HETATM    3  N   UNL     1     -10.889  12.347  64.020  1.00  0.00    -0.361 N  
HETATM    4  C   UNL     1      -9.618  12.825  63.296  1.00  0.00     1.766 C  
BRANCH   3   5
HETATM    5  C   UNL     1     -11.790  11.626  62.999  1.00  0.00     0.187 C  
HETATM    6  C   UNL     1     -13.274  11.707  63.326  1.00  0.00     0.453 C  
ENDBRANCH   3   5
BRANCH   3   7
HETATM    7  C   UNL     1     -11.595  13.568  64.648  1.00  0.00    -0.368 C  
BRANCH   7   8
HETATM    8  C   UNL     1     -10.823  14.296  65.752  1.00  0.00    -0.303 C  
BRANCH   8   9
HETATM    9  O   UNL     1     -11.740  14.404  66.850  1.00  0.00    -0.372 OA 
BRANCH   9  10
HETATM   10  C   UNL     1     -11.539  13.537  67.891  1.00  0.00    -0.342 C  
HETATM   11  O   UNL     1     -11.887  12.366  67.876  1.00  0.00    -0.351 OA 
HETATM   12  C   UNL     1     -10.946  14.313  69.111  1.00  0.00    -0.261 C  
HETATM   13  C   UNL     1      -9.443  14.028  69.172  1.00  0.00     0.223 A  
HETATM   14  O   UNL     1     -11.125  15.724  68.913  1.00  0.00    -0.258 OA 
HETATM   15  C   UNL     1     -11.724  13.877  70.404  1.00  0.00    -0.269 C  
HETATM   16  H   UNL     1     -10.765  16.196  69.655  1.00  0.00     0.000 HD 
HETATM   17  C   UNL     1      -8.497  15.070  69.094  1.00  0.00    -0.192 A  
HETATM   18  C   UNL     1     -11.213  14.532  71.704  1.00  0.00     0.584 C  
HETATM   19  C   UNL     1      -7.127  14.805  69.114  1.00  0.00    -0.143 A  
HETATM   20  C   UNL     1     -11.628  15.991  71.871  1.00  0.00    -0.524 C  
HETATM   21  C   UNL     1     -13.137  16.179  71.753  1.00  0.00     0.170 C  
HETATM   22  C   UNL     1      -6.675  13.495  69.211  1.00  0.00    -0.080 A  
HETATM   23  C   UNL     1      -7.589  12.449  69.292  1.00  0.00     0.348 A  
HETATM   24  C   UNL     1     -13.734  15.521  70.517  1.00  0.00     0.293 C  
HETATM   25  C   UNL     1     -13.260  14.081  70.329  1.00  0.00     0.283 C  
HETATM   26  C   UNL     1      -8.960  12.712  69.276  1.00  0.00     0.962 A  
ENDBRANCH   9  10
ENDBRANCH   8   9
ENDBRANCH   7   8
ENDBRANCH   3   7
ENDBRANCH   2   3
TORSDOF 6
ENDMDL
MODEL      232
REMARK 921   NORMALIZED FREE ENERGY PREDICTED BY IDOCK:    1.42 KCAL/MOL
REMARK 922        TOTAL FREE ENERGY PREDICTED BY IDOCK:    1.02 KCAL/MOL
REMARK 923 INTER-LIGAND FREE ENERGY PREDICTED BY IDOCK:   -2.72 KCAL/MOL
REMARK 924 INTRA-LIGAND FREE ENERGY PREDICTED BY IDOCK:    3.74 KCAL/MOL
REMARK 927      BINDING AFFINITY PREDICTED BY RF-SCORE:    0.00 PKD
ROOT
HETATM    1  C   UNL     1      -5.142  12.748  69.946  1.00  0.00    -0.082 C  
HETATM    2  C   UNL     1      -6.429  13.484  70.276  1.00  0.00     0.117 C  
ENDROOT
BRANCH   2   3
HETATM    3  N   UNL     1      -6.530  14.913  69.674  1.00  0.00    -0.141 N  
HETATM    4  C   UNL     1      -6.540  15.936  70.825  1.00  0.00     0.977 C  
BRANCH   3   5
HETATM    5  C   UNL     1      -5.358  15.250  68.732  1.00  0.00    -0.094 C  
HETATM    6  C   UNL     1      -5.763  16.085  67.526  1.00  0.00    -0.157 C  
ENDBRANCH   3   5
BRANCH   3   7
HETATM    7  C   UNL     1      -7.889  14.968  68.945  1.00  0.00    -0.162 C  
BRANCH   7   8
HETATM    8  C   UNL     1      -8.025  14.079  67.706  1.00  0.00    -0.171 C  
BRANCH   8   9
HETATM    9  O   UNL     1      -8.333  14.974  66.628  1.00  0.00    -0.218 OA 
BRANCH   9  10
HETATM   10  C   UNL     1      -9.651  15.320  66.490  1.00  0.00    -0.271 C  
HETATM   11  O   UNL     1     -10.374  14.898  65.600  1.00  0.00    -0.302 OA 
HETATM   12  C   UNL     1     -10.016  16.422  67.537  1.00  0.00    -0.250 C  
HETATM   13  C   UNL     1     -10.777  15.753  68.686  1.00  0.00    -0.263 A  
HETATM   14  O   UNL     1      -8.811  16.990  68.072  1.00  0.00    -0.213 OA 
HETATM   15  C   UNL     1     -10.833  17.549  66.811  1.00  0.00     0.009 C  
HETATM   16  H   UNL     1      -9.032  17.660  68.709  1.00  0.00     0.000 HD 
HETATM   17  C   UNL     1     -10.299  15.809  70.010  1.00  0.00    -0.286 A  
HETATM   18  C   UNL     1     -11.304  18.689  67.736  1.00  0.00     0.547 C  
HETATM   19  C   UNL     1     -10.975  15.169  71.049  1.00  0.00    -0.216 A  
HETATM   20  C   UNL     1     -10.200  19.662  68.139  1.00  0.00    -0.580 C  
HETATM   21  C   UNL     1      -9.473  20.242  66.930  1.00  0.00    -0.531 C  
HETATM   22  C   UNL     1     -12.141  14.461  70.787  1.00  0.00    -0.408 A  
HETATM   23  C   UNL     1     -12.635  14.393  69.488  1.00  0.00    -0.034 A  
HETATM   24  C   UNL     1      -9.012  19.185  65.936  1.00  0.00     0.084 C  
HETATM   25  C   UNL     1     -10.111  18.181  65.591  1.00  0.00     0.153 C  
HETATM   26  C   UNL     1     -11.962  15.035  68.447  1.00  0.00    -0.231 A  
ENDBRANCH   9  10
ENDBRANCH   8   9
ENDBRANCH   7   8
ENDBRANCH   3   7
ENDBRANCH   2   3
TORSDOF 6
ENDMDL
MODEL      233
REMARK 921   NORMALIZED FREE ENERGY PREDICTED BY IDOCK:    1.91 KCAL/MOL
REMARK 922        TOTAL FREE ENERGY PREDICTED BY IDOCK:    1.67 KCAL/MOL
REMARK 923 INTER-LIGAND FREE ENERGY PREDICTED BY IDOCK:   -1.85 KCAL/MOL
REMARK 924 INTRA-LIGAND FREE ENERGY PREDICTED BY IDOCK:    3.52 KCAL/MOL
REMARK 927      BINDING AFFINITY PREDICTED BY RF-SCORE:    0.00 PKD
ROOT
HETATM    1  C   UNL     1      -9.134   8.287  67.835  1.00  0.00    -0.137 C  
HETATM    2  C   UNL     1      -9.724   8.345  69.234  1.00  0.00    -0.177 C  
ENDROOT
BRANCH   2   3
HETATM    3  N   UNL     1      -9.212   9.527  70.103  1.00  0.00    -0.229 N  
HETATM    4  C   UNL     1     -10.172  10.719  69.936  1.00  0.00     0.150 C  
BRANCH   3   5
HETATM    5  C   UNL     1      -9.128   9.176  71.601  1.00  0.00     0.026 C  
HETATM    6  C   UNL     1      -8.303   7.931  71.893  1.00  0.00    -0.151 C  
ENDBRANCH   3   5
BRANCH   3   7
HETATM    7  C   UNL     1      -7.834   9.911  69.524  1.00  0.00    -0.140 C  
BRANCH   7   8
HETATM    8  C   UNL     1      -6.700   8.912  69.769  1.00  0.00    -0.045 C  
BRANCH   8   9
HETATM    9  O   UNL     1      -7.258   7.623  69.473  1.00  0.00    -0.076 OA 
BRANCH   9  10
HETATM   10  C   UNL     1      -6.387   6.567  69.506  1.00  0.00    -0.038 C  
HETATM   11  O   UNL     1      -5.202   6.655  69.217  1.00  0.00    -0.012 OA 
HETATM   12  C   UNL     1      -7.170   5.251  69.816  1.00  0.00    -0.063 C  
HETATM   13  C   UNL     1      -6.946   4.900  71.290  1.00  0.00    -0.047 A  
HETATM   14  O   UNL     1      -8.575   5.473  69.619  1.00  0.00    -0.106 OA 
HETATM   15  C   UNL     1      -6.686   4.136  68.821  1.00  0.00    -0.046 C  
HETATM   16  H   UNL     1      -9.052   4.673  69.808  1.00  0.00     0.000 HD 
HETATM   17  C   UNL     1      -8.027   4.787  72.187  1.00  0.00    -0.106 A  
HETATM   18  C   UNL     1      -7.345   2.759  69.041  1.00  0.00    -0.048 C  
HETATM   19  C   UNL     1      -7.818   4.502  73.537  1.00  0.00    -0.091 A  
HETATM   20  C   UNL     1      -8.783   2.669  68.541  1.00  0.00    -0.132 C  
HETATM   21  C   UNL     1      -8.911   3.077  67.077  1.00  0.00    -0.158 C  
HETATM   22  C   UNL     1      -6.527   4.326  74.017  1.00  0.00    -0.048 A  
HETATM   23  C   UNL     1      -5.443   4.429  73.151  1.00  0.00    -0.008 A  
HETATM   24  C   UNL     1      -8.245   4.409  66.760  1.00  0.00    -0.102 C  
HETATM   25  C   UNL     1      -6.828   4.508  67.322  1.00  0.00    -0.055 C  
HETATM   26  C   UNL     1      -5.650   4.710  71.799  1.00  0.00    -0.008 A  
ENDBRANCH   9  10
ENDBRANCH   8   9
ENDBRANCH   7   8
ENDBRANCH   3   7
ENDBRANCH   2   3
TORSDOF 6
ENDMDL
MODEL      234
REMARK 921   NORMALIZED FREE ENERGY PREDICTED BY IDOCK:    2.10 KCAL/MOL
REMARK 922        TOTAL FREE ENERGY PREDICTED BY IDOCK:    1.93 KCAL/MOL
REMARK 923 INTER-LIGAND FREE ENERGY PREDICTED BY IDOCK:    0.24 KCAL/MOL
REMARK 924 INTRA-LIGAND FREE ENERGY PREDICTED BY IDOCK:    1.69 KCAL/MOL
REMARK 927      BINDING AFFINITY PREDICTED BY RF-SCORE:    0.00 PKD
ROOT
HETATM    1  C   UNL     1     -13.186  10.099  69.091  1.00  0.00     2.923 C  
HETATM    2  C   UNL     1     -12.269   9.071  69.732  1.00  0.00     1.061 C  
ENDROOT
BRANCH   2   3
HETATM    3  N   UNL     1     -11.618   9.528  71.066  1.00  0.00    -0.316 N  
HETATM    4  C   UNL     1     -12.186   8.673  72.214  1.00  0.00    -0.378 C  
BRANCH   3   5
HETATM    5  C   UNL     1     -10.084   9.384  71.064  1.00  0.00    -0.283 C  
HETATM    6  C   UNL     1      -9.559   8.403  72.101  1.00  0.00    -0.367 C  
ENDBRANCH   3   5
BRANCH   3   7
HETATM    7  C   UNL     1     -12.058  10.993  71.270  1.00  0.00    -0.174 C  
BRANCH   7   8
HETATM    8  C   UNL     1     -11.240  12.051  70.524  1.00  0.00     1.026 C  
BRANCH   8   9
HETATM    9  O   UNL     1     -10.787  11.405  69.326  1.00  0.00    -0.228 OA 
BRANCH   9  10
HETATM   10  C   UNL     1      -9.605  11.862  68.805  1.00  0.00    -0.012 C  
HETATM   11  O   UNL     1      -8.525  11.739  69.363  1.00  0.00     0.408 OA 
HETATM   12  C   UNL     1      -9.888  12.669  67.496  1.00  0.00    -0.203 C  
HETATM   13  C   UNL     1      -9.549  11.773  66.302  1.00  0.00    -0.242 A  
HETATM   14  O   UNL     1     -11.284  12.994  67.427  1.00  0.00    -0.265 OA 
HETATM   15  C   UNL     1      -9.056  14.001  67.543  1.00  0.00    -0.196 C  
HETATM   16  H   UNL     1     -11.456  13.485  66.632  1.00  0.00     0.000 HD 
HETATM   17  C   UNL     1     -10.519  11.445  65.335  1.00  0.00    -0.336 A  
HETATM   18  C   UNL     1      -9.200  14.884  66.287  1.00  0.00    -0.301 C  
HETATM   19  C   UNL     1     -10.217  10.600  64.266  1.00  0.00    -0.391 A  
HETATM   20  C   UNL     1     -10.523  15.640  66.206  1.00  0.00    -0.313 C  
HETATM   21  C   UNL     1     -10.791  16.469  67.457  1.00  0.00    -0.237 C  
HETATM   22  C   UNL     1      -8.941  10.065  64.143  1.00  0.00    -0.268 A  
HETATM   23  C   UNL     1      -7.964  10.377  65.084  1.00  0.00    -0.134 A  
HETATM   24  C   UNL     1     -10.625  15.684  68.750  1.00  0.00    -0.238 C  
HETATM   25  C   UNL     1      -9.325  14.882  68.791  1.00  0.00    -0.203 C  
HETATM   26  C   UNL     1      -8.263  11.225  66.151  1.00  0.00    -0.088 A  
ENDBRANCH   9  10
ENDBRANCH   8   9
ENDBRANCH   7   8
ENDBRANCH   3   7
ENDBRANCH   2   3
TORSDOF 6
ENDMDL
MODEL      235
REMARK 921   NORMALIZED FREE ENERGY PREDICTED BY IDOCK:    2.15 KCAL/MOL
REMARK 922        TOTAL FREE ENERGY PREDICTED BY IDOCK:    2.00 KCAL/MOL
REMARK 923 INTER-LIGAND FREE ENERGY PREDICTED BY IDOCK:    0.71 KCAL/MOL
REMARK 924 INTRA-LIGAND FREE ENERGY PREDICTED BY IDOCK:    1.30 KCAL/MOL
REMARK 927      BINDING AFFINITY PREDICTED BY RF-SCORE:    0.00 PKD
ROOT
HETATM    1  C   UNL     1     -11.501   5.647  65.708  1.00  0.00     1.513 C  
HETATM    2  C   UNL     1     -10.235   5.294  66.470  1.00  0.00    -0.253 C  
ENDROOT
BRANCH   2   3
HETATM    3  N   UNL     1      -8.931   5.887  65.868  1.00  0.00    -0.153 N  
HETATM    4  C   UNL     1      -7.722   5.208  66.538  1.00  0.00    -0.092 C  
BRANCH   3   5
HETATM    5  C   UNL     1      -8.825   5.679  64.345  1.00  0.00     0.187 C  
HETATM    6  C   UNL     1      -8.916   4.221  63.919  1.00  0.00    -0.141 C  
ENDBRANCH   3   5
BRANCH   3   7
HETATM    7  C   UNL     1      -8.936   7.383  66.246  1.00  0.00    -0.162 C  
BRANCH   7   8
HETATM    8  C   UNL     1      -9.758   7.763  67.480  1.00  0.00    -0.158 C  
BRANCH   8   9
HETATM    9  O   UNL     1      -9.245   9.034  67.903  1.00  0.00    -0.140 OA 
BRANCH   9  10
HETATM   10  C   UNL     1      -7.914   9.255  67.666  1.00  0.00    -0.103 C  
HETATM   11  O   UNL     1      -7.319   8.830  66.687  1.00  0.00    -0.080 OA 
HETATM   12  C   UNL     1      -7.278   9.988  68.892  1.00  0.00    -0.077 C  
HETATM   13  C   UNL     1      -7.127  11.469  68.536  1.00  0.00    -0.087 A  
HETATM   14  O   UNL     1      -8.162   9.888  70.019  1.00  0.00    -0.175 OA 
HETATM   15  C   UNL     1      -5.921   9.281  69.246  1.00  0.00    -0.038 C  
HETATM   16  H   UNL     1      -7.777  10.333  70.765  1.00  0.00     0.000 HD 
HETATM   17  C   UNL     1      -7.753  12.473  69.300  1.00  0.00     0.438 A  
HETATM   18  C   UNL     1      -5.153   9.930  70.416  1.00  0.00    -0.037 C  
HETATM   19  C   UNL     1      -7.643  13.820  68.952  1.00  0.00    -0.040 A  
HETATM   20  C   UNL     1      -5.741   9.627  71.791  1.00  0.00    -0.001 C  
HETATM   21  C   UNL     1      -5.892   8.129  72.036  1.00  0.00    -0.039 C  
HETATM   22  C   UNL     1      -6.906  14.190  67.835  1.00  0.00    -0.173 A  
HETATM   23  C   UNL     1      -6.275  13.218  67.066  1.00  0.00     0.723 A  
HETATM   24  C   UNL     1      -6.600   7.399  70.903  1.00  0.00    -0.043 C  
HETATM   25  C   UNL     1      -6.042   7.761  69.528  1.00  0.00    -0.033 C  
HETATM   26  C   UNL     1      -6.381  11.870  67.413  1.00  0.00    -0.128 A  
ENDBRANCH   9  10
ENDBRANCH   8   9
ENDBRANCH   7   8
ENDBRANCH   3   7
ENDBRANCH   2   3
TORSDOF 6
ENDMDL
MODEL      236
REMARK 921   NORMALIZED FREE ENERGY PREDICTED BY IDOCK:    2.35 KCAL/MOL
REMARK 922        TOTAL FREE ENERGY PREDICTED BY IDOCK:    2.27 KCAL/MOL
REMARK 923 INTER-LIGAND FREE ENERGY PREDICTED BY IDOCK:    2.58 KCAL/MOL
REMARK 924 INTRA-LIGAND FREE ENERGY PREDICTED BY IDOCK:   -0.31 KCAL/MOL
REMARK 927      BINDING AFFINITY PREDICTED BY RF-SCORE:    0.00 PKD
ROOT
HETATM    1  C   UNL     1     -11.848   5.434  65.680  1.00  0.00     2.204 C  
HETATM    2  C   UNL     1     -10.568   5.150  66.446  1.00  0.00    -0.276 C  
ENDROOT
BRANCH   2   3
HETATM    3  N   UNL     1      -9.279   5.706  65.782  1.00  0.00    -0.135 N  
HETATM    4  C   UNL     1      -8.055   5.165  66.544  1.00  0.00    -0.108 C  
BRANCH   3   5
HETATM    5  C   UNL     1      -9.147   5.303  64.300  1.00  0.00     0.197 C  
HETATM    6  C   UNL     1      -9.270   3.806  64.060  1.00  0.00    -0.135 C  
ENDBRANCH   3   5
BRANCH   3   7
HETATM    7  C   UNL     1      -9.340   7.237  65.959  1.00  0.00     0.028 C  
BRANCH   7   8
HETATM    8  C   UNL     1     -10.159   7.745  67.149  1.00  0.00    -0.258 C  
BRANCH   8   9
HETATM    9  O   UNL     1      -9.750   9.107  67.339  1.00  0.00    -0.149 OA 
BRANCH   9  10
HETATM   10  C   UNL     1     -10.564  10.063  66.791  1.00  0.00    -0.159 C  
HETATM   11  O   UNL     1     -11.784   9.994  66.788  1.00  0.00     0.747 OA 
HETATM   12  C   UNL     1      -9.694  11.139  66.066  1.00  0.00    -0.226 C  
HETATM   13  C   UNL     1      -9.609  12.371  66.971  1.00  0.00    -0.211 A  
HETATM   14  O   UNL     1      -8.364  10.632  65.878  1.00  0.00    -0.153 OA 
HETATM   15  C   UNL     1     -10.332  11.431  64.660  1.00  0.00    -0.362 C  
HETATM   16  H   UNL     1      -7.835  11.286  65.437  1.00  0.00     0.000 HD 
HETATM   17  C   UNL     1      -8.369  12.860  67.427  1.00  0.00    -0.190 A  
HETATM   18  C   UNL     1      -9.600  12.516  63.844  1.00  0.00     0.271 C  
HETATM   19  C   UNL     1      -8.297  13.962  68.280  1.00  0.00    -0.163 A  
HETATM   20  C   UNL     1      -8.288  12.048  63.221  1.00  0.00     1.823 C  
HETATM   21  C   UNL     1      -8.467  10.793  62.374  1.00  0.00    -0.308 C  
HETATM   22  C   UNL     1      -9.460  14.596  68.695  1.00  0.00    -0.211 A  
HETATM   23  C   UNL     1     -10.697  14.135  68.256  1.00  0.00    -0.256 A  
HETATM   24  C   UNL     1      -9.224   9.683  63.089  1.00  0.00    -0.139 C  
HETATM   25  C   UNL     1     -10.503  10.179  63.761  1.00  0.00     1.002 C  
HETATM   26  C   UNL     1     -10.773  13.035  67.399  1.00  0.00    -0.256 A  
ENDBRANCH   9  10
ENDBRANCH   8   9
ENDBRANCH   7   8
ENDBRANCH   3   7
ENDBRANCH   2   3
TORSDOF 6
ENDMDL
MODEL      237
REMARK 921   NORMALIZED FREE ENERGY PREDICTED BY IDOCK:    4.73 KCAL/MOL
REMARK 922        TOTAL FREE ENERGY PREDICTED BY IDOCK:    5.48 KCAL/MOL
REMARK 923 INTER-LIGAND FREE ENERGY PREDICTED BY IDOCK:    2.76 KCAL/MOL
REMARK 924 INTRA-LIGAND FREE ENERGY PREDICTED BY IDOCK:    2.72 KCAL/MOL
REMARK 927      BINDING AFFINITY PREDICTED BY RF-SCORE:    0.00 PKD
ROOT
HETATM    1  C   UNL     1      -8.583  12.656  64.957  1.00  0.00     2.063 C  
HETATM    2  C   UNL     1      -9.567  12.572  66.112  1.00  0.00    -0.228 C  
ENDROOT
BRANCH   2   3
HETATM    3  N   UNL     1     -10.171  13.935  66.547  1.00  0.00    -0.274 N  
HETATM    4  C   UNL     1     -11.701  13.876  66.381  1.00  0.00    -0.383 C  
BRANCH   3   5
HETATM    5  C   UNL     1      -9.853  14.290  68.013  1.00  0.00    -0.224 C  
HETATM    6  C   UNL     1      -8.607  13.604  68.553  1.00  0.00    -0.103 C  
ENDBRANCH   3   5
BRANCH   3   7
HETATM    7  C   UNL     1      -9.603  14.981  65.565  1.00  0.00    -0.174 C  
BRANCH   7   8
HETATM    8  C   UNL     1      -8.909  16.191  66.198  1.00  0.00    -0.332 C  
BRANCH   8   9
HETATM    9  O   UNL     1      -9.515  17.339  65.587  1.00  0.00    -0.515 OA 
BRANCH   9  10
HETATM   10  C   UNL     1      -9.892  18.345  66.436  1.00  0.00    -0.360 C  
HETATM   11  O   UNL     1     -10.813  19.115  66.208  1.00  0.00    -0.363 OA 
HETATM   12  C   UNL     1      -8.884  18.431  67.627  1.00  0.00    -0.263 C  
HETATM   13  C   UNL     1      -9.532  17.768  68.847  1.00  0.00    -0.184 A  
HETATM   14  O   UNL     1      -7.695  17.697  67.301  1.00  0.00    -0.197 OA 
HETATM   15  C   UNL     1      -8.507  19.938  67.854  1.00  0.00    -0.332 C  
HETATM   16  H   UNL     1      -7.082  17.748  68.025  1.00  0.00     0.000 HD 
HETATM   17  C   UNL     1      -8.930  16.667  69.486  1.00  0.00     0.278 A  
HETATM   18  C   UNL     1      -7.548  20.183  69.037  1.00  0.00     0.040 C  
HETATM   19  C   UNL     1      -9.540  16.043  70.576  1.00  0.00     1.257 A  
HETATM   20  C   UNL     1      -6.099  19.797  68.754  1.00  0.00    -0.287 C  
HETATM   21  C   UNL     1      -5.557  20.473  67.498  1.00  0.00    -0.225 C  
HETATM   22  C   UNL     1     -10.762  16.506  71.047  1.00  0.00     0.684 A  
HETATM   23  C   UNL     1     -11.374  17.595  70.434  1.00  0.00     2.397 A  
HETATM   24  C   UNL     1      -6.468  20.322  66.288  1.00  0.00    -0.246 C  
HETATM   25  C   UNL     1      -7.927  20.650  66.603  1.00  0.00    -0.118 C  
HETATM   26  C   UNL     1     -10.765  18.223  69.346  1.00  0.00     0.853 A  
ENDBRANCH   9  10
ENDBRANCH   8   9
ENDBRANCH   7   8
ENDBRANCH   3   7
ENDBRANCH   2   3
TORSDOF 6
ENDMDL
MODEL      238
REMARK 921   NORMALIZED FREE ENERGY PREDICTED BY IDOCK:    5.62 KCAL/MOL
REMARK 922        TOTAL FREE ENERGY PREDICTED BY IDOCK:    6.69 KCAL/MOL
REMARK 923 INTER-LIGAND FREE ENERGY PREDICTED BY IDOCK:    3.99 KCAL/MOL
REMARK 924 INTRA-LIGAND FREE ENERGY PREDICTED BY IDOCK:    2.70 KCAL/MOL
REMARK 927      BINDING AFFINITY PREDICTED BY RF-SCORE:    0.00 PKD
ROOT
HETATM    1  C   UNL     1     -11.160  13.251  66.409  1.00  0.00    -0.313 C  
HETATM    2  C   UNL     1     -11.765  14.637  66.266  1.00  0.00    -0.320 C  
ENDROOT
BRANCH   2   3
HETATM    3  N   UNL     1     -10.802  15.706  65.680  1.00  0.00    -0.339 N  
HETATM    4  C   UNL     1      -9.354  15.201  65.823  1.00  0.00    -0.172 C  
BRANCH   3   5
HETATM    5  C   UNL     1     -11.070  16.002  64.192  1.00  0.00     0.310 C  
HETATM    6  C   UNL     1     -12.418  15.497  63.700  1.00  0.00     0.878 C  
ENDBRANCH   3   5
BRANCH   3   7
HETATM    7  C   UNL     1     -10.981  16.962  66.559  1.00  0.00     0.171 C  
BRANCH   7   8
HETATM    8  C   UNL     1     -10.723  16.777  68.057  1.00  0.00    -0.355 C  
BRANCH   8   9
HETATM    9  O   UNL     1     -12.023  16.668  68.655  1.00  0.00     0.148 OA 
BRANCH   9  10
HETATM   10  C   UNL     1     -12.414  15.407  69.021  1.00  0.00     0.134 C  
HETATM   11  O   UNL     1     -13.344  14.808  68.501  1.00  0.00     2.217 OA 
HETATM   12  C   UNL     1     -11.596  14.946  70.270  1.00  0.00    -0.286 C  
HETATM   13  C   UNL     1     -10.505  13.983  69.795  1.00  0.00     0.365 A  
HETATM   14  O   UNL     1     -10.957  16.084  70.869  1.00  0.00    -0.286 OA 
HETATM   15  C   UNL     1     -12.589  14.313  71.310  1.00  0.00    -0.436 C  
HETATM   16  H   UNL     1     -10.460  15.804  71.629  1.00  0.00     0.000 HD 
HETATM   17  C   UNL     1      -9.141  14.254  70.022  1.00  0.00     1.383 A  
HETATM   18  C   UNL     1     -11.912  13.767  72.583  1.00  0.00     1.069 C  
HETATM   19  C   UNL     1      -8.146  13.392  69.557  1.00  0.00     0.986 A  
HETATM   20  C   UNL     1     -11.473  14.847  73.567  1.00  0.00     0.300 C  
HETATM   21  C   UNL     1     -12.617  15.781  73.947  1.00  0.00    -0.754 C  
HETATM   22  C   UNL     1      -8.494  12.245  68.857  1.00  0.00     0.234 A  
HETATM   23  C   UNL     1      -9.834  11.953  68.623  1.00  0.00    -0.139 A  
HETATM   24  C   UNL     1     -13.373  16.331  72.746  1.00  0.00    -0.079 C  
HETATM   25  C   UNL     1     -13.751  15.246  71.739  1.00  0.00    -0.605 C  
HETATM   26  C   UNL     1     -10.831  12.811  69.089  1.00  0.00    -0.123 A  
ENDBRANCH   9  10
ENDBRANCH   8   9
ENDBRANCH   7   8
ENDBRANCH   3   7
ENDBRANCH   2   3
TORSDOF 6
ENDMDL
MODEL      239
REMARK 921   NORMALIZED FREE ENERGY PREDICTED BY IDOCK:    6.22 KCAL/MOL
REMARK 922        TOTAL FREE ENERGY PREDICTED BY IDOCK:    7.49 KCAL/MOL
REMARK 923 INTER-LIGAND FREE ENERGY PREDICTED BY IDOCK:    7.62 KCAL/MOL
REMARK 924 INTRA-LIGAND FREE ENERGY PREDICTED BY IDOCK:   -0.13 KCAL/MOL
REMARK 927      BINDING AFFINITY PREDICTED BY RF-SCORE:    0.00 PKD
ROOT
HETATM    1  C   UNL     1      -9.071   8.343  67.867  1.00  0.00    -0.137 C  
HETATM    2  C   UNL     1     -10.050   8.155  69.013  1.00  0.00    -0.205 C  
ENDROOT
BRANCH   2   3
HETATM    3  N   UNL     1      -9.614   8.813  70.351  1.00  0.00    -0.173 N  
HETATM    4  C   UNL     1      -8.078   8.767  70.450  1.00  0.00    -0.116 C  
BRANCH   3   5
HETATM    5  C   UNL     1     -10.067  10.282  70.471  1.00  0.00     0.288 C  
HETATM    6  C   UNL     1     -11.566  10.476  70.299  1.00  0.00    -0.417 C  
ENDBRANCH   3   5
BRANCH   3   7
HETATM    7  C   UNL     1     -10.213   7.933  71.469  1.00  0.00    -0.190 C  
BRANCH   7   8
HETATM    8  C   UNL     1     -10.896   6.641  71.013  1.00  0.00    -0.245 C  
BRANCH   8   9
HETATM    9  O   UNL     1      -9.861   5.861  70.398  1.00  0.00    -0.172 OA 
BRANCH   9  10
HETATM   10  C   UNL     1     -10.148   4.539  70.184  1.00  0.00    -0.149 C  
HETATM   11  O   UNL     1     -11.124   3.972  70.655  1.00  0.00     1.850 OA 
HETATM   12  C   UNL     1      -8.979   3.869  69.392  1.00  0.00    -0.111 C  
HETATM   13  C   UNL     1      -9.411   3.735  67.929  1.00  0.00    -0.236 A  
HETATM   14  O   UNL     1      -7.822   4.718  69.440  1.00  0.00    -0.063 OA 
HETATM   15  C   UNL     1      -8.634   2.499  70.077  1.00  0.00    -0.108 C  
HETATM   16  H   UNL     1      -7.111   4.312  68.958  1.00  0.00     0.000 HD 
HETATM   17  C   UNL     1      -8.677   4.342  66.892  1.00  0.00    -0.112 A  
HETATM   18  C   UNL     1      -7.520   1.698  69.371  1.00  0.00    -0.042 C  
HETATM   19  C   UNL     1      -9.092   4.249  65.562  1.00  0.00    -0.138 A  
HETATM   20  C   UNL     1      -6.115   2.243  69.609  1.00  0.00    -0.024 C  
HETATM   21  C   UNL     1      -5.794   2.380  71.093  1.00  0.00    -0.014 C  
HETATM   22  C   UNL     1     -10.248   3.547  65.244  1.00  0.00     0.166 A  
HETATM   23  C   UNL     1     -10.989   2.936  66.251  1.00  0.00     4.668 A  
HETATM   24  C   UNL     1      -6.868   3.119  71.879  1.00  0.00    -0.026 C  
HETATM   25  C   UNL     1      -8.275   2.605  71.582  1.00  0.00    -0.063 C  
HETATM   26  C   UNL     1     -10.574   3.026  67.581  1.00  0.00     3.394 A  
ENDBRANCH   9  10
ENDBRANCH   8   9
ENDBRANCH   7   8
ENDBRANCH   3   7
ENDBRANCH   2   3
TORSDOF 6
ENDMDL
MODEL      240
REMARK 921   NORMALIZED FREE ENERGY PREDICTED BY IDOCK:    6.37 KCAL/MOL
REMARK 922        TOTAL FREE ENERGY PREDICTED BY IDOCK:    7.70 KCAL/MOL
REMARK 923 INTER-LIGAND FREE ENERGY PREDICTED BY IDOCK:    5.86 KCAL/MOL
REMARK 924 INTRA-LIGAND FREE ENERGY PREDICTED BY IDOCK:    1.84 KCAL/MOL
REMARK 927      BINDING AFFINITY PREDICTED BY RF-SCORE:    0.00 PKD
ROOT
HETATM    1  C   UNL     1      -6.536  16.044  71.901  1.00  0.00     2.976 C  
HETATM    2  C   UNL     1      -6.138  14.719  71.275  1.00  0.00     0.170 C  
ENDROOT
BRANCH   2   3
HETATM    3  N   UNL     1      -6.384  14.627  69.744  1.00  0.00    -0.140 N  
HETATM    4  C   UNL     1      -5.142  14.007  69.078  1.00  0.00    -0.075 C  
BRANCH   3   5
HETATM    5  C   UNL     1      -7.610  13.766  69.384  1.00  0.00     0.306 C  
HETATM    6  C   UNL     1      -7.545  13.158  67.991  1.00  0.00    -0.144 C  
ENDBRANCH   3   5
BRANCH   3   7
HETATM    7  C   UNL     1      -6.538  16.082  69.254  1.00  0.00    -0.176 C  
BRANCH   7   8
HETATM    8  C   UNL     1      -7.870  16.763  69.580  1.00  0.00     0.281 C  
BRANCH   8   9
HETATM    9  O   UNL     1      -8.847  16.097  68.766  1.00  0.00    -0.208 OA 
BRANCH   9  10
HETATM   10  C   UNL     1      -8.761  16.319  67.417  1.00  0.00    -0.182 C  
HETATM   11  O   UNL     1      -7.812  15.971  66.731  1.00  0.00    -0.226 OA 
HETATM   12  C   UNL     1      -9.970  17.194  66.953  1.00  0.00    -0.288 C  
HETATM   13  C   UNL     1     -10.993  16.274  66.282  1.00  0.00     0.008 A  
HETATM   14  O   UNL     1     -10.594  17.794  68.099  1.00  0.00    -0.378 OA 
HETATM   15  C   UNL     1      -9.431  18.331  66.013  1.00  0.00    -0.038 C  
HETATM   16  H   UNL     1     -11.329  18.326  67.817  1.00  0.00     0.000 HD 
HETATM   17  C   UNL     1     -12.311  16.167  66.768  1.00  0.00     2.216 A  
HETATM   18  C   UNL     1     -10.526  19.252  65.437  1.00  0.00     0.117 C  
HETATM   19  C   UNL     1     -13.232  15.302  66.176  1.00  0.00     2.385 A  
HETATM   20  C   UNL     1     -11.084  20.259  66.439  1.00  0.00     0.564 C  
HETATM   21  C   UNL     1      -9.986  21.098  67.085  1.00  0.00     0.313 C  
HETATM   22  C   UNL     1     -12.855  14.525  65.088  1.00  0.00    -0.072 A  
HETATM   23  C   UNL     1     -11.560  14.615  64.587  1.00  0.00    -0.406 A  
HETATM   24  C   UNL     1      -8.837  20.268  67.640  1.00  0.00    -0.368 C  
HETATM   25  C   UNL     1      -8.332  19.222  66.649  1.00  0.00    -0.319 C  
HETATM   26  C   UNL     1     -10.638  15.483  65.175  1.00  0.00    -0.455 A  
ENDBRANCH   9  10
ENDBRANCH   8   9
ENDBRANCH   7   8
ENDBRANCH   3   7
ENDBRANCH   2   3
TORSDOF 6
ENDMDL
MODEL      241
REMARK 921   NORMALIZED FREE ENERGY PREDICTED BY IDOCK:   17.71 KCAL/MOL
REMARK 922        TOTAL FREE ENERGY PREDICTED BY IDOCK:   23.02 KCAL/MOL
REMARK 923 INTER-LIGAND FREE ENERGY PREDICTED BY IDOCK:    3.56 KCAL/MOL
REMARK 924 INTRA-LIGAND FREE ENERGY PREDICTED BY IDOCK:   19.46 KCAL/MOL
REMARK 927      BINDING AFFINITY PREDICTED BY RF-SCORE:    0.00 PKD
ROOT
HETATM    1  C   UNL     1     -12.134   5.698  71.946  1.00  0.00     0.343 C  
HETATM    2  C   UNL     1     -10.859   5.166  71.316  1.00  0.00     0.004 C  
ENDROOT
BRANCH   2   3
HETATM    3  N   UNL     1      -9.549   5.739  71.923  1.00  0.00    -0.151 N  
HETATM    4  C   UNL     1      -9.565   5.509  73.446  1.00  0.00    -0.142 C  
BRANCH   3   5
HETATM    5  C   UNL     1      -8.282   5.079  71.344  1.00  0.00    -0.113 C  
HETATM    6  C   UNL     1      -7.910   5.581  69.957  1.00  0.00    -0.082 C  
ENDBRANCH   3   5
BRANCH   3   7
HETATM    7  C   UNL     1      -9.585   7.256  71.647  1.00  0.00    -0.151 C  
BRANCH   7   8
HETATM    8  C   UNL     1     -10.281   8.116  72.705  1.00  0.00    -0.302 C  
BRANCH   8   9
HETATM    9  O   UNL     1      -9.966   9.473  72.360  1.00  0.00     0.647 OA 
BRANCH   9  10
HETATM   10  C   UNL     1     -10.359   9.885  71.115  1.00  0.00     0.189 C  
HETATM   11  O   UNL     1     -11.086  10.848  70.917  1.00  0.00     0.181 OA 
HETATM   12  C   UNL     1      -9.861   8.862  70.043  1.00  0.00    -0.174 C  
HETATM   13  C   UNL     1      -8.627   9.455  69.357  1.00  0.00    -0.148 A  
HETATM   14  O   UNL     1      -9.469   7.643  70.692  1.00  0.00    -0.163 OA 
HETATM   15  C   UNL     1     -11.046   8.557  69.058  1.00  0.00     0.209 C  
HETATM   16  H   UNL     1      -9.166   7.021  70.041  1.00  0.00     0.000 HD 
HETATM   17  C   UNL     1      -7.386   8.788  69.381  1.00  0.00    -0.072 A  
HETATM   18  C   UNL     1     -10.685   7.591  67.911  1.00  0.00    -0.200 C  
HETATM   19  C   UNL     1      -6.255   9.346  68.785  1.00  0.00    -0.044 A  
HETATM   20  C   UNL     1     -10.580   6.130  68.337  1.00  0.00    -0.324 C  
HETATM   21  C   UNL     1     -11.839   5.644  69.048  1.00  0.00     2.470 C  
HETATM   22  C   UNL     1      -6.340  10.581  68.155  1.00  0.00    -0.058 A  
HETATM   23  C   UNL     1      -7.555  11.258  68.116  1.00  0.00    -0.105 A  
HETATM   24  C   UNL     1     -12.295   6.568  70.169  1.00  0.00     0.381 C  
HETATM   25  C   UNL     1     -12.334   8.035  69.746  1.00  0.00     1.521 C  
HETATM   26  C   UNL     1      -8.689  10.700  68.707  1.00  0.00    -0.157 A  
ENDBRANCH   9  10
ENDBRANCH   8   9
ENDBRANCH   7   8
ENDBRANCH   3   7
ENDBRANCH   2   3
TORSDOF 6
ENDMDL
MODEL      242
REMARK 921   NORMALIZED FREE ENERGY PREDICTED BY IDOCK:   18.92 KCAL/MOL
REMARK 922        TOTAL FREE ENERGY PREDICTED BY IDOCK:   24.65 KCAL/MOL
REMARK 923 INTER-LIGAND FREE ENERGY PREDICTED BY IDOCK:   16.53 KCAL/MOL
REMARK 924 INTRA-LIGAND FREE ENERGY PREDICTED BY IDOCK:    8.11 KCAL/MOL
REMARK 927      BINDING AFFINITY PREDICTED BY RF-SCORE:    0.00 PKD
ROOT
HETATM    1  C   UNL     1      -5.296  12.880  70.076  1.00  0.00    -0.104 C  
HETATM    2  C   UNL     1      -6.650  13.293  70.628  1.00  0.00     0.790 C  
ENDROOT
BRANCH   2   3
HETATM    3  N   UNL     1      -6.934  14.819  70.572  1.00  0.00     0.161 N  
HETATM    4  C   UNL     1      -7.357  15.297  71.974  1.00  0.00     4.187 C  
BRANCH   3   5
HETATM    5  C   UNL     1      -5.708  15.640  70.127  1.00  0.00    -0.151 C  
HETATM    6  C   UNL     1      -6.021  17.101  69.841  1.00  0.00    -0.220 C  
ENDBRANCH   3   5
BRANCH   3   7
HETATM    7  C   UNL     1      -8.124  14.992  69.605  1.00  0.00    -0.049 C  
BRANCH   7   8
HETATM    8  C   UNL     1      -7.775  15.077  68.117  1.00  0.00    -0.113 C  
BRANCH   8   9
HETATM    9  O   UNL     1      -8.158  16.399  67.712  1.00  0.00    -0.153 OA 
BRANCH   9  10
HETATM   10  C   UNL     1      -9.504  16.641  67.641  1.00  0.00    -0.226 C  
HETATM   11  O   UNL     1     -10.060  17.095  66.651  1.00  0.00    -0.283 OA 
HETATM   12  C   UNL     1     -10.157  16.390  69.039  1.00  0.00    -0.262 C  
HETATM   13  C   UNL     1     -10.855  15.028  68.999  1.00  0.00    -0.242 A  
HETATM   14  O   UNL     1      -9.131  16.337  70.042  1.00  0.00     0.428 OA 
HETATM   15  C   UNL     1     -11.122  17.586  69.360  1.00  0.00     0.818 C  
HETATM   16  H   UNL     1      -9.527  16.184  70.892  1.00  0.00     0.000 HD 
HETATM   17  C   UNL     1     -10.500  13.998  69.892  1.00  0.00     0.505 A  
HETATM   18  C   UNL     1     -11.878  17.452  70.697  1.00  0.00     3.353 C  
HETATM   19  C   UNL     1     -11.113  12.746  69.832  1.00  0.00     0.249 A  
HETATM   20  C   UNL     1     -11.020  17.731  71.928  1.00  0.00     2.550 C  
HETATM   21  C   UNL     1     -10.333  19.091  71.855  1.00  0.00     3.547 C  
HETATM   22  C   UNL     1     -12.093  12.499  68.879  1.00  0.00    -0.167 A  
HETATM   23  C   UNL     1     -12.464  13.501  67.988  1.00  0.00     0.313 A  
HETATM   24  C   UNL     1      -9.599  19.328  70.543  1.00  0.00     1.563 C  
HETATM   25  C   UNL     1     -10.449  18.983  69.321  1.00  0.00     0.363 C  
HETATM   26  C   UNL     1     -11.855  14.755  68.049  1.00  0.00    -0.324 A  
ENDBRANCH   9  10
ENDBRANCH   8   9
ENDBRANCH   7   8
ENDBRANCH   3   7
ENDBRANCH   2   3
TORSDOF 6
ENDMDL
MODEL      243
REMARK 921   NORMALIZED FREE ENERGY PREDICTED BY IDOCK:   19.37 KCAL/MOL
REMARK 922        TOTAL FREE ENERGY PREDICTED BY IDOCK:   25.25 KCAL/MOL
REMARK 923 INTER-LIGAND FREE ENERGY PREDICTED BY IDOCK:   23.65 KCAL/MOL
REMARK 924 INTRA-LIGAND FREE ENERGY PREDICTED BY IDOCK:    1.61 KCAL/MOL
REMARK 927      BINDING AFFINITY PREDICTED BY RF-SCORE:    0.00 PKD
ROOT
HETATM    1  C   UNL     1      -8.523  13.121  65.494  1.00  0.00     2.122 C  
HETATM    2  C   UNL     1      -9.279  12.732  66.753  1.00  0.00    -0.225 C  
ENDROOT
BRANCH   2   3
HETATM    3  N   UNL     1      -9.803  13.932  67.589  1.00  0.00    -0.232 N  
HETATM    4  C   UNL     1     -11.311  14.099  67.325  1.00  0.00    -0.332 C  
BRANCH   3   5
HETATM    5  C   UNL     1      -9.592  13.744  69.104  1.00  0.00     0.319 C  
HETATM    6  C   UNL     1     -10.390  12.591  69.695  1.00  0.00     0.879 C  
ENDBRANCH   3   5
BRANCH   3   7
HETATM    7  C   UNL     1      -9.062  15.175  67.054  1.00  0.00    -0.230 C  
BRANCH   7   8
HETATM    8  C   UNL     1      -8.791  16.286  68.072  1.00  0.00    -0.182 C  
BRANCH   8   9
HETATM    9  O   UNL     1      -9.243  17.495  67.445  1.00  0.00    -0.235 OA 
BRANCH   9  10
HETATM   10  C   UNL     1      -9.922  18.373  68.247  1.00  0.00    -0.369 C  
HETATM   11  O   UNL     1     -10.742  19.178  67.830  1.00  0.00    -0.388 OA 
HETATM   12  C   UNL     1      -9.379  18.274  69.709  1.00  0.00     0.978 C  
HETATM   13  C   UNL     1     -10.374  17.451  70.532  1.00  0.00     1.433 A  
HETATM   14  O   UNL     1      -8.122  17.582  69.706  1.00  0.00     0.689 OA 
HETATM   15  C   UNL     1      -9.158  19.730  70.258  1.00  0.00     1.220 C  
HETATM   16  H   UNL     1      -7.791  17.521  70.595  1.00  0.00     0.000 HD 
HETATM   17  C   UNL     1      -9.982  16.262  71.178  1.00  0.00     2.414 A  
HETATM   18  C   UNL     1      -8.664  19.790  71.717  1.00  0.00     3.345 C  
HETATM   19  C   UNL     1     -10.898  15.495  71.898  1.00  0.00     0.244 A  
HETATM   20  C   UNL     1      -7.191  19.433  71.892  1.00  0.00     2.729 C  
HETATM   21  C   UNL     1      -6.284  20.277  71.001  1.00  0.00    -0.185 C  
HETATM   22  C   UNL     1     -12.224  15.899  71.986  1.00  0.00    -0.570 A  
HETATM   23  C   UNL     1     -12.636  17.071  71.360  1.00  0.00     3.930 A  
HETATM   24  C   UNL     1      -6.728  20.311  69.546  1.00  0.00    -0.166 C  
HETATM   25  C   UNL     1      -8.218  20.607  69.390  1.00  0.00     1.484 C  
HETATM   26  C   UNL     1     -11.720  17.843  70.642  1.00  0.00     4.974 A  
ENDBRANCH   9  10
ENDBRANCH   8   9
ENDBRANCH   7   8
ENDBRANCH   3   7
ENDBRANCH   2   3
TORSDOF 6
ENDMDL
MODEL      244
REMARK 921   NORMALIZED FREE ENERGY PREDICTED BY IDOCK:   28.45 KCAL/MOL
REMARK 922        TOTAL FREE ENERGY PREDICTED BY IDOCK:   37.52 KCAL/MOL
REMARK 923 INTER-LIGAND FREE ENERGY PREDICTED BY IDOCK:   19.90 KCAL/MOL
REMARK 924 INTRA-LIGAND FREE ENERGY PREDICTED BY IDOCK:   17.62 KCAL/MOL
REMARK 927      BINDING AFFINITY PREDICTED BY RF-SCORE:    0.00 PKD
ROOT
HETATM    1  C   UNL     1      -8.769  18.958  65.868  1.00  0.00     0.145 C  
HETATM    2  C   UNL     1      -8.508  18.241  67.182  1.00  0.00    -0.250 C  
ENDROOT
BRANCH   2   3
HETATM    3  N   UNL     1      -8.578  16.692  67.099  1.00  0.00    -0.186 N  
HETATM    4  C   UNL     1      -7.151  16.124  67.210  1.00  0.00    -0.196 C  
BRANCH   3   5
HETATM    5  C   UNL     1      -9.439  16.070  68.216  1.00  0.00    -0.206 C  
HETATM    6  C   UNL     1     -10.905  15.913  67.844  1.00  0.00    -0.327 C  
ENDBRANCH   3   5
BRANCH   3   7
HETATM    7  C   UNL     1      -9.136  16.369  65.696  1.00  0.00     0.158 C  
BRANCH   7   8
HETATM    8  C   UNL     1      -8.745  15.009  65.114  1.00  0.00     2.887 C  
BRANCH   8   9
HETATM    9  O   UNL     1      -8.512  14.162  66.249  1.00  0.00     0.288 OA 
BRANCH   9  10
HETATM   10  C   UNL     1      -9.625  13.616  66.831  1.00  0.00    -0.262 C  
HETATM   11  O   UNL     1      -9.624  13.085  67.932  1.00  0.00    -0.201 OA 
HETATM   12  C   UNL     1     -10.816  13.651  65.820  1.00  0.00    -0.273 C  
HETATM   13  C   UNL     1     -11.735  14.813  66.208  1.00  0.00    -0.260 A  
HETATM   14  O   UNL     1     -10.314  13.902  64.499  1.00  0.00    -0.548 OA 
HETATM   15  C   UNL     1     -11.528  12.251  65.838  1.00  0.00    -0.428 C  
HETATM   16  H   UNL     1     -11.038  13.924  63.884  1.00  0.00     0.000 HD 
HETATM   17  C   UNL     1     -12.008  15.861  65.307  1.00  0.00     0.688 A  
HETATM   18  C   UNL     1     -12.760  12.152  64.916  1.00  0.00     0.061 C  
HETATM   19  C   UNL     1     -12.818  16.937  65.675  1.00  0.00     6.549 A  
HETATM   20  C   UNL     1     -12.420  12.031  63.433  1.00  0.00    -0.625 C  
HETATM   21  C   UNL     1     -11.468  10.873  63.153  1.00  0.00     1.082 C  
HETATM   22  C   UNL     1     -13.369  16.988  66.949  1.00  0.00     8.645 A  
HETATM   23  C   UNL     1     -13.116  15.963  67.856  1.00  0.00     3.531 A  
HETATM   24  C   UNL     1     -10.242  10.866  64.055  1.00  0.00    -0.422 C  
HETATM   25  C   UNL     1     -10.593  11.052  65.530  1.00  0.00    -0.267 C  
HETATM   26  C   UNL     1     -12.310  14.884  67.489  1.00  0.00     0.315 A  
ENDBRANCH   9  10
ENDBRANCH   8   9
ENDBRANCH   7   8
ENDBRANCH   3   7
ENDBRANCH   2   3
TORSDOF 6
ENDMDL
