MODEL        1
REMARK 921   NORMALIZED FREE ENERGY PREDICTED BY IDOCK:   -7.39 KCAL/MOL
REMARK 922        TOTAL FREE ENERGY PREDICTED BY IDOCK:   -9.13 KCAL/MOL
REMARK 923 INTER-LIGAND FREE ENERGY PREDICTED BY IDOCK:   -8.69 KCAL/MOL
REMARK 924 INTRA-LIGAND FREE ENERGY PREDICTED BY IDOCK:   -0.45 KCAL/MOL
REMARK 927      BINDING AFFINITY PREDICTED BY RF-SCORE:    0.00 PKD
ROOT
HETATM    1  C   UNL     1     -13.233  15.528  71.404  1.00  0.00    -0.510 C  
HETATM    2  N   UNL     1     -12.991  14.103  71.241  1.00  0.00    -0.341 NA 
HETATM    3  C   UNL     1     -13.570  13.254  72.264  1.00  0.00    -0.605 C  
HETATM    4  C   UNL     1     -13.350  11.770  72.072  1.00  0.00    -0.417 C  
HETATM    5  C   UNL     1     -12.437  11.326  70.953  1.00  0.00    -0.394 C  
HETATM    6  N   UNL     1     -11.888  12.360  70.101  1.00  0.00    -0.502 NA 
HETATM    7  H   UNL     1     -11.255  12.090  69.348  1.00  0.00     0.000 HD 
HETATM    8  C   UNL     1     -12.166  13.601  70.255  1.00  0.00    -0.353 C  
ENDROOT
BRANCH   8   9
HETATM    9  C   UNL     1     -11.482  14.597  69.260  1.00  0.00    -0.291 C  
BRANCH   9  10
HETATM   10  O   UNL     1     -11.276  14.174  67.915  1.00  0.00    -0.260 OA 
BRANCH  10  11
HETATM   11  C   UNL     1     -10.249  13.276  67.731  1.00  0.00    -0.228 C  
HETATM   12  C   UNL     1     -10.653  12.254  66.609  1.00  0.00    -0.229 C  
HETATM   13  O   UNL     1      -9.187  13.302  68.342  1.00  0.00    -0.196 OA 
HETATM   14  C   UNL     1     -10.091  10.861  66.976  1.00  0.00    -0.244 A  
HETATM   15  O   UNL     1     -12.081  12.118  66.576  1.00  0.00    -0.627 OA 
HETATM   16  C   UNL     1     -10.161  12.836  65.224  1.00  0.00    -0.296 C  
HETATM   17  C   UNL     1     -10.382  11.920  64.001  1.00  0.00    -0.403 C  
HETATM   18  C   UNL     1     -10.875   9.936  67.701  1.00  0.00    -0.318 A  
HETATM   19  H   UNL     1     -12.326  11.500  65.898  1.00  0.00     0.000 HD 
HETATM   20  C   UNL     1     -11.833  11.856  63.531  1.00  0.00    -0.560 C  
HETATM   21  C   UNL     1     -10.387   8.672  68.054  1.00  0.00    -0.277 A  
HETATM   22  C   UNL     1      -9.095   8.302  67.697  1.00  0.00    -0.139 A  
HETATM   23  C   UNL     1     -12.402  13.237  63.221  1.00  0.00    -0.317 C  
HETATM   24  C   UNL     1     -12.178  14.232  64.347  1.00  0.00    -0.471 C  
HETATM   25  C   UNL     1      -8.290   9.200  67.005  1.00  0.00    -0.120 A  
HETATM   26  C   UNL     1      -8.777  10.469  66.658  1.00  0.00    -0.138 A  
HETATM   27  C   UNL     1     -10.739  14.222  64.846  1.00  0.00    -0.448 C  
ENDBRANCH  10  11
ENDBRANCH   9  10
ENDBRANCH   8   9
TORSDOF 3
ENDMDL
MODEL        2
REMARK 921   NORMALIZED FREE ENERGY PREDICTED BY IDOCK:   -7.32 KCAL/MOL
REMARK 922        TOTAL FREE ENERGY PREDICTED BY IDOCK:   -9.05 KCAL/MOL
REMARK 923 INTER-LIGAND FREE ENERGY PREDICTED BY IDOCK:   -8.39 KCAL/MOL
REMARK 924 INTRA-LIGAND FREE ENERGY PREDICTED BY IDOCK:   -0.67 KCAL/MOL
REMARK 927      BINDING AFFINITY PREDICTED BY RF-SCORE:    0.00 PKD
ROOT
HETATM    1  C   UNL     1     -10.819  19.508  67.186  1.00  0.00    -0.437 C  
HETATM    2  N   UNL     1      -9.477  19.199  67.654  1.00  0.00    -0.299 NA 
HETATM    3  C   UNL     1      -8.436  20.096  67.189  1.00  0.00    -0.342 C  
HETATM    4  C   UNL     1      -7.047  19.796  67.707  1.00  0.00    -0.304 C  
HETATM    5  C   UNL     1      -6.846  18.531  68.510  1.00  0.00    -0.264 C  
HETATM    6  N   UNL     1      -8.020  17.728  68.781  1.00  0.00    -0.271 NA 
HETATM    7  H   UNL     1      -7.910  16.861  69.306  1.00  0.00     0.000 HD 
HETATM    8  C   UNL     1      -9.191  18.064  68.387  1.00  0.00    -0.294 C  
ENDROOT
BRANCH   8   9
HETATM    9  C   UNL     1     -10.357  17.083  68.748  1.00  0.00    -0.336 C  
BRANCH   9  10
HETATM   10  O   UNL     1     -10.647  16.019  67.847  1.00  0.00    -0.283 OA 
BRANCH  10  11
HETATM   11  C   UNL     1     -10.092  14.802  68.174  1.00  0.00    -0.221 C  
HETATM   12  C   UNL     1     -10.959  13.654  67.544  1.00  0.00    -0.268 C  
HETATM   13  O   UNL     1      -9.070  14.661  68.837  1.00  0.00    -0.192 OA 
HETATM   14  C   UNL     1     -10.988  12.456  68.521  1.00  0.00    -0.277 A  
HETATM   15  O   UNL     1     -12.316  14.098  67.408  1.00  0.00    -0.567 OA 
HETATM   16  C   UNL     1     -10.375  13.339  66.109  1.00  0.00    -0.290 C  
HETATM   17  C   UNL     1     -11.038  12.161  65.364  1.00  0.00    -0.362 C  
HETATM   18  C   UNL     1     -12.026  12.327  69.471  1.00  0.00    -0.333 A  
HETATM   19  H   UNL     1     -12.841  13.403  67.026  1.00  0.00     0.000 HD 
HETATM   20  C   UNL     1     -12.420  12.486  64.801  1.00  0.00    -0.532 C  
HETATM   21  C   UNL     1     -12.071  11.257  70.374  1.00  0.00    -0.474 A  
HETATM   22  C   UNL     1     -11.072  10.290  70.355  1.00  0.00    -0.391 A  
HETATM   23  C   UNL     1     -12.398  13.701  63.880  1.00  0.00    -0.375 C  
HETATM   24  C   UNL     1     -11.706  14.901  64.504  1.00  0.00    -0.388 C  
HETATM   25  C   UNL     1     -10.024  10.403  69.448  1.00  0.00    -0.240 A  
HETATM   26  C   UNL     1      -9.975  11.480  68.550  1.00  0.00    -0.207 A  
HETATM   27  C   UNL     1     -10.364  14.533  65.123  1.00  0.00    -0.438 C  
ENDBRANCH  10  11
ENDBRANCH   9  10
ENDBRANCH   8   9
TORSDOF 3
ENDMDL
MODEL        3
REMARK 921   NORMALIZED FREE ENERGY PREDICTED BY IDOCK:   -7.18 KCAL/MOL
REMARK 922        TOTAL FREE ENERGY PREDICTED BY IDOCK:   -8.89 KCAL/MOL
REMARK 923 INTER-LIGAND FREE ENERGY PREDICTED BY IDOCK:   -7.96 KCAL/MOL
REMARK 924 INTRA-LIGAND FREE ENERGY PREDICTED BY IDOCK:   -0.93 KCAL/MOL
REMARK 927      BINDING AFFINITY PREDICTED BY RF-SCORE:    0.00 PKD
ROOT
HETATM    1  C   UNL     1      -6.986  18.274  68.752  1.00  0.00    -0.270 C  
HETATM    2  N   UNL     1      -8.116  18.495  67.864  1.00  0.00    -0.252 NA 
HETATM    3  C   UNL     1      -8.866  19.713  68.103  1.00  0.00    -0.320 C  
HETATM    4  C   UNL     1     -10.018  19.960  67.155  1.00  0.00    -0.557 C  
HETATM    5  C   UNL     1     -10.375  18.870  66.172  1.00  0.00    -0.460 C  
HETATM    6  N   UNL     1      -9.540  17.686  66.168  1.00  0.00    -0.492 NA 
HETATM    7  H   UNL     1      -9.769  16.928  65.526  1.00  0.00     0.000 HD 
HETATM    8  C   UNL     1      -8.526  17.555  66.938  1.00  0.00    -0.239 C  
ENDROOT
BRANCH   8   9
HETATM    9  C   UNL     1      -7.732  16.211  66.823  1.00  0.00    -0.253 C  
BRANCH   9  10
HETATM   10  O   UNL     1      -8.451  15.028  66.490  1.00  0.00    -0.217 OA 
BRANCH  10  11
HETATM   11  C   UNL     1      -8.991  14.346  67.557  1.00  0.00    -0.190 C  
HETATM   12  C   UNL     1     -10.507  14.055  67.269  1.00  0.00    -0.268 C  
HETATM   13  O   UNL     1      -8.363  14.012  68.556  1.00  0.00    -0.154 OA 
HETATM   14  C   UNL     1     -11.299  14.171  68.593  1.00  0.00    -0.306 A  
HETATM   15  O   UNL     1     -11.031  15.064  66.395  1.00  0.00    -0.329 OA 
HETATM   16  C   UNL     1     -10.601  12.651  66.549  1.00  0.00    -0.272 C  
HETATM   17  C   UNL     1     -12.031  12.141  66.270  1.00  0.00    -0.213 C  
HETATM   18  C   UNL     1     -11.900  15.393  68.967  1.00  0.00    -0.357 A  
HETATM   19  H   UNL     1     -11.949  14.888  66.221  1.00  0.00     0.000 HD 
HETATM   20  C   UNL     1     -12.727  12.854  65.112  1.00  0.00    -0.443 C  
HETATM   21  C   UNL     1     -12.614  15.528  70.164  1.00  0.00    -0.304 A  
HETATM   22  C   UNL     1     -12.739  14.443  71.024  1.00  0.00    -0.416 A  
HETATM   23  C   UNL     1     -11.918  12.784  63.821  1.00  0.00    -0.585 C  
HETATM   24  C   UNL     1     -10.471  13.210  64.008  1.00  0.00    -0.258 C  
HETATM   25  C   UNL     1     -12.135  13.233  70.696  1.00  0.00    -0.361 A  
HETATM   26  C   UNL     1     -11.414  13.102  69.500  1.00  0.00    -0.291 A  
HETATM   27  C   UNL     1      -9.826  12.540  65.213  1.00  0.00    -0.157 C  
ENDBRANCH  10  11
ENDBRANCH   9  10
ENDBRANCH   8   9
TORSDOF 3
ENDMDL
MODEL        4
REMARK 921   NORMALIZED FREE ENERGY PREDICTED BY IDOCK:   -7.17 KCAL/MOL
REMARK 922        TOTAL FREE ENERGY PREDICTED BY IDOCK:   -8.88 KCAL/MOL
REMARK 923 INTER-LIGAND FREE ENERGY PREDICTED BY IDOCK:   -8.36 KCAL/MOL
REMARK 924 INTRA-LIGAND FREE ENERGY PREDICTED BY IDOCK:   -0.51 KCAL/MOL
REMARK 927      BINDING AFFINITY PREDICTED BY RF-SCORE:    0.00 PKD
ROOT
HETATM    1  C   UNL     1      -7.304  17.409  68.919  1.00  0.00    -0.244 C  
HETATM    2  N   UNL     1      -8.169  18.365  68.246  1.00  0.00    -0.291 NA 
HETATM    3  C   UNL     1      -7.510  19.557  67.750  1.00  0.00    -0.269 C  
HETATM    4  C   UNL     1      -8.404  20.533  67.018  1.00  0.00    -0.313 C  
HETATM    5  C   UNL     1      -9.891  20.264  67.008  1.00  0.00    -0.467 C  
HETATM    6  N   UNL     1     -10.345  19.049  67.651  1.00  0.00    -0.397 NA 
HETATM    7  H   UNL     1     -11.345  18.851  67.674  1.00  0.00     0.000 HD 
HETATM    8  C   UNL     1      -9.540  18.212  68.192  1.00  0.00    -0.307 C  
ENDROOT
BRANCH   8   9
HETATM    9  C   UNL     1     -10.188  16.952  68.857  1.00  0.00    -0.314 C  
BRANCH   9  10
HETATM   10  O   UNL     1     -10.614  15.886  68.013  1.00  0.00    -0.269 OA 
BRANCH  10  11
HETATM   11  C   UNL     1     -10.067  14.655  68.296  1.00  0.00    -0.228 C  
HETATM   12  C   UNL     1     -10.939  13.536  67.622  1.00  0.00    -0.263 C  
HETATM   13  O   UNL     1      -9.046  14.484  68.953  1.00  0.00    -0.180 OA 
HETATM   14  C   UNL     1     -10.976  12.303  68.556  1.00  0.00    -0.275 A  
HETATM   15  O   UNL     1     -12.294  13.992  67.502  1.00  0.00    -0.529 OA 
HETATM   16  C   UNL     1     -10.356  13.271  66.178  1.00  0.00    -0.290 C  
HETATM   17  C   UNL     1     -11.025  12.125  65.390  1.00  0.00    -0.346 C  
HETATM   18  C   UNL     1     -12.016  12.145  69.499  1.00  0.00    -0.338 A  
HETATM   19  H   UNL     1     -12.822  13.315  67.095  1.00  0.00     0.000 HD 
HETATM   20  C   UNL     1     -12.404  12.478  64.838  1.00  0.00    -0.539 C  
HETATM   21  C   UNL     1     -12.068  11.043  70.362  1.00  0.00    -0.463 A  
HETATM   22  C   UNL     1     -11.075  10.072  70.308  1.00  0.00    -0.381 A  
HETATM   23  C   UNL     1     -12.374  13.726  63.962  1.00  0.00    -0.370 C  
HETATM   24  C   UNL     1     -11.676  14.898  64.630  1.00  0.00    -0.406 C  
HETATM   25  C   UNL     1     -10.025  10.212  69.406  1.00  0.00    -0.247 A  
HETATM   26  C   UNL     1      -9.969  11.320  68.548  1.00  0.00    -0.206 A  
HETATM   27  C   UNL     1     -10.337  14.500  65.237  1.00  0.00    -0.435 C  
ENDBRANCH  10  11
ENDBRANCH   9  10
ENDBRANCH   8   9
TORSDOF 3
ENDMDL
MODEL        5
REMARK 921   NORMALIZED FREE ENERGY PREDICTED BY IDOCK:   -7.04 KCAL/MOL
REMARK 922        TOTAL FREE ENERGY PREDICTED BY IDOCK:   -8.72 KCAL/MOL
REMARK 923 INTER-LIGAND FREE ENERGY PREDICTED BY IDOCK:   -8.22 KCAL/MOL
REMARK 924 INTRA-LIGAND FREE ENERGY PREDICTED BY IDOCK:   -0.50 KCAL/MOL
REMARK 927      BINDING AFFINITY PREDICTED BY RF-SCORE:    0.00 PKD
ROOT
HETATM    1  C   UNL     1     -13.207  11.323  71.813  1.00  0.00    -0.375 C  
HETATM    2  N   UNL     1     -13.216  12.762  71.603  1.00  0.00    -0.376 NA 
HETATM    3  C   UNL     1     -14.145  13.505  72.433  1.00  0.00    -0.461 C  
HETATM    4  C   UNL     1     -14.126  15.005  72.240  1.00  0.00    -0.612 C  
HETATM    5  C   UNL     1     -13.281  15.566  71.120  1.00  0.00    -0.507 C  
HETATM    6  N   UNL     1     -12.496  14.624  70.350  1.00  0.00    -0.339 NA 
HETATM    7  H   UNL     1     -11.930  14.974  69.578  1.00  0.00     0.000 HD 
HETATM    8  C   UNL     1     -12.485  13.368  70.601  1.00  0.00    -0.311 C  
ENDROOT
BRANCH   8   9
HETATM    9  C   UNL     1     -11.594  12.479  69.670  1.00  0.00    -0.253 C  
BRANCH   9  10
HETATM   10  O   UNL     1     -10.380  13.031  69.168  1.00  0.00    -0.016 OA 
BRANCH  10  11
HETATM   11  C   UNL     1     -10.065  12.681  67.874  1.00  0.00    -0.222 C  
HETATM   12  C   UNL     1     -10.534  13.822  66.903  1.00  0.00    -0.272 C  
HETATM   13  O   UNL     1      -9.489  11.646  67.557  1.00  0.00    -0.168 OA 
HETATM   14  C   UNL     1     -11.043  13.182  65.590  1.00  0.00    -0.296 A  
HETATM   15  O   UNL     1     -11.653  14.511  67.478  1.00  0.00    -0.347 OA 
HETATM   16  C   UNL     1      -9.335  14.839  66.736  1.00  0.00    -0.268 C  
HETATM   17  C   UNL     1      -9.571  15.987  65.733  1.00  0.00    -0.311 C  
HETATM   18  C   UNL     1     -12.411  12.872  65.424  1.00  0.00    -0.511 A  
HETATM   19  H   UNL     1     -11.937  15.201  66.890  1.00  0.00     0.000 HD 
HETATM   20  C   UNL     1     -10.507  17.077  66.250  1.00  0.00    -0.258 C  
HETATM   21  C   UNL     1     -12.897  12.284  64.250  1.00  0.00    -0.336 A  
HETATM   22  C   UNL     1     -12.024  11.983  63.211  1.00  0.00    -0.477 A  
HETATM   23  C   UNL     1     -10.031  17.668  67.573  1.00  0.00    -0.322 C  
HETATM   24  C   UNL     1      -9.712  16.607  68.612  1.00  0.00    -0.248 C  
HETATM   25  C   UNL     1     -10.667  12.254  63.355  1.00  0.00    -0.438 A  
HETATM   26  C   UNL     1     -10.180  12.836  64.534  1.00  0.00    -0.333 A  
HETATM   27  C   UNL     1      -8.838  15.495  68.048  1.00  0.00    -0.165 C  
ENDBRANCH  10  11
ENDBRANCH   9  10
ENDBRANCH   8   9
TORSDOF 3
ENDMDL
MODEL        6
REMARK 921   NORMALIZED FREE ENERGY PREDICTED BY IDOCK:   -7.03 KCAL/MOL
REMARK 922        TOTAL FREE ENERGY PREDICTED BY IDOCK:   -8.72 KCAL/MOL
REMARK 923 INTER-LIGAND FREE ENERGY PREDICTED BY IDOCK:   -8.20 KCAL/MOL
REMARK 924 INTRA-LIGAND FREE ENERGY PREDICTED BY IDOCK:   -0.52 KCAL/MOL
REMARK 927      BINDING AFFINITY PREDICTED BY RF-SCORE:    0.00 PKD
ROOT
HETATM    1  C   UNL     1      -9.197  19.459  68.826  1.00  0.00    -0.369 C  
HETATM    2  N   UNL     1      -8.253  19.779  67.766  1.00  0.00    -0.300 NA 
HETATM    3  C   UNL     1      -7.192  20.695  68.136  1.00  0.00    -0.092 C  
HETATM    4  C   UNL     1      -6.189  20.997  67.044  1.00  0.00    -0.379 C  
HETATM    5  C   UNL     1      -6.465  20.460  65.659  1.00  0.00    -0.246 C  
HETATM    6  N   UNL     1      -7.644  19.636  65.494  1.00  0.00    -0.409 NA 
HETATM    7  H   UNL     1      -7.863  19.274  64.566  1.00  0.00     0.000 HD 
HETATM    8  C   UNL     1      -8.422  19.343  66.467  1.00  0.00    -0.337 C  
ENDROOT
BRANCH   8   9
HETATM    9  C   UNL     1      -9.663  18.451  66.124  1.00  0.00    -0.229 C  
BRANCH   9  10
HETATM   10  O   UNL     1      -9.484  17.039  66.065  1.00  0.00    -0.436 OA 
BRANCH  10  11
HETATM   11  C   UNL     1     -10.512  16.339  65.473  1.00  0.00    -0.362 C  
HETATM   12  C   UNL     1     -10.705  14.974  66.225  1.00  0.00    -0.322 C  
HETATM   13  O   UNL     1     -11.172  16.747  64.524  1.00  0.00    -0.997 OA 
HETATM   14  C   UNL     1     -11.085  13.885  65.193  1.00  0.00    -0.334 A  
HETATM   15  O   UNL     1      -9.459  14.565  66.804  1.00  0.00    -0.245 OA 
HETATM   16  C   UNL     1     -11.758  15.203  67.381  1.00  0.00    -0.189 C  
HETATM   17  C   UNL     1     -12.158  13.943  68.177  1.00  0.00    -0.317 C  
HETATM   18  C   UNL     1     -10.088  13.085  64.592  1.00  0.00    -0.253 A  
HETATM   19  H   UNL     1      -9.575  13.739  67.259  1.00  0.00     0.000 HD 
HETATM   20  C   UNL     1     -11.089  13.467  69.158  1.00  0.00    -0.261 C  
HETATM   21  C   UNL     1     -10.403  12.099  63.649  1.00  0.00    -0.482 A  
HETATM   22  C   UNL     1     -11.727  11.893  63.276  1.00  0.00    -0.397 A  
HETATM   23  C   UNL     1     -10.677  14.559  70.139  1.00  0.00     0.110 C  
HETATM   24  C   UNL     1     -10.323  15.867  69.451  1.00  0.00    -0.265 C  
HETATM   25  C   UNL     1     -12.728  12.683  63.832  1.00  0.00    -0.350 A  
HETATM   26  C   UNL     1     -12.410  13.675  64.770  1.00  0.00    -0.429 A  
HETATM   27  C   UNL     1     -11.370  16.279  68.425  1.00  0.00    -0.312 C  
ENDBRANCH  10  11
ENDBRANCH   9  10
ENDBRANCH   8   9
TORSDOF 3
ENDMDL
MODEL        7
REMARK 921   NORMALIZED FREE ENERGY PREDICTED BY IDOCK:   -6.99 KCAL/MOL
REMARK 922        TOTAL FREE ENERGY PREDICTED BY IDOCK:   -8.66 KCAL/MOL
REMARK 923 INTER-LIGAND FREE ENERGY PREDICTED BY IDOCK:   -8.09 KCAL/MOL
REMARK 924 INTRA-LIGAND FREE ENERGY PREDICTED BY IDOCK:   -0.57 KCAL/MOL
REMARK 927      BINDING AFFINITY PREDICTED BY RF-SCORE:    0.00 PKD
ROOT
HETATM    1  C   UNL     1     -12.083  11.601  70.420  1.00  0.00    -0.373 C  
HETATM    2  N   UNL     1     -12.536  12.934  70.782  1.00  0.00    -0.280 NA 
HETATM    3  C   UNL     1     -13.234  13.030  72.050  1.00  0.00    -0.444 C  
HETATM    4  C   UNL     1     -13.671  14.424  72.443  1.00  0.00    -0.590 C  
HETATM    5  C   UNL     1     -13.490  15.535  71.436  1.00  0.00    -0.499 C  
HETATM    6  N   UNL     1     -12.847  15.194  70.185  1.00  0.00    -0.625 NA 
HETATM    7  H   UNL     1     -12.728  15.921  69.480  1.00  0.00     0.000 HD 
HETATM    8  C   UNL     1     -12.423  14.013  69.928  1.00  0.00    -0.246 C  
ENDROOT
BRANCH   8   9
HETATM    9  C   UNL     1     -11.761  13.800  68.525  1.00  0.00    -0.356 C  
BRANCH   9  10
HETATM   10  O   UNL     1     -10.427  14.261  68.330  1.00  0.00    -0.235 OA 
BRANCH  10  11
HETATM   11  C   UNL     1     -10.292  15.327  67.469  1.00  0.00    -0.244 C  
HETATM   12  C   UNL     1      -9.042  16.177  67.893  1.00  0.00    -0.192 C  
HETATM   13  O   UNL     1     -11.031  15.547  66.516  1.00  0.00    -0.312 OA 
HETATM   14  C   UNL     1      -9.349  17.674  67.653  1.00  0.00    -0.246 A  
HETATM   15  O   UNL     1      -8.820  16.032  69.303  1.00  0.00    -0.248 OA 
HETATM   16  C   UNL     1      -7.787  15.613  67.115  1.00  0.00    -0.253 C  
HETATM   17  C   UNL     1      -6.469  16.388  67.327  1.00  0.00    -0.222 C  
HETATM   18  C   UNL     1      -9.885  18.473  68.686  1.00  0.00    -0.419 A  
HETATM   19  H   UNL     1      -8.063  16.546  69.560  1.00  0.00     0.000 HD 
HETATM   20  C   UNL     1      -5.818  16.140  68.686  1.00  0.00    -0.105 C  
HETATM   21  C   UNL     1     -10.182  19.828  68.492  1.00  0.00    -0.547 A  
HETATM   22  C   UNL     1      -9.956  20.418  67.253  1.00  0.00    -0.564 A  
HETATM   23  C   UNL     1      -5.565  14.658  68.943  1.00  0.00    -0.087 C  
HETATM   24  C   UNL     1      -6.795  13.799  68.700  1.00  0.00    -0.102 C  
HETATM   25  C   UNL     1      -9.453  19.649  66.209  1.00  0.00    -0.474 A  
HETATM   26  C   UNL     1      -9.164  18.291  66.402  1.00  0.00    -0.272 A  
HETATM   27  C   UNL     1      -7.466  14.120  67.371  1.00  0.00    -0.155 C  
ENDBRANCH  10  11
ENDBRANCH   9  10
ENDBRANCH   8   9
TORSDOF 3
ENDMDL
MODEL        8
REMARK 921   NORMALIZED FREE ENERGY PREDICTED BY IDOCK:   -6.97 KCAL/MOL
REMARK 922        TOTAL FREE ENERGY PREDICTED BY IDOCK:   -8.64 KCAL/MOL
REMARK 923 INTER-LIGAND FREE ENERGY PREDICTED BY IDOCK:   -8.12 KCAL/MOL
REMARK 924 INTRA-LIGAND FREE ENERGY PREDICTED BY IDOCK:   -0.53 KCAL/MOL
REMARK 927      BINDING AFFINITY PREDICTED BY RF-SCORE:    0.00 PKD
ROOT
HETATM    1  C   UNL     1     -10.336  12.316  63.922  1.00  0.00    -0.429 C  
HETATM    2  N   UNL     1     -10.553  11.621  65.181  1.00  0.00    -0.280 NA 
HETATM    3  C   UNL     1      -9.886  10.339  65.305  1.00  0.00    -0.306 C  
HETATM    4  C   UNL     1     -10.082   9.635  66.629  1.00  0.00    -0.307 C  
HETATM    5  C   UNL     1     -11.057  10.236  67.616  1.00  0.00    -0.251 C  
HETATM    6  N   UNL     1     -11.687  11.485  67.243  1.00  0.00    -0.603 NA 
HETATM    7  H   UNL     1     -12.362  11.904  67.883  1.00  0.00     0.000 HD 
HETATM    8  C   UNL     1     -11.430  12.085  66.141  1.00  0.00    -0.339 C  
ENDROOT
BRANCH   8   9
HETATM    9  C   UNL     1     -12.202  13.421  65.879  1.00  0.00    -0.450 C  
BRANCH   9  10
HETATM   10  O   UNL     1     -12.232  14.400  66.914  1.00  0.00    -0.415 OA 
BRANCH  10  11
HETATM   11  C   UNL     1     -11.041  15.053  67.141  1.00  0.00    -0.332 C  
HETATM   12  C   UNL     1     -11.166  15.911  68.450  1.00  0.00    -0.368 C  
HETATM   13  O   UNL     1     -10.047  14.949  66.432  1.00  0.00    -0.264 OA 
HETATM   14  C   UNL     1     -10.372  17.226  68.263  1.00  0.00    -0.361 A  
HETATM   15  O   UNL     1     -12.536  16.291  68.645  1.00  0.00     0.014 OA 
HETATM   16  C   UNL     1     -10.705  15.012  69.665  1.00  0.00    -0.270 C  
HETATM   17  C   UNL     1     -10.663  15.717  71.037  1.00  0.00    -0.027 C  
HETATM   18  C   UNL     1     -11.010  18.390  67.781  1.00  0.00    -0.131 A  
HETATM   19  H   UNL     1     -12.612  16.811  69.437  1.00  0.00     0.000 HD 
HETATM   20  C   UNL     1     -12.041  15.952  71.652  1.00  0.00    -0.554 C  
HETATM   21  C   UNL     1     -10.313  19.590  67.594  1.00  0.00    -0.574 A  
HETATM   22  C   UNL     1      -8.953  19.654  67.878  1.00  0.00    -0.385 A  
HETATM   23  C   UNL     1     -12.843  14.662  71.785  1.00  0.00    -0.402 C  
HETATM   24  C   UNL     1     -12.890  13.861  70.494  1.00  0.00    -0.250 C  
HETATM   25  C   UNL     1      -8.292  18.517  68.331  1.00  0.00    -0.355 A  
HETATM   26  C   UNL     1      -8.990  17.314  68.510  1.00  0.00    -0.273 A  
HETATM   27  C   UNL     1     -11.512  13.706  69.865  1.00  0.00    -0.206 C  
ENDBRANCH  10  11
ENDBRANCH   9  10
ENDBRANCH   8   9
TORSDOF 3
ENDMDL
MODEL        9
REMARK 921   NORMALIZED FREE ENERGY PREDICTED BY IDOCK:   -6.95 KCAL/MOL
REMARK 922        TOTAL FREE ENERGY PREDICTED BY IDOCK:   -8.62 KCAL/MOL
REMARK 923 INTER-LIGAND FREE ENERGY PREDICTED BY IDOCK:   -8.12 KCAL/MOL
REMARK 924 INTRA-LIGAND FREE ENERGY PREDICTED BY IDOCK:   -0.51 KCAL/MOL
REMARK 927      BINDING AFFINITY PREDICTED BY RF-SCORE:    0.00 PKD
ROOT
HETATM    1  C   UNL     1     -13.784  12.875  72.213  1.00  0.00    -0.458 C  
HETATM    2  N   UNL     1     -12.978  11.905  71.490  1.00  0.00    -0.387 NA 
HETATM    3  C   UNL     1     -13.100  10.533  71.944  1.00  0.00    -0.462 C  
HETATM    4  C   UNL     1     -12.290   9.520  71.166  1.00  0.00    -0.410 C  
HETATM    5  C   UNL     1     -11.330  10.033  70.118  1.00  0.00    -0.291 C  
HETATM    6  N   UNL     1     -11.304  11.462  69.890  1.00  0.00    -0.443 NA 
HETATM    7  H   UNL     1     -10.653  11.837  69.200  1.00  0.00     0.000 HD 
HETATM    8  C   UNL     1     -12.067  12.275  70.521  1.00  0.00    -0.282 C  
ENDROOT
BRANCH   8   9
HETATM    9  C   UNL     1     -11.910  13.793  70.170  1.00  0.00    -0.290 C  
BRANCH   9  10
HETATM   10  O   UNL     1     -10.856  14.178  69.292  1.00  0.00    -0.244 OA 
BRANCH  10  11
HETATM   11  C   UNL     1     -10.993  15.422  68.717  1.00  0.00    -0.264 C  
HETATM   12  C   UNL     1     -10.419  15.380  67.256  1.00  0.00    -0.282 C  
HETATM   13  O   UNL     1     -11.504  16.389  69.270  1.00  0.00    -0.275 OA 
HETATM   14  C   UNL     1      -9.731  16.731  66.951  1.00  0.00    -0.263 A  
HETATM   15  O   UNL     1      -9.397  14.377  67.171  1.00  0.00    -0.203 OA 
HETATM   16  C   UNL     1     -11.602  14.991  66.283  1.00  0.00    -0.160 C  
HETATM   17  C   UNL     1     -11.256  14.995  64.779  1.00  0.00    -0.393 C  
HETATM   18  C   UNL     1      -8.348  16.902  67.182  1.00  0.00    -0.217 A  
HETATM   19  H   UNL     1      -9.050  14.352  66.287  1.00  0.00     0.000 HD 
HETATM   20  C   UNL     1     -10.414  13.801  64.335  1.00  0.00    -0.265 C  
HETATM   21  C   UNL     1      -7.702  18.117  66.923  1.00  0.00    -0.244 A  
HETATM   22  C   UNL     1      -8.426  19.198  66.432  1.00  0.00    -0.325 A  
HETATM   23  C   UNL     1     -11.070  12.470  64.686  1.00  0.00    -0.343 C  
HETATM   24  C   UNL     1     -11.506  12.392  66.140  1.00  0.00    -0.430 C  
HETATM   25  C   UNL     1      -9.794  19.067  66.218  1.00  0.00    -0.417 A  
HETATM   26  C   UNL     1     -10.442  17.853  66.486  1.00  0.00    -0.315 A  
HETATM   27  C   UNL     1     -12.279  13.630  66.575  1.00  0.00    -0.454 C  
ENDBRANCH  10  11
ENDBRANCH   9  10
ENDBRANCH   8   9
TORSDOF 3
ENDMDL
MODEL       10
REMARK 921   NORMALIZED FREE ENERGY PREDICTED BY IDOCK:   -6.93 KCAL/MOL
REMARK 922        TOTAL FREE ENERGY PREDICTED BY IDOCK:   -8.60 KCAL/MOL
REMARK 923 INTER-LIGAND FREE ENERGY PREDICTED BY IDOCK:   -8.15 KCAL/MOL
REMARK 924 INTRA-LIGAND FREE ENERGY PREDICTED BY IDOCK:   -0.45 KCAL/MOL
REMARK 927      BINDING AFFINITY PREDICTED BY RF-SCORE:    0.00 PKD
ROOT
HETATM    1  C   UNL     1     -13.647   9.358  71.717  1.00  0.00    -0.388 C  
HETATM    2  N   UNL     1     -12.203   9.235  71.597  1.00  0.00    -0.346 NA 
HETATM    3  C   UNL     1     -11.586   8.270  72.486  1.00  0.00    -0.385 C  
HETATM    4  C   UNL     1     -10.089   8.116  72.335  1.00  0.00    -0.355 C  
HETATM    5  C   UNL     1      -9.367   9.069  71.409  1.00  0.00    -0.240 C  
HETATM    6  N   UNL     1     -10.178  10.023  70.682  1.00  0.00    -0.375 NA 
HETATM    7  H   UNL     1      -9.715  10.688  70.063  1.00  0.00     0.000 HD 
HETATM    8  C   UNL     1     -11.454  10.063  70.785  1.00  0.00    -0.356 C  
ENDROOT
BRANCH   8   9
HETATM    9  C   UNL     1     -12.187  11.161  69.943  1.00  0.00    -0.314 C  
BRANCH   9  10
HETATM   10  O   UNL     1     -11.427  12.271  69.472  1.00  0.00    -0.272 OA 
BRANCH  10  11
HETATM   11  C   UNL     1     -10.836  12.100  68.241  1.00  0.00    -0.223 C  
HETATM   12  C   UNL     1     -11.012  13.413  67.398  1.00  0.00    -0.272 C  
HETATM   13  O   UNL     1     -10.250  11.083  67.887  1.00  0.00    -0.175 OA 
HETATM   14  C   UNL     1     -11.231  13.030  65.916  1.00  0.00    -0.315 A  
HETATM   15  O   UNL     1     -12.201  14.096  67.818  1.00  0.00    -0.548 OA 
HETATM   16  C   UNL     1      -9.762  14.339  67.677  1.00  0.00    -0.220 C  
HETATM   17  C   UNL     1      -9.705  15.645  66.857  1.00  0.00    -0.240 C  
HETATM   18  C   UNL     1     -12.536  12.865  65.400  1.00  0.00    -0.511 A  
HETATM   19  H   UNL     1     -12.309  14.891  67.309  1.00  0.00     0.000 HD 
HETATM   20  C   UNL     1     -10.684  16.716  67.331  1.00  0.00    -0.253 C  
HETATM   21  C   UNL     1     -12.761  12.509  64.065  1.00  0.00    -0.416 A  
HETATM   22  C   UNL     1     -11.685  12.301  63.210  1.00  0.00    -0.451 A  
HETATM   23  C   UNL     1     -10.502  17.054  68.807  1.00  0.00    -0.347 C  
HETATM   24  C   UNL     1     -10.483  15.821  69.695  1.00  0.00    -0.289 C  
HETATM   25  C   UNL     1     -10.388  12.431  63.695  1.00  0.00    -0.434 A  
HETATM   26  C   UNL     1     -10.163  12.780  65.035  1.00  0.00    -0.292 A  
HETATM   27  C   UNL     1      -9.554  14.740  69.158  1.00  0.00    -0.133 C  
ENDBRANCH  10  11
ENDBRANCH   9  10
ENDBRANCH   8   9
TORSDOF 3
ENDMDL
MODEL       11
REMARK 921   NORMALIZED FREE ENERGY PREDICTED BY IDOCK:   -6.89 KCAL/MOL
REMARK 922        TOTAL FREE ENERGY PREDICTED BY IDOCK:   -8.55 KCAL/MOL
REMARK 923 INTER-LIGAND FREE ENERGY PREDICTED BY IDOCK:   -8.93 KCAL/MOL
REMARK 924 INTRA-LIGAND FREE ENERGY PREDICTED BY IDOCK:    0.38 KCAL/MOL
REMARK 927      BINDING AFFINITY PREDICTED BY RF-SCORE:    0.00 PKD
ROOT
HETATM    1  C   UNL     1     -13.694  15.186  72.437  1.00  0.00    -0.496 C  
HETATM    2  N   UNL     1     -13.179  13.967  71.835  1.00  0.00    -0.369 NA 
HETATM    3  C   UNL     1     -13.663  12.732  72.422  1.00  0.00    -0.360 C  
HETATM    4  C   UNL     1     -13.156  11.465  71.770  1.00  0.00    -0.523 C  
HETATM    5  C   UNL     1     -12.096  11.591  70.700  1.00  0.00    -0.353 C  
HETATM    6  N   UNL     1     -11.689  12.931  70.331  1.00  0.00    -0.546 NA 
HETATM    7  H   UNL     1     -10.963  13.045  69.624  1.00  0.00     0.000 HD 
HETATM    8  C   UNL     1     -12.204  13.978  70.858  1.00  0.00    -0.362 C  
ENDROOT
BRANCH   8   9
HETATM    9  C   UNL     1     -11.648  15.355  70.360  1.00  0.00    -0.324 C  
BRANCH   9  10
HETATM   10  O   UNL     1     -10.271  15.438  70.003  1.00  0.00    -0.296 OA 
BRANCH  10  11
HETATM   11  C   UNL     1      -9.938  14.855  68.802  1.00  0.00    -0.228 C  
HETATM   12  C   UNL     1     -10.452  15.762  67.628  1.00  0.00    -0.282 C  
HETATM   13  O   UNL     1      -9.318  13.803  68.689  1.00  0.00    -0.176 OA 
HETATM   14  C   UNL     1     -10.931  14.857  66.469  1.00  0.00    -0.327 A  
HETATM   15  O   UNL     1     -11.601  16.502  68.063  1.00  0.00    -0.115 OA 
HETATM   16  C   UNL     1      -9.298  16.777  67.259  1.00  0.00    -0.234 C  
HETATM   17  C   UNL     1      -9.580  17.695  66.051  1.00  0.00    -0.123 C  
HETATM   18  C   UNL     1     -12.284  14.462  66.376  1.00  0.00    -0.363 A  
HETATM   19  H   UNL     1     -11.913  17.052  67.354  1.00  0.00     0.000 HD 
HETATM   20  C   UNL     1     -10.564  18.824  66.350  1.00  0.00    -0.429 C  
HETATM   21  C   UNL     1     -12.741  13.635  65.342  1.00  0.00    -0.500 A  
HETATM   22  C   UNL     1     -11.853  13.174  64.377  1.00  0.00    -0.441 A  
HETATM   23  C   UNL     1     -10.116  19.683  67.528  1.00  0.00    -0.538 C  
HETATM   24  C   UNL     1      -9.754  18.860  68.754  1.00  0.00    -0.454 C  
HETATM   25  C   UNL     1     -10.510  13.525  64.457  1.00  0.00    -0.426 A  
HETATM   26  C   UNL     1     -10.051  14.347  65.497  1.00  0.00    -0.382 A  
HETATM   27  C   UNL     1      -8.832  17.697  68.413  1.00  0.00    -0.281 C  
ENDBRANCH  10  11
ENDBRANCH   9  10
ENDBRANCH   8   9
TORSDOF 3
ENDMDL
MODEL       12
REMARK 921   NORMALIZED FREE ENERGY PREDICTED BY IDOCK:   -6.88 KCAL/MOL
REMARK 922        TOTAL FREE ENERGY PREDICTED BY IDOCK:   -8.54 KCAL/MOL
REMARK 923 INTER-LIGAND FREE ENERGY PREDICTED BY IDOCK:   -8.12 KCAL/MOL
REMARK 924 INTRA-LIGAND FREE ENERGY PREDICTED BY IDOCK:   -0.42 KCAL/MOL
REMARK 927      BINDING AFFINITY PREDICTED BY RF-SCORE:    0.00 PKD
ROOT
HETATM    1  C   UNL     1      -9.667  19.902  66.438  1.00  0.00    -0.447 C  
HETATM    2  N   UNL     1      -8.498  19.929  67.302  1.00  0.00    -0.312 NA 
HETATM    3  C   UNL     1      -7.409  20.773  66.849  1.00  0.00    -0.252 C  
HETATM    4  C   UNL     1      -6.209  20.830  67.768  1.00  0.00    -0.357 C  
HETATM    5  C   UNL     1      -6.186  19.905  68.963  1.00  0.00    -0.298 C  
HETATM    6  N   UNL     1      -7.352  19.073  69.176  1.00  0.00    -0.298 NA 
HETATM    7  H   UNL     1      -7.355  18.427  69.965  1.00  0.00     0.000 HD 
HETATM    8  C   UNL     1      -8.379  19.116  68.412  1.00  0.00    -0.349 C  
ENDROOT
BRANCH   8   9
HETATM    9  C   UNL     1      -9.554  18.145  68.768  1.00  0.00    -0.291 C  
BRANCH   9  10
HETATM   10  O   UNL     1      -9.594  16.871  68.131  1.00  0.00    -0.243 OA 
BRANCH  10  11
HETATM   11  C   UNL     1      -9.891  15.809  68.956  1.00  0.00    -0.240 C  
HETATM   12  C   UNL     1     -11.190  15.098  68.432  1.00  0.00    -0.299 C  
HETATM   13  O   UNL     1      -9.222  15.477  69.927  1.00  0.00    -0.216 OA 
HETATM   14  C   UNL     1     -12.018  14.613  69.645  1.00  0.00    -0.368 A  
HETATM   15  O   UNL     1     -12.010  16.049  67.738  1.00  0.00     0.001 OA 
HETATM   16  C   UNL     1     -10.748  13.966  67.421  1.00  0.00    -0.275 C  
HETATM   17  C   UNL     1     -11.888  13.084  66.870  1.00  0.00    -0.442 C  
HETATM   18  C   UNL     1     -13.031  15.428  70.197  1.00  0.00    -0.104 A  
HETATM   19  H   UNL     1     -12.796  15.619  67.421  1.00  0.00     0.000 HD 
HETATM   20  C   UNL     1     -12.751  13.775  65.817  1.00  0.00    -0.494 C  
HETATM   21  C   UNL     1     -13.788  15.017  71.301  1.00  0.00    -0.528 A  
HETATM   22  C   UNL     1     -13.546  13.780  71.888  1.00  0.00    -0.514 A  
HETATM   23  C   UNL     1     -11.925  14.301  64.648  1.00  0.00    -0.468 C  
HETATM   24  C   UNL     1     -10.736  15.135  65.094  1.00  0.00    -0.442 C  
HETATM   25  C   UNL     1     -12.537  12.966  71.382  1.00  0.00    -0.319 A  
HETATM   26  C   UNL     1     -11.774  13.382  70.282  1.00  0.00    -0.231 A  
HETATM   27  C   UNL     1      -9.936  14.453  66.196  1.00  0.00    -0.328 C  
ENDBRANCH  10  11
ENDBRANCH   9  10
ENDBRANCH   8   9
TORSDOF 3
ENDMDL
MODEL       13
REMARK 921   NORMALIZED FREE ENERGY PREDICTED BY IDOCK:   -6.86 KCAL/MOL
REMARK 922        TOTAL FREE ENERGY PREDICTED BY IDOCK:   -8.51 KCAL/MOL
REMARK 923 INTER-LIGAND FREE ENERGY PREDICTED BY IDOCK:   -7.97 KCAL/MOL
REMARK 924 INTRA-LIGAND FREE ENERGY PREDICTED BY IDOCK:   -0.54 KCAL/MOL
REMARK 927      BINDING AFFINITY PREDICTED BY RF-SCORE:    0.00 PKD
ROOT
HETATM    1  C   UNL     1      -8.656  10.739  65.239  1.00  0.00    -0.148 C  
HETATM    2  N   UNL     1      -9.979  11.314  65.051  1.00  0.00    -0.258 NA 
HETATM    3  C   UNL     1     -10.362  11.554  63.673  1.00  0.00    -0.417 C  
HETATM    4  C   UNL     1     -11.752  12.117  63.478  1.00  0.00    -0.579 C  
HETATM    5  C   UNL     1     -12.534  12.519  64.706  1.00  0.00    -0.457 C  
HETATM    6  N   UNL     1     -11.916  12.274  65.992  1.00  0.00    -0.609 NA 
HETATM    7  H   UNL     1     -12.415  12.551  66.837  1.00  0.00     0.000 HD 
HETATM    8  C   UNL     1     -10.766  11.721  66.110  1.00  0.00    -0.277 C  
ENDROOT
BRANCH   8   9
HETATM    9  C   UNL     1     -10.228  11.536  67.568  1.00  0.00    -0.184 C  
BRANCH   9  10
HETATM   10  O   UNL     1     -10.063  12.695  68.380  1.00  0.00    -0.228 OA 
BRANCH  10  11
HETATM   11  C   UNL     1     -11.223  13.218  68.904  1.00  0.00    -0.277 C  
HETATM   12  C   UNL     1     -10.982  14.720  69.292  1.00  0.00    -0.261 C  
HETATM   13  O   UNL     1     -12.273  12.596  69.021  1.00  0.00    -0.185 OA 
HETATM   14  C   UNL     1     -11.775  15.036  70.582  1.00  0.00    -0.357 A  
HETATM   15  O   UNL     1      -9.598  14.917  69.610  1.00  0.00    -0.422 OA 
HETATM   16  C   UNL     1     -11.353  15.609  68.038  1.00  0.00    -0.324 C  
HETATM   17  C   UNL     1     -11.275  17.135  68.258  1.00  0.00     0.028 C  
HETATM   18  C   UNL     1     -11.166  14.909  71.850  1.00  0.00     0.025 A  
HETATM   19  H   UNL     1      -9.452  15.826  69.845  1.00  0.00     0.000 HD 
HETATM   20  C   UNL     1      -9.849  17.680  68.303  1.00  0.00    -0.324 C  
HETATM   21  C   UNL     1     -11.863  15.180  73.034  1.00  0.00    -0.444 A  
HETATM   22  C   UNL     1     -13.194  15.579  72.980  1.00  0.00    -0.648 A  
HETATM   23  C   UNL     1      -9.053  17.320  67.053  1.00  0.00    -0.247 C  
HETATM   24  C   UNL     1      -9.120  15.840  66.717  1.00  0.00    -0.276 C  
HETATM   25  C   UNL     1     -13.829  15.688  71.747  1.00  0.00    -0.471 A  
HETATM   26  C   UNL     1     -13.132  15.409  70.562  1.00  0.00    -0.318 A  
HETATM   27  C   UNL     1     -10.546  15.307  66.752  1.00  0.00    -0.304 C  
ENDBRANCH  10  11
ENDBRANCH   9  10
ENDBRANCH   8   9
TORSDOF 3
ENDMDL
MODEL       14
REMARK 921   NORMALIZED FREE ENERGY PREDICTED BY IDOCK:   -6.83 KCAL/MOL
REMARK 922        TOTAL FREE ENERGY PREDICTED BY IDOCK:   -8.48 KCAL/MOL
REMARK 923 INTER-LIGAND FREE ENERGY PREDICTED BY IDOCK:   -8.23 KCAL/MOL
REMARK 924 INTRA-LIGAND FREE ENERGY PREDICTED BY IDOCK:   -0.24 KCAL/MOL
REMARK 927      BINDING AFFINITY PREDICTED BY RF-SCORE:    0.00 PKD
ROOT
HETATM    1  C   UNL     1     -13.102  11.342  71.721  1.00  0.00    -0.418 C  
HETATM    2  N   UNL     1     -12.996  12.780  71.527  1.00  0.00    -0.350 NA 
HETATM    3  C   UNL     1     -13.828  13.587  72.397  1.00  0.00    -0.586 C  
HETATM    4  C   UNL     1     -13.688  15.083  72.220  1.00  0.00    -0.574 C  
HETATM    5  C   UNL     1     -12.838  15.586  71.077  1.00  0.00    -0.482 C  
HETATM    6  N   UNL     1     -12.163  14.591  70.269  1.00  0.00    -0.310 NA 
HETATM    7  H   UNL     1     -11.597  14.903  69.480  1.00  0.00     0.000 HD 
HETATM    8  C   UNL     1     -12.251  13.336  70.506  1.00  0.00    -0.340 C  
ENDROOT
BRANCH   8   9
HETATM    9  C   UNL     1     -11.472  12.387  69.534  1.00  0.00    -0.240 C  
BRANCH   9  10
HETATM   10  O   UNL     1     -10.810  12.964  68.412  1.00  0.00    -0.236 OA 
BRANCH  10  11
HETATM   11  C   UNL     1      -9.791  12.210  67.877  1.00  0.00    -0.199 C  
HETATM   12  C   UNL     1     -10.283  11.553  66.539  1.00  0.00    -0.218 C  
HETATM   13  O   UNL     1      -8.675  12.101  68.373  1.00  0.00    -0.176 OA 
HETATM   14  C   UNL     1      -9.664  10.140  66.419  1.00  0.00    -0.259 A  
HETATM   15  O   UNL     1     -11.705  11.367  66.591  1.00  0.00    -0.434 OA 
HETATM   16  C   UNL     1      -9.938  12.543  65.357  1.00  0.00    -0.236 C  
HETATM   17  C   UNL     1     -10.259  12.025  63.939  1.00  0.00    -0.424 C  
HETATM   18  C   UNL     1     -10.358   9.007  66.897  1.00  0.00    -0.324 A  
HETATM   19  H   UNL     1     -12.003  10.969  65.782  1.00  0.00     0.000 HD 
HETATM   20  C   UNL     1     -11.748  12.037  63.599  1.00  0.00    -0.587 C  
HETATM   21  C   UNL     1      -9.816   7.719  66.809  1.00  0.00    -0.312 A  
HETATM   22  C   UNL     1      -8.558   7.531  66.245  1.00  0.00    -0.153 A  
HETATM   23  C   UNL     1     -12.368  13.420  63.771  1.00  0.00    -0.418 C  
HETATM   24  C   UNL     1     -12.054  14.043  65.121  1.00  0.00    -0.418 C  
HETATM   25  C   UNL     1      -7.840   8.631  65.789  1.00  0.00    -0.100 A  
HETATM   26  C   UNL     1      -8.380   9.922  65.885  1.00  0.00    -0.126 A  
HETATM   27  C   UNL     1     -10.574  13.950  65.466  1.00  0.00    -0.318 C  
ENDBRANCH  10  11
ENDBRANCH   9  10
ENDBRANCH   8   9
TORSDOF 3
ENDMDL
MODEL       15
REMARK 921   NORMALIZED FREE ENERGY PREDICTED BY IDOCK:   -6.72 KCAL/MOL
REMARK 922        TOTAL FREE ENERGY PREDICTED BY IDOCK:   -8.35 KCAL/MOL
REMARK 923 INTER-LIGAND FREE ENERGY PREDICTED BY IDOCK:   -7.87 KCAL/MOL
REMARK 924 INTRA-LIGAND FREE ENERGY PREDICTED BY IDOCK:   -0.48 KCAL/MOL
REMARK 927      BINDING AFFINITY PREDICTED BY RF-SCORE:    0.00 PKD
ROOT
HETATM    1  C   UNL     1     -13.108  11.209  71.763  1.00  0.00    -0.431 C  
HETATM    2  N   UNL     1     -12.837   9.829  71.394  1.00  0.00    -0.365 NA 
HETATM    3  C   UNL     1     -13.720   8.843  71.986  1.00  0.00    -0.459 C  
HETATM    4  C   UNL     1     -13.460   7.412  71.571  1.00  0.00    -0.445 C  
HETATM    5  C   UNL     1     -12.239   7.127  70.728  1.00  0.00    -0.264 C  
HETATM    6  N   UNL     1     -11.438   8.263  70.322  1.00  0.00    -0.459 NA 
HETATM    7  H   UNL     1     -10.599   8.097  69.767  1.00  0.00     0.000 HD 
HETATM    8  C   UNL     1     -11.742   9.467  70.634  1.00  0.00    -0.262 C  
ENDROOT
BRANCH   8   9
HETATM    9  C   UNL     1     -10.768  10.585  70.131  1.00  0.00    -0.171 C  
BRANCH   9  10
HETATM   10  O   UNL     1     -10.257  10.488  68.804  1.00  0.00    -0.172 OA 
BRANCH  10  11
HETATM   11  C   UNL     1     -11.023  11.092  67.832  1.00  0.00    -0.264 C  
HETATM   12  C   UNL     1     -10.138  11.342  66.560  1.00  0.00    -0.217 C  
HETATM   13  O   UNL     1     -12.212  11.362  67.955  1.00  0.00    -0.607 OA 
HETATM   14  C   UNL     1     -10.560  12.682  65.913  1.00  0.00    -0.297 A  
HETATM   15  O   UNL     1      -8.767  11.498  66.953  1.00  0.00    -0.167 OA 
HETATM   16  C   UNL     1     -10.263  10.073  65.626  1.00  0.00    -0.258 C  
HETATM   17  C   UNL     1      -9.535  10.171  64.268  1.00  0.00    -0.366 C  
HETATM   18  C   UNL     1      -9.904  13.885  66.254  1.00  0.00    -0.318 A  
HETATM   19  H   UNL     1      -8.231  11.650  66.183  1.00  0.00     0.000 HD 
HETATM   20  C   UNL     1      -8.019  10.027  64.368  1.00  0.00    -0.152 C  
HETATM   21  C   UNL     1     -10.273  15.112  65.690  1.00  0.00    -0.387 A  
HETATM   22  C   UNL     1     -11.316  15.170  64.773  1.00  0.00    -0.399 A  
HETATM   23  C   UNL     1      -7.605   8.730  65.055  1.00  0.00    -0.100 C  
HETATM   24  C   UNL     1      -8.319   8.512  66.379  1.00  0.00    -0.115 C  
HETATM   25  C   UNL     1     -11.998  14.005  64.436  1.00  0.00    -0.480 A  
HETATM   26  C   UNL     1     -11.634  12.777  65.008  1.00  0.00    -0.372 A  
HETATM   27  C   UNL     1      -9.821   8.735  66.266  1.00  0.00    -0.342 C  
ENDBRANCH  10  11
ENDBRANCH   9  10
ENDBRANCH   8   9
TORSDOF 3
ENDMDL
MODEL       16
REMARK 921   NORMALIZED FREE ENERGY PREDICTED BY IDOCK:   -6.65 KCAL/MOL
REMARK 922        TOTAL FREE ENERGY PREDICTED BY IDOCK:   -8.26 KCAL/MOL
REMARK 923 INTER-LIGAND FREE ENERGY PREDICTED BY IDOCK:   -7.89 KCAL/MOL
REMARK 924 INTRA-LIGAND FREE ENERGY PREDICTED BY IDOCK:   -0.37 KCAL/MOL
REMARK 927      BINDING AFFINITY PREDICTED BY RF-SCORE:    0.00 PKD
ROOT
HETATM    1  C   UNL     1      -9.767  20.828  67.379  1.00  0.00    -0.332 C  
HETATM    2  N   UNL     1      -8.816  19.818  66.943  1.00  0.00    -0.319 NA 
HETATM    3  C   UNL     1      -7.458  20.288  66.744  1.00  0.00    -0.288 C  
HETATM    4  C   UNL     1      -6.463  19.228  66.327  1.00  0.00    -0.208 C  
HETATM    5  C   UNL     1      -6.987  17.847  66.007  1.00  0.00    -0.311 C  
HETATM    6  N   UNL     1      -8.406  17.622  66.188  1.00  0.00    -0.487 NA 
HETATM    7  H   UNL     1      -8.789  16.705  65.963  1.00  0.00     0.000 HD 
HETATM    8  C   UNL     1      -9.199  18.531  66.619  1.00  0.00    -0.306 C  
ENDROOT
BRANCH   8   9
HETATM    9  C   UNL     1     -10.708  18.136  66.748  1.00  0.00    -0.194 C  
BRANCH   9  10
HETATM   10  O   UNL     1     -11.026  16.815  67.179  1.00  0.00    -0.168 OA 
BRANCH  10  11
HETATM   11  C   UNL     1     -10.826  16.568  68.518  1.00  0.00    -0.349 C  
HETATM   12  C   UNL     1     -11.369  15.136  68.864  1.00  0.00    -0.301 C  
HETATM   13  O   UNL     1     -10.288  17.349  69.295  1.00  0.00    -0.334 OA 
HETATM   14  C   UNL     1     -11.995  15.167  70.279  1.00  0.00    -0.361 A  
HETATM   15  O   UNL     1     -12.429  14.794  67.961  1.00  0.00    -0.571 OA 
HETATM   16  C   UNL     1     -10.182  14.110  68.675  1.00  0.00    -0.238 C  
HETATM   17  C   UNL     1     -10.495  12.650  69.066  1.00  0.00    -0.026 C  
HETATM   18  C   UNL     1     -13.374  15.418  70.450  1.00  0.00    -0.038 A  
HETATM   19  H   UNL     1     -12.758  13.927  68.170  1.00  0.00     0.000 HD 
HETATM   20  C   UNL     1     -11.375  11.915  68.057  1.00  0.00    -0.352 C  
HETATM   21  C   UNL     1     -13.964  15.461  71.719  1.00  0.00    -0.626 A  
HETATM   22  C   UNL     1     -13.186  15.261  72.854  1.00  0.00    -0.610 A  
HETATM   23  C   UNL     1     -10.782  11.933  66.652  1.00  0.00    -0.291 C  
HETATM   24  C   UNL     1     -10.382  13.327  66.199  1.00  0.00    -0.290 C  
HETATM   25  C   UNL     1     -11.820  15.036  72.718  1.00  0.00    -0.391 A  
HETATM   26  C   UNL     1     -11.228  15.002  71.447  1.00  0.00    -0.260 A  
HETATM   27  C   UNL     1      -9.568  14.063  67.255  1.00  0.00    -0.238 C  
ENDBRANCH  10  11
ENDBRANCH   9  10
ENDBRANCH   8   9
TORSDOF 3
ENDMDL
MODEL       17
REMARK 921   NORMALIZED FREE ENERGY PREDICTED BY IDOCK:   -6.64 KCAL/MOL
REMARK 922        TOTAL FREE ENERGY PREDICTED BY IDOCK:   -8.26 KCAL/MOL
REMARK 923 INTER-LIGAND FREE ENERGY PREDICTED BY IDOCK:   -7.79 KCAL/MOL
REMARK 924 INTRA-LIGAND FREE ENERGY PREDICTED BY IDOCK:   -0.46 KCAL/MOL
REMARK 927      BINDING AFFINITY PREDICTED BY RF-SCORE:    0.00 PKD
ROOT
HETATM    1  C   UNL     1      -7.695  17.374  68.395  1.00  0.00    -0.258 C  
HETATM    2  N   UNL     1      -8.654  18.176  67.652  1.00  0.00    -0.249 NA 
HETATM    3  C   UNL     1      -8.928  19.488  68.205  1.00  0.00    -0.329 C  
HETATM    4  C   UNL     1      -9.897  20.335  67.410  1.00  0.00    -0.586 C  
HETATM    5  C   UNL     1     -10.595  19.697  66.231  1.00  0.00    -0.482 C  
HETATM    6  N   UNL     1     -10.234  18.332  65.909  1.00  0.00    -0.587 NA 
HETATM    7  H   UNL     1     -10.703  17.872  65.129  1.00  0.00     0.000 HD 
HETATM    8  C   UNL     1      -9.349  17.680  66.566  1.00  0.00    -0.272 C  
ENDROOT
BRANCH   8   9
HETATM    9  C   UNL     1      -9.080  16.209  66.103  1.00  0.00    -0.347 C  
BRANCH   9  10
HETATM   10  O   UNL     1      -9.845  15.164  66.695  1.00  0.00    -0.236 OA 
BRANCH  10  11
HETATM   11  C   UNL     1     -10.043  14.057  65.901  1.00  0.00    -0.321 C  
HETATM   12  C   UNL     1     -10.094  12.775  66.807  1.00  0.00    -0.236 C  
HETATM   13  O   UNL     1     -10.178  14.091  64.683  1.00  0.00    -0.420 OA 
HETATM   14  C   UNL     1      -9.420  11.604  66.054  1.00  0.00    -0.246 A  
HETATM   15  O   UNL     1      -9.314  12.995  67.991  1.00  0.00    -0.200 OA 
HETATM   16  C   UNL     1     -11.599  12.533  67.221  1.00  0.00    -0.434 C  
HETATM   17  C   UNL     1     -11.867  11.252  68.040  1.00  0.00    -0.244 C  
HETATM   18  C   UNL     1      -8.047  11.328  66.233  1.00  0.00    -0.108 A  
HETATM   19  H   UNL     1      -9.344  12.219  68.540  1.00  0.00     0.000 HD 
HETATM   20  C   UNL     1     -11.415  11.343  69.495  1.00  0.00    -0.381 C  
HETATM   21  C   UNL     1      -7.411  10.280  65.556  1.00  0.00    -0.149 A  
HETATM   22  C   UNL     1      -8.132   9.483  64.674  1.00  0.00    -0.136 A  
HETATM   23  C   UNL     1     -12.039  12.531  70.221  1.00  0.00    -0.373 C  
HETATM   24  C   UNL     1     -11.880  13.836  69.459  1.00  0.00    -0.394 C  
HETATM   25  C   UNL     1      -9.481   9.747  64.458  1.00  0.00    -0.269 A  
HETATM   26  C   UNL     1     -10.115  10.802  65.130  1.00  0.00    -0.363 A  
HETATM   27  C   UNL     1     -12.268  13.697  67.993  1.00  0.00    -0.175 C  
ENDBRANCH  10  11
ENDBRANCH   9  10
ENDBRANCH   8   9
TORSDOF 3
ENDMDL
MODEL       18
REMARK 921   NORMALIZED FREE ENERGY PREDICTED BY IDOCK:   -6.64 KCAL/MOL
REMARK 922        TOTAL FREE ENERGY PREDICTED BY IDOCK:   -8.25 KCAL/MOL
REMARK 923 INTER-LIGAND FREE ENERGY PREDICTED BY IDOCK:   -7.45 KCAL/MOL
REMARK 924 INTRA-LIGAND FREE ENERGY PREDICTED BY IDOCK:   -0.80 KCAL/MOL
REMARK 927      BINDING AFFINITY PREDICTED BY RF-SCORE:    0.00 PKD
ROOT
HETATM    1  C   UNL     1     -13.402  10.905  72.116  1.00  0.00    -0.189 C  
HETATM    2  N   UNL     1     -12.257  10.560  71.289  1.00  0.00    -0.370 NA 
HETATM    3  C   UNL     1     -11.680   9.253  71.541  1.00  0.00    -0.380 C  
HETATM    4  C   UNL     1     -10.513   8.881  70.654  1.00  0.00    -0.271 C  
HETATM    5  C   UNL     1      -9.966   9.935  69.720  1.00  0.00    -0.243 C  
HETATM    6  N   UNL     1     -10.645  11.213  69.697  1.00  0.00    -0.454 NA 
HETATM    7  H   UNL     1     -10.286  11.949  69.089  1.00  0.00     0.000 HD 
HETATM    8  C   UNL     1     -11.680  11.457  70.412  1.00  0.00    -0.268 C  
ENDROOT
BRANCH   8   9
HETATM    9  C   UNL     1     -12.294  12.892  70.285  1.00  0.00    -0.223 C  
BRANCH   9  10
HETATM   10  O   UNL     1     -12.390  13.473  68.987  1.00  0.00    -0.252 OA 
BRANCH  10  11
HETATM   11  C   UNL     1     -11.763  14.689  68.838  1.00  0.00    -0.309 C  
HETATM   12  C   UNL     1     -10.683  14.577  67.704  1.00  0.00    -0.254 C  
HETATM   13  O   UNL     1     -12.037  15.694  69.485  1.00  0.00    -0.360 OA 
HETATM   14  C   UNL     1      -9.461  15.443  68.092  1.00  0.00    -0.202 A  
HETATM   15  O   UNL     1     -10.211  13.225  67.624  1.00  0.00    -0.222 OA 
HETATM   16  C   UNL     1     -11.375  14.962  66.337  1.00  0.00    -0.308 C  
HETATM   17  C   UNL     1     -10.442  15.006  65.108  1.00  0.00    -0.438 C  
HETATM   18  C   UNL     1      -8.371  14.878  68.791  1.00  0.00    -0.170 A  
HETATM   19  H   UNL     1      -9.557  13.157  66.938  1.00  0.00     0.000 HD 
HETATM   20  C   UNL     1     -10.037  13.629  64.589  1.00  0.00    -0.228 C  
HETATM   21  C   UNL     1      -7.257  15.642  69.161  1.00  0.00    -0.178 A  
HETATM   22  C   UNL     1      -7.207  16.995  68.848  1.00  0.00    -0.239 A  
HETATM   23  C   UNL     1     -11.245  12.757  64.259  1.00  0.00    -0.409 C  
HETATM   24  C   UNL     1     -12.257  12.700  65.391  1.00  0.00    -0.517 C  
HETATM   25  C   UNL     1      -8.277  17.585  68.183  1.00  0.00    -0.251 A  
HETATM   26  C   UNL     1      -9.396  16.822  67.819  1.00  0.00    -0.233 A  
HETATM   27  C   UNL     1     -12.586  14.083  65.938  1.00  0.00    -0.484 C  
ENDBRANCH  10  11
ENDBRANCH   9  10
ENDBRANCH   8   9
TORSDOF 3
ENDMDL
MODEL       19
REMARK 921   NORMALIZED FREE ENERGY PREDICTED BY IDOCK:   -6.61 KCAL/MOL
REMARK 922        TOTAL FREE ENERGY PREDICTED BY IDOCK:   -8.21 KCAL/MOL
REMARK 923 INTER-LIGAND FREE ENERGY PREDICTED BY IDOCK:   -7.82 KCAL/MOL
REMARK 924 INTRA-LIGAND FREE ENERGY PREDICTED BY IDOCK:   -0.39 KCAL/MOL
REMARK 927      BINDING AFFINITY PREDICTED BY RF-SCORE:    0.00 PKD
ROOT
HETATM    1  C   UNL     1     -11.105  15.442  67.544  1.00  0.00    -0.315 C  
HETATM    2  N   UNL     1     -11.518  14.508  66.508  1.00  0.00    -0.354 NA 
HETATM    3  C   UNL     1     -11.626  15.068  65.175  1.00  0.00    -0.294 C  
HETATM    4  C   UNL     1     -12.019  14.087  64.092  1.00  0.00    -0.439 C  
HETATM    5  C   UNL     1     -12.409  12.688  64.509  1.00  0.00    -0.464 C  
HETATM    6  N   UNL     1     -12.315  12.369  65.919  1.00  0.00    -0.577 NA 
HETATM    7  H   UNL     1     -12.589  11.437  66.230  1.00  0.00     0.000 HD 
HETATM    8  C   UNL     1     -11.901  13.212  66.790  1.00  0.00    -0.385 C  
ENDROOT
BRANCH   8   9
HETATM    9  C   UNL     1     -11.869  12.719  68.276  1.00  0.00    -0.312 C  
BRANCH   9  10
HETATM   10  O   UNL     1     -12.073  11.333  68.532  1.00  0.00    -0.573 OA 
BRANCH  10  11
HETATM   11  C   UNL     1     -11.605  10.883  69.746  1.00  0.00    -0.322 C  
HETATM   12  C   UNL     1     -10.710   9.614  69.515  1.00  0.00    -0.232 C  
HETATM   13  O   UNL     1     -11.845  11.417  70.823  1.00  0.00    -0.309 OA 
HETATM   14  C   UNL     1     -10.932   8.626  70.686  1.00  0.00    -0.274 A  
HETATM   15  O   UNL     1     -11.140   8.934  68.328  1.00  0.00    -0.467 OA 
HETATM   16  C   UNL     1      -9.220  10.101  69.318  1.00  0.00    -0.220 C  
HETATM   17  C   UNL     1      -8.167   8.982  69.174  1.00  0.00    -0.121 C  
HETATM   18  C   UNL     1     -11.903   7.606  70.593  1.00  0.00    -0.169 A  
HETATM   19  H   UNL     1     -10.598   8.166  68.188  1.00  0.00     0.000 HD 
HETATM   20  C   UNL     1      -8.186   8.286  67.816  1.00  0.00    -0.127 C  
HETATM   21  C   UNL     1     -12.130   6.705  71.641  1.00  0.00    -0.404 A  
HETATM   22  C   UNL     1     -11.394   6.808  72.816  1.00  0.00    -0.227 A  
HETATM   23  C   UNL     1      -8.022   9.268  66.660  1.00  0.00    -0.108 C  
HETATM   24  C   UNL     1      -8.979  10.445  66.747  1.00  0.00    -0.153 C  
HETATM   25  C   UNL     1     -10.448   7.819  72.947  1.00  0.00    -0.412 A  
HETATM   26  C   UNL     1     -10.227   8.725  71.900  1.00  0.00    -0.415 A  
HETATM   27  C   UNL     1      -8.994  11.073  68.134  1.00  0.00    -0.152 C  
ENDBRANCH  10  11
ENDBRANCH   9  10
ENDBRANCH   8   9
TORSDOF 3
ENDMDL
MODEL       20
REMARK 921   NORMALIZED FREE ENERGY PREDICTED BY IDOCK:   -6.56 KCAL/MOL
REMARK 922        TOTAL FREE ENERGY PREDICTED BY IDOCK:   -8.16 KCAL/MOL
REMARK 923 INTER-LIGAND FREE ENERGY PREDICTED BY IDOCK:   -7.65 KCAL/MOL
REMARK 924 INTRA-LIGAND FREE ENERGY PREDICTED BY IDOCK:   -0.51 KCAL/MOL
REMARK 927      BINDING AFFINITY PREDICTED BY RF-SCORE:    0.00 PKD
ROOT
HETATM    1  C   UNL     1     -11.080   7.342  71.316  1.00  0.00    -0.246 C  
HETATM    2  N   UNL     1     -10.911   7.362  69.871  1.00  0.00    -0.245 NA 
HETATM    3  C   UNL     1     -11.147   6.098  69.201  1.00  0.00    -0.378 C  
HETATM    4  C   UNL     1     -11.009   6.129  67.695  1.00  0.00    -0.400 C  
HETATM    5  C   UNL     1     -10.495   7.398  67.055  1.00  0.00    -0.333 C  
HETATM    6  N   UNL     1     -10.233   8.519  67.933  1.00  0.00    -0.208 NA 
HETATM    7  H   UNL     1      -9.869   9.382  67.529  1.00  0.00     0.000 HD 
HETATM    8  C   UNL     1     -10.440   8.470  69.196  1.00  0.00    -0.205 C  
ENDROOT
BRANCH   8   9
HETATM    9  C   UNL     1     -10.095   9.762  70.010  1.00  0.00    -0.257 C  
BRANCH   9  10
HETATM   10  O   UNL     1     -10.294  11.027  69.385  1.00  0.00    -0.196 OA 
BRANCH  10  11
HETATM   11  C   UNL     1     -11.424  11.707  69.778  1.00  0.00    -0.264 C  
HETATM   12  C   UNL     1     -11.346  13.185  69.252  1.00  0.00    -0.253 C  
HETATM   13  O   UNL     1     -12.344  11.212  70.419  1.00  0.00    -0.320 OA 
HETATM   14  C   UNL     1     -11.970  14.126  70.309  1.00  0.00    -0.404 A  
HETATM   15  O   UNL     1      -9.972  13.576  69.124  1.00  0.00    -0.420 OA 
HETATM   16  C   UNL     1     -12.026  13.227  67.826  1.00  0.00    -0.356 C  
HETATM   17  C   UNL     1     -12.135  14.626  67.182  1.00  0.00    -0.218 C  
HETATM   18  C   UNL     1     -11.164  14.737  71.294  1.00  0.00    -0.059 A  
HETATM   19  H   UNL     1      -9.924  14.470  68.806  1.00  0.00     0.000 HD 
HETATM   20  C   UNL     1     -10.813  15.160  66.637  1.00  0.00    -0.318 C  
HETATM   21  C   UNL     1     -11.705  15.585  72.268  1.00  0.00    -0.578 A  
HETATM   22  C   UNL     1     -13.072  15.839  72.286  1.00  0.00    -0.524 A  
HETATM   23  C   UNL     1     -10.172  14.205  65.635  1.00  0.00    -0.357 C  
HETATM   24  C   UNL     1     -10.076  12.781  66.157  1.00  0.00    -0.274 C  
HETATM   25  C   UNL     1     -13.895  15.231  71.344  1.00  0.00    -0.603 A  
HETATM   26  C   UNL     1     -13.353  14.375  70.374  1.00  0.00     0.161 A  
HETATM   27  C   UNL     1     -11.389  12.301  66.761  1.00  0.00    -0.395 C  
ENDBRANCH  10  11
ENDBRANCH   9  10
ENDBRANCH   8   9
TORSDOF 3
ENDMDL
MODEL       21
REMARK 921   NORMALIZED FREE ENERGY PREDICTED BY IDOCK:   -6.56 KCAL/MOL
REMARK 922        TOTAL FREE ENERGY PREDICTED BY IDOCK:   -8.15 KCAL/MOL
REMARK 923 INTER-LIGAND FREE ENERGY PREDICTED BY IDOCK:   -7.42 KCAL/MOL
REMARK 924 INTRA-LIGAND FREE ENERGY PREDICTED BY IDOCK:   -0.73 KCAL/MOL
REMARK 927      BINDING AFFINITY PREDICTED BY RF-SCORE:    0.00 PKD
ROOT
HETATM    1  C   UNL     1     -11.856  13.203  63.640  1.00  0.00    -0.488 C  
HETATM    2  N   UNL     1     -11.205  12.265  64.541  1.00  0.00    -0.312 NA 
HETATM    3  C   UNL     1     -10.609  11.105  63.906  1.00  0.00    -0.364 C  
HETATM    4  C   UNL     1      -9.900  10.150  64.841  1.00  0.00    -0.390 C  
HETATM    5  C   UNL     1     -10.010  10.398  66.327  1.00  0.00    -0.226 C  
HETATM    6  N   UNL     1     -10.738  11.578  66.747  1.00  0.00    -0.257 NA 
HETATM    7  H   UNL     1     -10.842  11.760  67.745  1.00  0.00     0.000 HD 
HETATM    8  C   UNL     1     -11.256  12.401  65.914  1.00  0.00    -0.336 C  
ENDROOT
BRANCH   8   9
HETATM    9  C   UNL     1     -12.022  13.622  66.526  1.00  0.00    -0.424 C  
BRANCH   9  10
HETATM   10  O   UNL     1     -11.297  14.531  67.348  1.00  0.00    -0.325 OA 
BRANCH  10  11
HETATM   11  C   UNL     1     -10.778  15.628  66.698  1.00  0.00    -0.296 C  
HETATM   12  C   UNL     1      -9.574  16.198  67.529  1.00  0.00    -0.229 C  
HETATM   13  O   UNL     1     -11.193  16.061  65.629  1.00  0.00    -0.116 OA 
HETATM   14  C   UNL     1      -9.578  17.741  67.421  1.00  0.00    -0.264 A  
HETATM   15  O   UNL     1      -9.762  15.891  68.918  1.00  0.00    -0.206 OA 
HETATM   16  C   UNL     1      -8.256  15.490  67.020  1.00  0.00    -0.275 C  
HETATM   17  C   UNL     1      -6.942  15.993  67.655  1.00  0.00    -0.179 C  
HETATM   18  C   UNL     1     -10.245  18.529  68.385  1.00  0.00    -0.409 A  
HETATM   19  H   UNL     1      -9.034  16.236  69.421  1.00  0.00     0.000 HD 
HETATM   20  C   UNL     1      -6.724  15.512  69.087  1.00  0.00    -0.145 C  
HETATM   21  C   UNL     1     -10.271  19.927  68.305  1.00  0.00    -0.562 A  
HETATM   22  C   UNL     1      -9.636  20.574  67.251  1.00  0.00    -0.580 A  
HETATM   23  C   UNL     1      -6.774  13.992  69.200  1.00  0.00    -0.112 C  
HETATM   24  C   UNL     1      -8.009  13.393  68.547  1.00  0.00    -0.107 C  
HETATM   25  C   UNL     1      -8.993  19.824  66.272  1.00  0.00    -0.431 A  
HETATM   26  C   UNL     1      -8.974  18.424  66.349  1.00  0.00    -0.260 A  
HETATM   27  C   UNL     1      -8.243  13.947  67.147  1.00  0.00    -0.128 C  
ENDBRANCH  10  11
ENDBRANCH   9  10
ENDBRANCH   8   9
TORSDOF 3
ENDMDL
MODEL       22
REMARK 921   NORMALIZED FREE ENERGY PREDICTED BY IDOCK:   -6.55 KCAL/MOL
REMARK 922        TOTAL FREE ENERGY PREDICTED BY IDOCK:   -8.14 KCAL/MOL
REMARK 923 INTER-LIGAND FREE ENERGY PREDICTED BY IDOCK:   -7.31 KCAL/MOL
REMARK 924 INTRA-LIGAND FREE ENERGY PREDICTED BY IDOCK:   -0.84 KCAL/MOL
REMARK 927      BINDING AFFINITY PREDICTED BY RF-SCORE:    0.00 PKD
ROOT
HETATM    1  C   UNL     1      -8.902   9.105  66.189  1.00  0.00    -0.158 C  
HETATM    2  N   UNL     1      -9.339   9.323  67.558  1.00  0.00    -0.127 NA 
HETATM    3  C   UNL     1     -10.348   8.401  68.043  1.00  0.00    -0.215 C  
HETATM    4  C   UNL     1     -10.774   8.606  69.480  1.00  0.00    -0.189 C  
HETATM    5  C   UNL     1     -10.245   9.818  70.211  1.00  0.00    -0.289 C  
HETATM    6  N   UNL     1      -9.311  10.663  69.498  1.00  0.00    -0.413 NA 
HETATM    7  H   UNL     1      -8.952  11.497  69.962  1.00  0.00     0.000 HD 
HETATM    8  C   UNL     1      -8.919  10.405  68.306  1.00  0.00    -0.135 C  
ENDROOT
BRANCH   8   9
HETATM    9  C   UNL     1      -7.916  11.424  67.666  1.00  0.00    -0.123 C  
BRANCH   9  10
HETATM   10  O   UNL     1      -8.440  12.456  66.835  1.00  0.00    -0.190 OA 
BRANCH  10  11
HETATM   11  C   UNL     1      -9.065  13.487  67.499  1.00  0.00    -0.214 C  
HETATM   12  C   UNL     1      -9.975  14.273  66.489  1.00  0.00    -0.281 C  
HETATM   13  O   UNL     1      -8.934  13.723  68.694  1.00  0.00    -0.151 OA 
HETATM   14  C   UNL     1      -9.932  15.778  66.844  1.00  0.00    -0.247 A  
HETATM   15  O   UNL     1      -9.435  14.155  65.165  1.00  0.00    -0.478 OA 
HETATM   16  C   UNL     1     -11.412  13.614  66.518  1.00  0.00    -0.357 C  
HETATM   17  C   UNL     1     -12.483  14.315  65.656  1.00  0.00    -0.432 C  
HETATM   18  C   UNL     1      -8.997  16.637  66.226  1.00  0.00    -0.340 A  
HETATM   19  H   UNL     1      -9.985  14.631  64.554  1.00  0.00     0.000 HD 
HETATM   20  C   UNL     1     -12.330  14.068  64.157  1.00  0.00    -0.374 C  
HETATM   21  C   UNL     1      -8.931  18.001  66.537  1.00  0.00    -0.280 A  
HETATM   22  C   UNL     1      -9.796  18.541  67.482  1.00  0.00    -0.330 A  
HETATM   23  C   UNL     1     -12.318  12.582  63.815  1.00  0.00    -0.595 C  
HETATM   24  C   UNL     1     -11.333  11.790  64.659  1.00  0.00    -0.320 C  
HETATM   25  C   UNL     1     -10.711  17.714  68.126  1.00  0.00    -0.312 A  
HETATM   26  C   UNL     1     -10.771  16.347  67.820  1.00  0.00    -0.328 A  
HETATM   27  C   UNL     1     -11.458  12.113  66.142  1.00  0.00    -0.429 C  
ENDBRANCH  10  11
ENDBRANCH   9  10
ENDBRANCH   8   9
TORSDOF 3
ENDMDL
MODEL       23
REMARK 921   NORMALIZED FREE ENERGY PREDICTED BY IDOCK:   -6.41 KCAL/MOL
REMARK 922        TOTAL FREE ENERGY PREDICTED BY IDOCK:   -7.98 KCAL/MOL
REMARK 923 INTER-LIGAND FREE ENERGY PREDICTED BY IDOCK:   -7.20 KCAL/MOL
REMARK 924 INTRA-LIGAND FREE ENERGY PREDICTED BY IDOCK:   -0.79 KCAL/MOL
REMARK 927      BINDING AFFINITY PREDICTED BY RF-SCORE:    0.00 PKD
ROOT
HETATM    1  C   UNL     1     -13.783  13.152  72.426  1.00  0.00    -0.540 C  
HETATM    2  N   UNL     1     -12.889  12.859  71.317  1.00  0.00    -0.329 NA 
HETATM    3  C   UNL     1     -12.558  13.989  70.471  1.00  0.00    -0.329 C  
HETATM    4  C   UNL     1     -11.598  13.691  69.340  1.00  0.00    -0.368 C  
HETATM    5  C   UNL     1     -11.206  12.251  69.102  1.00  0.00    -0.242 C  
HETATM    6  N   UNL     1     -11.732  11.264  70.022  1.00  0.00    -0.323 NA 
HETATM    7  H   UNL     1     -11.498  10.283  69.874  1.00  0.00     0.000 HD 
HETATM    8  C   UNL     1     -12.481  11.575  71.013  1.00  0.00    -0.356 C  
ENDROOT
BRANCH   8   9
HETATM    9  C   UNL     1     -12.980  10.392  71.909  1.00  0.00    -0.450 C  
BRANCH   9  10
HETATM   10  O   UNL     1     -12.068   9.337  72.204  1.00  0.00    -0.354 OA 
BRANCH  10  11
HETATM   11  C   UNL     1     -12.104   8.267  71.338  1.00  0.00    -0.300 C  
HETATM   12  C   UNL     1     -10.636   7.878  70.940  1.00  0.00    -0.213 C  
HETATM   13  O   UNL     1     -13.131   7.709  70.968  1.00  0.00    -0.188 OA 
HETATM   14  C   UNL     1     -10.623   7.428  69.459  1.00  0.00    -0.244 A  
HETATM   15  O   UNL     1      -9.795   9.036  71.017  1.00  0.00    -0.232 OA 
HETATM   16  C   UNL     1     -10.123   6.800  71.975  1.00  0.00    -0.198 C  
HETATM   17  C   UNL     1      -8.723   6.216  71.690  1.00  0.00    -0.135 C  
HETATM   18  C   UNL     1     -10.352   8.355  68.428  1.00  0.00    -0.239 A  
HETATM   19  H   UNL     1      -8.906   8.801  70.776  1.00  0.00     0.000 HD 
HETATM   20  C   UNL     1      -7.577   7.170  72.018  1.00  0.00    -0.090 C  
HETATM   21  C   UNL     1     -10.344   7.976  67.080  1.00  0.00    -0.395 A  
HETATM   22  C   UNL     1     -10.614   6.659  66.727  1.00  0.00    -0.315 A  
HETATM   23  C   UNL     1      -7.623   7.654  73.463  1.00  0.00    -0.142 C  
HETATM   24  C   UNL     1      -8.987   8.193  73.861  1.00  0.00    -0.133 C  
HETATM   25  C   UNL     1     -10.910   5.730  67.718  1.00  0.00    -0.259 A  
HETATM   26  C   UNL     1     -10.926   6.111  69.068  1.00  0.00    -0.436 A  
HETATM   27  C   UNL     1     -10.117   7.256  73.455  1.00  0.00    -0.387 C  
ENDBRANCH  10  11
ENDBRANCH   9  10
ENDBRANCH   8   9
TORSDOF 3
ENDMDL
MODEL       24
REMARK 921   NORMALIZED FREE ENERGY PREDICTED BY IDOCK:   -6.39 KCAL/MOL
REMARK 922        TOTAL FREE ENERGY PREDICTED BY IDOCK:   -7.96 KCAL/MOL
REMARK 923 INTER-LIGAND FREE ENERGY PREDICTED BY IDOCK:   -7.73 KCAL/MOL
REMARK 924 INTRA-LIGAND FREE ENERGY PREDICTED BY IDOCK:   -0.22 KCAL/MOL
REMARK 927      BINDING AFFINITY PREDICTED BY RF-SCORE:    0.00 PKD
ROOT
HETATM    1  C   UNL     1     -11.321   6.884  70.385  1.00  0.00    -0.328 C  
HETATM    2  N   UNL     1     -11.846   8.153  70.864  1.00  0.00    -0.261 NA 
HETATM    3  C   UNL     1     -12.932   8.055  71.820  1.00  0.00    -0.331 C  
HETATM    4  C   UNL     1     -13.452   9.374  72.345  1.00  0.00    -0.506 C  
HETATM    5  C   UNL     1     -12.918  10.645  71.726  1.00  0.00    -0.472 C  
HETATM    6  N   UNL     1     -11.894  10.505  70.712  1.00  0.00    -0.343 NA 
HETATM    7  H   UNL     1     -11.529  11.346  70.266  1.00  0.00     0.000 HD 
HETATM    8  C   UNL     1     -11.429   9.367  70.354  1.00  0.00    -0.223 C  
ENDROOT
BRANCH   8   9
HETATM    9  C   UNL     1     -10.333   9.382  69.237  1.00  0.00    -0.208 C  
BRANCH   9  10
HETATM   10  O   UNL     1     -10.026  10.623  68.608  1.00  0.00    -0.166 OA 
BRANCH  10  11
HETATM   11  C   UNL     1     -10.899  11.015  67.619  1.00  0.00    -0.256 C  
HETATM   12  C   UNL     1     -10.092  11.301  66.303  1.00  0.00    -0.230 C  
HETATM   13  O   UNL     1     -12.114  11.099  67.760  1.00  0.00    -0.606 OA 
HETATM   14  C   UNL     1     -10.741  12.498  65.569  1.00  0.00    -0.303 A  
HETATM   15  O   UNL     1      -8.758  11.707  66.637  1.00  0.00    -0.180 OA 
HETATM   16  C   UNL     1     -10.027   9.957  65.473  1.00  0.00    -0.363 C  
HETATM   17  C   UNL     1      -9.353  10.062  64.088  1.00  0.00    -0.335 C  
HETATM   18  C   UNL     1     -10.283  13.815  65.796  1.00  0.00    -0.322 A  
HETATM   19  H   UNL     1      -8.269  11.880  65.841  1.00  0.00     0.000 HD 
HETATM   20  C   UNL     1      -7.832  10.173  64.149  1.00  0.00    -0.145 C  
HETATM   21  C   UNL     1     -10.859  14.917  65.152  1.00  0.00    -0.428 A  
HETATM   22  C   UNL     1     -11.916  14.732  64.269  1.00  0.00    -0.387 A  
HETATM   23  C   UNL     1      -7.198   9.019  64.919  1.00  0.00    -0.095 C  
HETATM   24  C   UNL     1      -7.840   8.796  66.279  1.00  0.00    -0.102 C  
HETATM   25  C   UNL     1     -12.405  13.449  64.044  1.00  0.00    -0.402 A  
HETATM   26  C   UNL     1     -11.834  12.347  64.695  1.00  0.00    -0.445 A  
HETATM   27  C   UNL     1      -9.360   8.764  66.198  1.00  0.00    -0.297 C  
ENDBRANCH  10  11
ENDBRANCH   9  10
ENDBRANCH   8   9
TORSDOF 3
ENDMDL
MODEL       25
REMARK 921   NORMALIZED FREE ENERGY PREDICTED BY IDOCK:   -6.37 KCAL/MOL
REMARK 922        TOTAL FREE ENERGY PREDICTED BY IDOCK:   -7.94 KCAL/MOL
REMARK 923 INTER-LIGAND FREE ENERGY PREDICTED BY IDOCK:   -6.82 KCAL/MOL
REMARK 924 INTRA-LIGAND FREE ENERGY PREDICTED BY IDOCK:   -1.12 KCAL/MOL
REMARK 927      BINDING AFFINITY PREDICTED BY RF-SCORE:    0.00 PKD
ROOT
HETATM    1  C   UNL     1      -6.530  11.356  69.835  1.00  0.00    -0.118 C  
HETATM    2  N   UNL     1      -6.421  12.606  69.099  1.00  0.00    -0.101 NA 
HETATM    3  C   UNL     1      -5.994  13.751  69.880  1.00  0.00    -0.132 C  
HETATM    4  C   UNL     1      -5.845  15.042  69.106  1.00  0.00    -0.097 C  
HETATM    5  C   UNL     1      -6.296  15.060  67.663  1.00  0.00    -0.131 C  
HETATM    6  N   UNL     1      -6.780  13.814  67.107  1.00  0.00    -0.411 NA 
HETATM    7  H   UNL     1      -7.106  13.803  66.141  1.00  0.00     0.000 HD 
HETATM    8  C   UNL     1      -6.815  12.726  67.781  1.00  0.00    -0.135 C  
ENDROOT
BRANCH   8   9
HETATM    9  C   UNL     1      -7.377  11.466  67.042  1.00  0.00    -0.144 C  
BRANCH   9  10
HETATM   10  O   UNL     1      -8.742  11.476  66.632  1.00  0.00    -0.172 OA 
BRANCH  10  11
HETATM   11  C   UNL     1      -9.640  11.903  67.584  1.00  0.00    -0.185 C  
HETATM   12  C   UNL     1     -10.442  13.130  67.022  1.00  0.00    -0.248 C  
HETATM   13  O   UNL     1      -9.788  11.379  68.683  1.00  0.00    -0.200 OA 
HETATM   14  C   UNL     1     -10.707  14.125  68.177  1.00  0.00    -0.251 A  
HETATM   15  O   UNL     1      -9.638  13.829  66.063  1.00  0.00    -0.417 OA 
HETATM   16  C   UNL     1     -11.735  12.574  66.302  1.00  0.00    -0.462 C  
HETATM   17  C   UNL     1     -12.710  13.644  65.766  1.00  0.00    -0.470 C  
HETATM   18  C   UNL     1      -9.813  15.189  68.429  1.00  0.00    -0.223 A  
HETATM   19  H   UNL     1     -10.123  14.572  65.722  1.00  0.00     0.000 HD 
HETATM   20  C   UNL     1     -12.225  14.342  64.497  1.00  0.00    -0.476 C  
HETATM   21  C   UNL     1     -10.024  16.098  69.473  1.00  0.00    -0.222 A  
HETATM   22  C   UNL     1     -11.133  15.961  70.300  1.00  0.00    -0.381 A  
HETATM   23  C   UNL     1     -11.913  13.354  63.378  1.00  0.00    -0.406 C  
HETATM   24  C   UNL     1     -11.004  12.222  63.827  1.00  0.00    -0.495 C  
HETATM   25  C   UNL     1     -12.018  14.908  70.092  1.00  0.00    -0.368 A  
HETATM   26  C   UNL     1     -11.801  13.993  69.051  1.00  0.00    -0.391 A  
HETATM   27  C   UNL     1     -11.471  11.594  65.133  1.00  0.00    -0.180 C  
ENDBRANCH  10  11
ENDBRANCH   9  10
ENDBRANCH   8   9
TORSDOF 3
ENDMDL
MODEL       26
REMARK 921   NORMALIZED FREE ENERGY PREDICTED BY IDOCK:   -6.34 KCAL/MOL
REMARK 922        TOTAL FREE ENERGY PREDICTED BY IDOCK:   -7.90 KCAL/MOL
REMARK 923 INTER-LIGAND FREE ENERGY PREDICTED BY IDOCK:   -7.49 KCAL/MOL
REMARK 924 INTRA-LIGAND FREE ENERGY PREDICTED BY IDOCK:   -0.42 KCAL/MOL
REMARK 927      BINDING AFFINITY PREDICTED BY RF-SCORE:    0.00 PKD
ROOT
HETATM    1  C   UNL     1     -12.851   8.718  71.803  1.00  0.00    -0.360 C  
HETATM    2  N   UNL     1     -11.414   8.576  71.975  1.00  0.00    -0.336 NA 
HETATM    3  C   UNL     1     -11.001   7.700  73.055  1.00  0.00    -0.400 C  
HETATM    4  C   UNL     1      -9.507   7.523  73.209  1.00  0.00    -0.293 C  
HETATM    5  C   UNL     1      -8.599   8.374  72.351  1.00  0.00    -0.193 C  
HETATM    6  N   UNL     1      -9.233   9.256  71.393  1.00  0.00    -0.296 NA 
HETATM    7  H   UNL     1      -8.644   9.854  70.814  1.00  0.00     0.000 HD 
HETATM    8  C   UNL     1     -10.504   9.314  71.245  1.00  0.00    -0.338 C  
ENDROOT
BRANCH   8   9
HETATM    9  C   UNL     1     -11.035  10.327  70.176  1.00  0.00    -0.314 C  
BRANCH   9  10
HETATM   10  O   UNL     1     -10.363  10.402  68.923  1.00  0.00    -0.186 OA 
BRANCH  10  11
HETATM   11  C   UNL     1     -11.084  10.975  67.900  1.00  0.00    -0.288 C  
HETATM   12  C   UNL     1     -10.138  11.206  66.668  1.00  0.00    -0.217 C  
HETATM   13  O   UNL     1     -12.281  11.236  67.957  1.00  0.00    -0.621 OA 
HETATM   14  C   UNL     1     -10.540  12.526  65.970  1.00  0.00    -0.289 A  
HETATM   15  O   UNL     1      -8.791  11.385  67.126  1.00  0.00    -0.149 OA 
HETATM   16  C   UNL     1     -10.204   9.915  65.759  1.00  0.00    -0.251 C  
HETATM   17  C   UNL     1      -9.410   9.990  64.437  1.00  0.00    -0.348 C  
HETATM   18  C   UNL     1      -9.912  13.743  66.316  1.00  0.00    -0.312 A  
HETATM   19  H   UNL     1      -8.218  11.524  66.381  1.00  0.00     0.000 HD 
HETATM   20  C   UNL     1      -7.899   9.864  64.616  1.00  0.00    -0.142 C  
HETATM   21  C   UNL     1     -10.264  14.954  65.706  1.00  0.00    -0.358 A  
HETATM   22  C   UNL     1     -11.260  14.980  64.737  1.00  0.00    -0.393 A  
HETATM   23  C   UNL     1      -7.509   8.587  65.353  1.00  0.00    -0.086 C  
HETATM   24  C   UNL     1      -8.287   8.391  66.644  1.00  0.00    -0.110 C  
HETATM   25  C   UNL     1     -11.914  13.801  64.393  1.00  0.00    -0.480 A  
HETATM   26  C   UNL     1     -11.567  12.591  65.010  1.00  0.00    -0.392 A  
HETATM   27  C   UNL     1      -9.783   8.596  66.451  1.00  0.00    -0.333 C  
ENDBRANCH  10  11
ENDBRANCH   9  10
ENDBRANCH   8   9
TORSDOF 3
ENDMDL
MODEL       27
REMARK 921   NORMALIZED FREE ENERGY PREDICTED BY IDOCK:   -6.34 KCAL/MOL
REMARK 922        TOTAL FREE ENERGY PREDICTED BY IDOCK:   -7.90 KCAL/MOL
REMARK 923 INTER-LIGAND FREE ENERGY PREDICTED BY IDOCK:   -7.36 KCAL/MOL
REMARK 924 INTRA-LIGAND FREE ENERGY PREDICTED BY IDOCK:   -0.55 KCAL/MOL
REMARK 927      BINDING AFFINITY PREDICTED BY RF-SCORE:    0.00 PKD
ROOT
HETATM    1  C   UNL     1     -12.143   9.567  71.493  1.00  0.00    -0.389 C  
HETATM    2  N   UNL     1     -11.525   8.532  70.679  1.00  0.00    -0.260 NA 
HETATM    3  C   UNL     1     -11.887   7.171  71.025  1.00  0.00    -0.333 C  
HETATM    4  C   UNL     1     -11.273   6.097  70.154  1.00  0.00    -0.452 C  
HETATM    5  C   UNL     1     -10.242   6.516  69.132  1.00  0.00    -0.180 C  
HETATM    6  N   UNL     1      -9.963   7.932  69.018  1.00  0.00    -0.182 NA 
HETATM    7  H   UNL     1      -9.259   8.241  68.349  1.00  0.00     0.000 HD 
HETATM    8  C   UNL     1     -10.567   8.813  69.726  1.00  0.00    -0.224 C  
ENDROOT
BRANCH   8   9
HETATM    9  C   UNL     1     -10.144  10.302  69.494  1.00  0.00    -0.235 C  
BRANCH   9  10
HETATM   10  O   UNL     1      -9.664  10.676  68.206  1.00  0.00    -0.152 OA 
BRANCH  10  11
HETATM   11  C   UNL     1     -10.623  11.129  67.328  1.00  0.00    -0.239 C  
HETATM   12  C   UNL     1      -9.950  11.430  65.941  1.00  0.00    -0.234 C  
HETATM   13  O   UNL     1     -11.812  11.249  67.601  1.00  0.00    -0.614 OA 
HETATM   14  C   UNL     1     -10.629  12.672  65.316  1.00  0.00    -0.317 A  
HETATM   15  O   UNL     1      -8.574  11.780  66.142  1.00  0.00    -0.345 OA 
HETATM   16  C   UNL     1     -10.024  10.113  65.071  1.00  0.00    -0.375 C  
HETATM   17  C   UNL     1      -9.497  10.239  63.626  1.00  0.00    -0.348 C  
HETATM   18  C   UNL     1     -10.101  13.964  65.530  1.00  0.00    -0.319 A  
HETATM   19  H   UNL     1      -8.167  11.963  65.303  1.00  0.00     0.000 HD 
HETATM   20  C   UNL     1      -7.975  10.297  63.525  1.00  0.00    -0.143 C  
HETATM   21  C   UNL     1     -10.701  15.106  64.984  1.00  0.00    -0.451 A  
HETATM   22  C   UNL     1     -11.853  14.984  64.214  1.00  0.00    -0.289 A  
HETATM   23  C   UNL     1      -7.306   9.098  64.190  1.00  0.00    -0.104 C  
HETATM   24  C   UNL     1      -7.807   8.853  65.604  1.00  0.00    -0.096 C  
HETATM   25  C   UNL     1     -12.410  13.727  64.007  1.00  0.00    -0.370 A  
HETATM   26  C   UNL     1     -11.813  12.585  64.561  1.00  0.00    -0.448 A  
HETATM   27  C   UNL     1      -9.327   8.874  65.686  1.00  0.00    -0.259 C  
ENDBRANCH  10  11
ENDBRANCH   9  10
ENDBRANCH   8   9
TORSDOF 3
ENDMDL
MODEL       28
REMARK 921   NORMALIZED FREE ENERGY PREDICTED BY IDOCK:   -6.34 KCAL/MOL
REMARK 922        TOTAL FREE ENERGY PREDICTED BY IDOCK:   -7.90 KCAL/MOL
REMARK 923 INTER-LIGAND FREE ENERGY PREDICTED BY IDOCK:   -7.67 KCAL/MOL
REMARK 924 INTRA-LIGAND FREE ENERGY PREDICTED BY IDOCK:   -0.22 KCAL/MOL
REMARK 927      BINDING AFFINITY PREDICTED BY RF-SCORE:    0.00 PKD
ROOT
HETATM    1  C   UNL     1      -7.399  16.940  66.282  1.00  0.00    -0.213 C  
HETATM    2  N   UNL     1      -8.360  18.020  66.440  1.00  0.00    -0.361 NA 
HETATM    3  C   UNL     1      -7.796  19.304  66.808  1.00  0.00    -0.262 C  
HETATM    4  C   UNL     1      -8.792  20.435  66.935  1.00  0.00    -0.361 C  
HETATM    5  C   UNL     1     -10.262  20.102  66.828  1.00  0.00    -0.430 C  
HETATM    6  N   UNL     1     -10.607  18.725  66.546  1.00  0.00    -0.405 NA 
HETATM    7  H   UNL     1     -11.593  18.469  66.485  1.00  0.00     0.000 HD 
HETATM    8  C   UNL     1      -9.724  17.815  66.369  1.00  0.00    -0.308 C  
ENDROOT
BRANCH   8   9
HETATM    9  C   UNL     1     -10.257  16.370  66.084  1.00  0.00    -0.348 C  
BRANCH   9  10
HETATM   10  O   UNL     1     -11.307  15.865  66.903  1.00  0.00    -0.081 OA 
BRANCH  10  11
HETATM   11  C   UNL     1     -11.040  15.837  68.253  1.00  0.00    -0.342 C  
HETATM   12  C   UNL     1     -11.651  14.529  68.872  1.00  0.00    -0.309 C  
HETATM   13  O   UNL     1     -10.405  16.697  68.853  1.00  0.00    -0.260 OA 
HETATM   14  C   UNL     1     -12.184  14.849  70.289  1.00  0.00    -0.389 A  
HETATM   15  O   UNL     1     -12.786  14.117  68.098  1.00  0.00    -0.277 OA 
HETATM   16  C   UNL     1     -10.547  13.401  68.807  1.00  0.00    -0.230 C  
HETATM   17  C   UNL     1     -10.928  12.057  69.463  1.00  0.00    -0.056 C  
HETATM   18  C   UNL     1     -13.531  15.228  70.483  1.00  0.00    -0.128 A  
HETATM   19  H   UNL     1     -13.156  13.326  68.472  1.00  0.00     0.000 HD 
HETATM   20  C   UNL     1     -11.915  11.228  68.645  1.00  0.00    -0.314 C  
HETATM   21  C   UNL     1     -14.036  15.531  71.753  1.00  0.00    -0.569 A  
HETATM   22  C   UNL     1     -13.203  15.472  72.864  1.00  0.00    -0.633 A  
HETATM   23  C   UNL     1     -11.411  10.960  67.230  1.00  0.00    -0.230 C  
HETATM   24  C   UNL     1     -10.951  12.222  66.519  1.00  0.00    -0.320 C  
HETATM   25  C   UNL     1     -11.865  15.127  72.702  1.00  0.00    -0.484 A  
HETATM   26  C   UNL     1     -11.358  14.831  71.428  1.00  0.00    -0.134 A  
HETATM   27  C   UNL     1     -10.027  13.066  67.387  1.00  0.00    -0.228 C  
ENDBRANCH  10  11
ENDBRANCH   9  10
ENDBRANCH   8   9
TORSDOF 3
ENDMDL
MODEL       29
REMARK 921   NORMALIZED FREE ENERGY PREDICTED BY IDOCK:   -6.30 KCAL/MOL
REMARK 922        TOTAL FREE ENERGY PREDICTED BY IDOCK:   -7.86 KCAL/MOL
REMARK 923 INTER-LIGAND FREE ENERGY PREDICTED BY IDOCK:   -7.30 KCAL/MOL
REMARK 924 INTRA-LIGAND FREE ENERGY PREDICTED BY IDOCK:   -0.56 KCAL/MOL
REMARK 927      BINDING AFFINITY PREDICTED BY RF-SCORE:    0.00 PKD
ROOT
HETATM    1  C   UNL     1      -7.278  16.265  69.449  1.00  0.00    -0.192 C  
HETATM    2  N   UNL     1      -8.392  16.908  68.771  1.00  0.00    -0.249 NA 
HETATM    3  C   UNL     1      -8.212  18.318  68.479  1.00  0.00    -0.312 C  
HETATM    4  C   UNL     1      -9.355  18.976  67.740  1.00  0.00    -0.347 C  
HETATM    5  C   UNL     1     -10.615  18.170  67.518  1.00  0.00    -0.401 C  
HETATM    6  N   UNL     1     -10.609  16.797  67.977  1.00  0.00    -0.335 NA 
HETATM    7  H   UNL     1     -11.452  16.236  67.855  1.00  0.00     0.000 HD 
HETATM    8  C   UNL     1      -9.586  16.259  68.530  1.00  0.00    -0.222 C  
ENDROOT
BRANCH   8   9
HETATM    9  C   UNL     1      -9.742  14.769  68.982  1.00  0.00    -0.190 C  
BRANCH   9  10
HETATM   10  O   UNL     1     -10.357  13.850  68.083  1.00  0.00    -0.234 OA 
BRANCH  10  11
HETATM   11  C   UNL     1      -9.538  12.848  67.614  1.00  0.00    -0.196 C  
HETATM   12  C   UNL     1     -10.297  12.043  66.499  1.00  0.00    -0.210 C  
HETATM   13  O   UNL     1      -8.394  12.647  68.004  1.00  0.00    -0.156 OA 
HETATM   14  C   UNL     1      -9.911  10.549  66.611  1.00  0.00    -0.246 A  
HETATM   15  O   UNL     1     -11.710  12.113  66.735  1.00  0.00    -0.488 OA 
HETATM   16  C   UNL     1      -9.974  12.720  65.108  1.00  0.00    -0.185 C  
HETATM   17  C   UNL     1     -10.555  12.006  63.869  1.00  0.00    -0.447 C  
HETATM   18  C   UNL     1     -10.691   9.660  67.383  1.00  0.00    -0.308 A  
HETATM   19  H   UNL     1     -12.170  11.626  66.061  1.00  0.00     0.000 HD 
HETATM   20  C   UNL     1     -12.058  12.206  63.690  1.00  0.00    -0.648 C  
HETATM   21  C   UNL     1     -10.358   8.305  67.508  1.00  0.00    -0.333 A  
HETATM   22  C   UNL     1      -9.228   7.806  66.869  1.00  0.00    -0.187 A  
HETATM   23  C   UNL     1     -12.443  13.681  63.634  1.00  0.00    -0.230 C  
HETATM   24  C   UNL     1     -11.863  14.485  64.786  1.00  0.00    -0.446 C  
HETATM   25  C   UNL     1      -8.426   8.663  66.123  1.00  0.00    -0.140 A  
HETATM   26  C   UNL     1      -8.756  10.021  66.005  1.00  0.00    -0.152 A  
HETATM   27  C   UNL     1     -10.379  14.210  64.989  1.00  0.00    -0.443 C  
ENDBRANCH  10  11
ENDBRANCH   9  10
ENDBRANCH   8   9
TORSDOF 3
ENDMDL
MODEL       30
REMARK 921   NORMALIZED FREE ENERGY PREDICTED BY IDOCK:   -6.26 KCAL/MOL
REMARK 922        TOTAL FREE ENERGY PREDICTED BY IDOCK:   -7.81 KCAL/MOL
REMARK 923 INTER-LIGAND FREE ENERGY PREDICTED BY IDOCK:   -7.13 KCAL/MOL
REMARK 924 INTRA-LIGAND FREE ENERGY PREDICTED BY IDOCK:   -0.67 KCAL/MOL
REMARK 927      BINDING AFFINITY PREDICTED BY RF-SCORE:    0.00 PKD
ROOT
HETATM    1  C   UNL     1      -7.592   9.967  69.545  1.00  0.00    -0.125 C  
HETATM    2  N   UNL     1      -8.735   9.537  70.335  1.00  0.00    -0.230 NA 
HETATM    3  C   UNL     1      -8.431   8.634  71.428  1.00  0.00    -0.188 C  
HETATM    4  C   UNL     1      -9.615   8.218  72.272  1.00  0.00    -0.355 C  
HETATM    5  C   UNL     1     -10.994   8.640  71.818  1.00  0.00    -0.326 C  
HETATM    6  N   UNL     1     -11.073   9.472  70.636  1.00  0.00    -0.275 NA 
HETATM    7  H   UNL     1     -11.992   9.757  70.298  1.00  0.00     0.000 HD 
HETATM    8  C   UNL     1     -10.034   9.864  69.998  1.00  0.00    -0.254 C  
ENDROOT
BRANCH   8   9
HETATM    9  C   UNL     1     -10.286  10.749  68.731  1.00  0.00    -0.192 C  
BRANCH   9  10
HETATM   10  O   UNL     1     -10.291  12.165  68.886  1.00  0.00    -0.178 OA 
BRANCH  10  11
HETATM   11  C   UNL     1     -11.483  12.707  69.311  1.00  0.00    -0.294 C  
HETATM   12  C   UNL     1     -11.319  14.262  69.457  1.00  0.00    -0.269 C  
HETATM   13  O   UNL     1     -12.505  12.061  69.516  1.00  0.00    -0.052 OA 
HETATM   14  C   UNL     1     -12.146  14.739  70.675  1.00  0.00    -0.374 A  
HETATM   15  O   UNL     1      -9.950  14.574  69.752  1.00  0.00    -0.417 OA 
HETATM   16  C   UNL     1     -11.711  14.922  68.076  1.00  0.00    -0.344 C  
HETATM   17  C   UNL     1     -11.708  16.465  68.051  1.00  0.00     0.219 C  
HETATM   18  C   UNL     1     -11.552  14.844  71.952  1.00  0.00    -0.335 A  
HETATM   19  H   UNL     1      -9.851  15.515  69.840  1.00  0.00     0.000 HD 
HETATM   20  C   UNL     1     -10.310  17.080  68.021  1.00  0.00    -0.341 C  
HETATM   21  C   UNL     1     -12.280  15.265  73.072  1.00  0.00    -0.527 A  
HETATM   22  C   UNL     1     -13.627  15.584  72.945  1.00  0.00    -0.633 A  
HETATM   23  C   UNL     1      -9.478  16.566  66.850  1.00  0.00    -0.250 C  
HETATM   24  C   UNL     1      -9.471  15.050  66.753  1.00  0.00    -0.263 C  
HETATM   25  C   UNL     1     -14.246  15.466  71.705  1.00  0.00    -0.621 A  
HETATM   26  C   UNL     1     -13.518  15.037  70.585  1.00  0.00    -0.210 A  
HETATM   27  C   UNL     1     -10.871  14.460  66.861  1.00  0.00    -0.301 C  
ENDBRANCH  10  11
ENDBRANCH   9  10
ENDBRANCH   8   9
TORSDOF 3
ENDMDL
MODEL       31
REMARK 921   NORMALIZED FREE ENERGY PREDICTED BY IDOCK:   -6.23 KCAL/MOL
REMARK 922        TOTAL FREE ENERGY PREDICTED BY IDOCK:   -7.77 KCAL/MOL
REMARK 923 INTER-LIGAND FREE ENERGY PREDICTED BY IDOCK:   -7.32 KCAL/MOL
REMARK 924 INTRA-LIGAND FREE ENERGY PREDICTED BY IDOCK:   -0.45 KCAL/MOL
REMARK 927      BINDING AFFINITY PREDICTED BY RF-SCORE:    0.00 PKD
ROOT
HETATM    1  C   UNL     1     -10.323  19.328  66.277  1.00  0.00    -0.480 C  
HETATM    2  N   UNL     1      -9.203  19.077  67.169  1.00  0.00    -0.288 NA 
HETATM    3  C   UNL     1      -8.304  20.198  67.367  1.00  0.00    -0.338 C  
HETATM    4  C   UNL     1      -7.160  19.948  68.324  1.00  0.00    -0.336 C  
HETATM    5  C   UNL     1      -6.969  18.544  68.851  1.00  0.00    -0.283 C  
HETATM    6  N   UNL     1      -7.941  17.550  68.448  1.00  0.00    -0.252 NA 
HETATM    7  H   UNL     1      -7.826  16.591  68.775  1.00  0.00     0.000 HD 
HETATM    8  C   UNL     1      -8.940  17.828  67.695  1.00  0.00    -0.249 C  
ENDROOT
BRANCH   8   9
HETATM    9  C   UNL     1      -9.895  16.640  67.338  1.00  0.00    -0.254 C  
BRANCH   9  10
HETATM   10  O   UNL     1      -9.484  15.318  67.674  1.00  0.00    -0.203 OA 
BRANCH  10  11
HETATM   11  C   UNL     1      -9.711  14.366  66.706  1.00  0.00    -0.270 C  
HETATM   12  C   UNL     1      -9.966  12.979  67.396  1.00  0.00    -0.228 C  
HETATM   13  O   UNL     1      -9.727  14.593  65.501  1.00  0.00    -0.320 OA 
HETATM   14  C   UNL     1      -9.338  11.865  66.526  1.00  0.00    -0.222 A  
HETATM   15  O   UNL     1      -9.283  12.939  68.658  1.00  0.00    -0.377 OA 
HETATM   16  C   UNL     1     -11.520  12.842  67.648  1.00  0.00    -0.383 C  
HETATM   17  C   UNL     1     -11.983  11.492  68.235  1.00  0.00    -0.239 C  
HETATM   18  C   UNL     1      -8.019  11.420  66.768  1.00  0.00    -0.160 A  
HETATM   19  H   UNL     1      -9.437  12.100  69.076  1.00  0.00     0.000 HD 
HETATM   20  C   UNL     1     -11.662  11.321  69.718  1.00  0.00    -0.422 C  
HETATM   21  C   UNL     1      -7.424  10.420  65.989  1.00  0.00    -0.134 A  
HETATM   22  C   UNL     1      -8.131   9.843  64.941  1.00  0.00    -0.145 A  
HETATM   23  C   UNL     1     -12.237  12.450  70.568  1.00  0.00    -0.382 C  
HETATM   24  C   UNL     1     -11.885  13.828  70.032  1.00  0.00    -0.377 C  
HETATM   25  C   UNL     1      -9.423  10.278  64.663  1.00  0.00    -0.351 A  
HETATM   26  C   UNL     1     -10.015  11.285  65.438  1.00  0.00    -0.297 A  
HETATM   27  C   UNL     1     -12.145  13.946  68.536  1.00  0.00    -0.331 C  
ENDBRANCH  10  11
ENDBRANCH   9  10
ENDBRANCH   8   9
TORSDOF 3
ENDMDL
MODEL       32
REMARK 921   NORMALIZED FREE ENERGY PREDICTED BY IDOCK:   -6.21 KCAL/MOL
REMARK 922        TOTAL FREE ENERGY PREDICTED BY IDOCK:   -7.74 KCAL/MOL
REMARK 923 INTER-LIGAND FREE ENERGY PREDICTED BY IDOCK:   -7.08 KCAL/MOL
REMARK 924 INTRA-LIGAND FREE ENERGY PREDICTED BY IDOCK:   -0.66 KCAL/MOL
REMARK 927      BINDING AFFINITY PREDICTED BY RF-SCORE:    0.00 PKD
ROOT
HETATM    1  C   UNL     1     -12.533  14.459  64.093  1.00  0.00    -0.199 C  
HETATM    2  N   UNL     1     -11.726  13.332  64.533  1.00  0.00    -0.360 NA 
HETATM    3  C   UNL     1     -11.295  12.430  63.482  1.00  0.00    -0.476 C  
HETATM    4  C   UNL     1     -10.424  11.279  63.936  1.00  0.00    -0.452 C  
HETATM    5  C   UNL     1     -10.220  11.086  65.421  1.00  0.00    -0.274 C  
HETATM    6  N   UNL     1     -10.825  12.062  66.303  1.00  0.00    -0.267 NA 
HETATM    7  H   UNL     1     -10.717  11.946  67.310  1.00  0.00     0.000 HD 
HETATM    8  C   UNL     1     -11.490  13.066  65.867  1.00  0.00    -0.337 C  
ENDROOT
BRANCH   8   9
HETATM    9  C   UNL     1     -12.092  14.026  66.948  1.00  0.00    -0.430 C  
BRANCH   9  10
HETATM   10  O   UNL     1     -11.388  15.227  67.252  1.00  0.00    -0.332 OA 
BRANCH  10  11
HETATM   11  C   UNL     1     -10.445  15.121  68.249  1.00  0.00    -0.241 C  
HETATM   12  C   UNL     1      -9.155  15.908  67.824  1.00  0.00    -0.196 C  
HETATM   13  O   UNL     1     -10.616  14.520  69.304  1.00  0.00    -0.250 OA 
HETATM   14  C   UNL     1      -7.911  15.141  68.333  1.00  0.00    -0.136 A  
HETATM   15  O   UNL     1      -9.058  15.931  66.393  1.00  0.00    -0.260 OA 
HETATM   16  C   UNL     1      -9.296  17.391  68.353  1.00  0.00    -0.285 C  
HETATM   17  C   UNL     1      -8.072  18.301  68.116  1.00  0.00    -0.297 C  
HETATM   18  C   UNL     1      -7.261  14.198  67.508  1.00  0.00    -0.188 A  
HETATM   19  H   UNL     1      -8.277  16.407  66.135  1.00  0.00     0.000 HD 
HETATM   20  C   UNL     1      -7.917  18.764  66.670  1.00  0.00    -0.278 C  
HETATM   21  C   UNL     1      -6.139  13.483  67.948  1.00  0.00    -0.152 A  
HETATM   22  C   UNL     1      -5.643  13.690  69.230  1.00  0.00    -0.081 A  
HETATM   23  C   UNL     1      -9.165  19.472  66.153  1.00  0.00    -0.363 C  
HETATM   24  C   UNL     1     -10.438  18.678  66.397  1.00  0.00    -0.463 C  
HETATM   25  C   UNL     1      -6.278  14.594  70.074  1.00  0.00    -0.159 A  
HETATM   26  C   UNL     1      -7.406  15.303  69.636  1.00  0.00    -0.188 A  
HETATM   27  C   UNL     1     -10.529  18.166  67.828  1.00  0.00    -0.421 C  
ENDBRANCH  10  11
ENDBRANCH   9  10
ENDBRANCH   8   9
TORSDOF 3
ENDMDL
MODEL       33
REMARK 921   NORMALIZED FREE ENERGY PREDICTED BY IDOCK:   -6.20 KCAL/MOL
REMARK 922        TOTAL FREE ENERGY PREDICTED BY IDOCK:   -7.74 KCAL/MOL
REMARK 923 INTER-LIGAND FREE ENERGY PREDICTED BY IDOCK:   -7.10 KCAL/MOL
REMARK 924 INTRA-LIGAND FREE ENERGY PREDICTED BY IDOCK:   -0.64 KCAL/MOL
REMARK 927      BINDING AFFINITY PREDICTED BY RF-SCORE:    0.00 PKD
ROOT
HETATM    1  C   UNL     1     -10.068   9.832  69.904  1.00  0.00    -0.251 C  
HETATM    2  N   UNL     1      -9.816   9.167  68.636  1.00  0.00    -0.160 NA 
HETATM    3  C   UNL     1     -10.357   7.826  68.520  1.00  0.00    -0.197 C  
HETATM    4  C   UNL     1     -10.127   7.149  67.187  1.00  0.00    -0.293 C  
HETATM    5  C   UNL     1      -9.242   7.847  66.180  1.00  0.00    -0.152 C  
HETATM    6  N   UNL     1      -8.729   9.151  66.544  1.00  0.00    -0.126 NA 
HETATM    7  H   UNL     1      -8.115   9.636  65.890  1.00  0.00     0.000 HD 
HETATM    8  C   UNL     1      -9.015   9.718  67.656  1.00  0.00    -0.128 C  
ENDROOT
BRANCH   8   9
HETATM    9  C   UNL     1      -8.371  11.123  67.908  1.00  0.00    -0.129 C  
BRANCH   9  10
HETATM   10  O   UNL     1      -8.697  12.185  67.017  1.00  0.00    -0.179 OA 
BRANCH  10  11
HETATM   11  C   UNL     1      -9.320  13.269  67.594  1.00  0.00    -0.212 C  
HETATM   12  C   UNL     1     -10.095  14.067  66.487  1.00  0.00    -0.285 C  
HETATM   13  O   UNL     1      -9.279  13.536  68.790  1.00  0.00    -0.074 OA 
HETATM   14  C   UNL     1     -10.002  15.579  66.803  1.00  0.00    -0.257 A  
HETATM   15  O   UNL     1      -9.451  13.879  65.220  1.00  0.00    -0.522 OA 
HETATM   16  C   UNL     1     -11.563  13.485  66.408  1.00  0.00    -0.381 C  
HETATM   17  C   UNL     1     -12.516  14.213  65.437  1.00  0.00    -0.488 C  
HETATM   18  C   UNL     1      -8.971  16.368  66.246  1.00  0.00    -0.368 A  
HETATM   19  H   UNL     1      -9.920  14.363  64.549  1.00  0.00     0.000 HD 
HETATM   20  C   UNL     1     -12.248  13.910  63.965  1.00  0.00    -0.413 C  
HETATM   21  C   UNL     1      -8.858  17.736  66.523  1.00  0.00    -0.283 A  
HETATM   22  C   UNL     1      -9.771  18.350  67.373  1.00  0.00    -0.307 A  
HETATM   23  C   UNL     1     -12.288  12.414  63.666  1.00  0.00    -0.647 C  
HETATM   24  C   UNL     1     -11.423  11.601  64.615  1.00  0.00    -0.249 C  
HETATM   25  C   UNL     1     -10.781  17.594  67.957  1.00  0.00    -0.333 A  
HETATM   26  C   UNL     1     -10.889  16.222  67.685  1.00  0.00    -0.293 A  
HETATM   27  C   UNL     1     -11.658  11.977  66.072  1.00  0.00    -0.371 C  
ENDBRANCH  10  11
ENDBRANCH   9  10
ENDBRANCH   8   9
TORSDOF 3
ENDMDL
MODEL       34
REMARK 921   NORMALIZED FREE ENERGY PREDICTED BY IDOCK:   -6.20 KCAL/MOL
REMARK 922        TOTAL FREE ENERGY PREDICTED BY IDOCK:   -7.74 KCAL/MOL
REMARK 923 INTER-LIGAND FREE ENERGY PREDICTED BY IDOCK:   -7.22 KCAL/MOL
REMARK 924 INTRA-LIGAND FREE ENERGY PREDICTED BY IDOCK:   -0.51 KCAL/MOL
REMARK 927      BINDING AFFINITY PREDICTED BY RF-SCORE:    0.00 PKD
ROOT
HETATM    1  C   UNL     1     -12.189  13.533  70.654  1.00  0.00    -0.358 C  
HETATM    2  N   UNL     1     -11.940  13.024  69.316  1.00  0.00    -0.302 NA 
HETATM    3  C   UNL     1     -11.910  14.024  68.266  1.00  0.00    -0.371 C  
HETATM    4  C   UNL     1     -11.612  13.496  66.879  1.00  0.00    -0.398 C  
HETATM    5  C   UNL     1     -11.534  11.999  66.691  1.00  0.00    -0.346 C  
HETATM    6  N   UNL     1     -11.687  11.176  67.872  1.00  0.00    -0.593 NA 
HETATM    7  H   UNL     1     -11.655  10.162  67.771  1.00  0.00     0.000 HD 
HETATM    8  C   UNL     1     -11.860  11.673  69.041  1.00  0.00    -0.328 C  
ENDROOT
BRANCH   8   9
HETATM    9  C   UNL     1     -12.021  10.651  70.215  1.00  0.00    -0.339 C  
BRANCH   9  10
HETATM   10  O   UNL     1     -11.740   9.278  69.960  1.00  0.00    -0.073 OA 
BRANCH  10  11
HETATM   11  C   UNL     1     -10.777   8.713  70.765  1.00  0.00    -0.216 C  
HETATM   12  C   UNL     1     -10.592   7.205  70.368  1.00  0.00    -0.224 C  
HETATM   13  O   UNL     1     -10.159   9.317  71.635  1.00  0.00    -0.311 OA 
HETATM   14  C   UNL     1     -10.317   6.382  71.649  1.00  0.00    -0.235 A  
HETATM   15  O   UNL     1     -11.817   6.700  69.820  1.00  0.00    -0.640 OA 
HETATM   16  C   UNL     1      -9.465   7.130  69.263  1.00  0.00    -0.152 C  
HETATM   17  C   UNL     1      -9.068   5.708  68.813  1.00  0.00    -0.126 C  
HETATM   18  C   UNL     1     -11.377   5.770  72.353  1.00  0.00    -0.348 A  
HETATM   19  H   UNL     1     -11.706   5.788  69.580  1.00  0.00     0.000 HD 
HETATM   20  C   UNL     1     -10.095   5.039  67.902  1.00  0.00    -0.173 C  
HETATM   21  C   UNL     1     -11.157   5.027  73.519  1.00  0.00    -0.386 A  
HETATM   22  C   UNL     1      -9.867   4.883  74.018  1.00  0.00    -0.179 A  
HETATM   23  C   UNL     1     -10.405   5.879  66.667  1.00  0.00    -0.283 C  
HETATM   24  C   UNL     1     -10.749   7.320  67.005  1.00  0.00    -0.406 C  
HETATM   25  C   UNL     1      -8.805   5.496  73.360  1.00  0.00    -0.116 A  
HETATM   26  C   UNL     1      -9.028   6.246  72.197  1.00  0.00    -0.137 A  
HETATM   27  C   UNL     1      -9.749   7.937  67.973  1.00  0.00    -0.182 C  
ENDBRANCH  10  11
ENDBRANCH   9  10
ENDBRANCH   8   9
TORSDOF 3
ENDMDL
MODEL       35
REMARK 921   NORMALIZED FREE ENERGY PREDICTED BY IDOCK:   -6.17 KCAL/MOL
REMARK 922        TOTAL FREE ENERGY PREDICTED BY IDOCK:   -7.70 KCAL/MOL
REMARK 923 INTER-LIGAND FREE ENERGY PREDICTED BY IDOCK:   -6.88 KCAL/MOL
REMARK 924 INTRA-LIGAND FREE ENERGY PREDICTED BY IDOCK:   -0.83 KCAL/MOL
REMARK 927      BINDING AFFINITY PREDICTED BY RF-SCORE:    0.00 PKD
ROOT
HETATM    1  C   UNL     1     -13.531  10.180  72.056  1.00  0.00    -0.316 C  
HETATM    2  N   UNL     1     -13.018  11.439  71.540  1.00  0.00    -0.440 NA 
HETATM    3  C   UNL     1     -13.619  12.632  72.105  1.00  0.00    -0.413 C  
HETATM    4  C   UNL     1     -13.059  13.941  71.595  1.00  0.00    -0.446 C  
HETATM    5  C   UNL     1     -12.064  13.893  70.458  1.00  0.00    -0.356 C  
HETATM    6  N   UNL     1     -11.670  12.584  69.982  1.00  0.00    -0.514 NA 
HETATM    7  H   UNL     1     -11.013  12.522  69.204  1.00  0.00     0.000 HD 
HETATM    8  C   UNL     1     -12.114  11.499  70.499  1.00  0.00    -0.378 C  
ENDROOT
BRANCH   8   9
HETATM    9  C   UNL     1     -11.602  10.163  69.863  1.00  0.00    -0.223 C  
BRANCH   9  10
HETATM   10  O   UNL     1     -10.306  10.150  69.271  1.00  0.00    -0.195 OA 
BRANCH  10  11
HETATM   11  C   UNL     1     -10.283   9.945  67.910  1.00  0.00    -0.193 C  
HETATM   12  C   UNL     1      -9.346  11.016  67.244  1.00  0.00    -0.156 C  
HETATM   13  O   UNL     1     -10.888   9.049  67.332  1.00  0.00    -0.230 OA 
HETATM   14  C   UNL     1      -9.946  11.425  65.878  1.00  0.00    -0.274 A  
HETATM   15  O   UNL     1      -9.328  12.203  68.049  1.00  0.00    -0.185 OA 
HETATM   16  C   UNL     1      -7.886  10.412  67.185  1.00  0.00    -0.110 C  
HETATM   17  C   UNL     1      -6.834  11.285  66.469  1.00  0.00    -0.101 C  
HETATM   18  C   UNL     1     -10.811  12.536  65.776  1.00  0.00    -0.310 A  
HETATM   19  H   UNL     1      -8.761  12.851  67.646  1.00  0.00     0.000 HD 
HETATM   20  C   UNL     1      -6.371  12.490  67.285  1.00  0.00    -0.126 C  
HETATM   21  C   UNL     1     -11.375  12.922  64.554  1.00  0.00    -0.382 A  
HETATM   22  C   UNL     1     -11.094  12.199  63.400  1.00  0.00    -0.495 A  
HETATM   23  C   UNL     1      -5.830  12.088  68.653  1.00  0.00    -0.053 C  
HETATM   24  C   UNL     1      -6.774  11.173  69.415  1.00  0.00    -0.120 C  
HETATM   25  C   UNL     1     -10.266  11.084  63.474  1.00  0.00    -0.424 A  
HETATM   26  C   UNL     1      -9.708  10.693  64.700  1.00  0.00    -0.360 A  
HETATM   27  C   UNL     1      -7.277  10.021  68.554  1.00  0.00    -0.076 C  
ENDBRANCH  10  11
ENDBRANCH   9  10
ENDBRANCH   8   9
TORSDOF 3
ENDMDL
MODEL       36
REMARK 921   NORMALIZED FREE ENERGY PREDICTED BY IDOCK:   -6.17 KCAL/MOL
REMARK 922        TOTAL FREE ENERGY PREDICTED BY IDOCK:   -7.70 KCAL/MOL
REMARK 923 INTER-LIGAND FREE ENERGY PREDICTED BY IDOCK:   -7.17 KCAL/MOL
REMARK 924 INTRA-LIGAND FREE ENERGY PREDICTED BY IDOCK:   -0.53 KCAL/MOL
REMARK 927      BINDING AFFINITY PREDICTED BY RF-SCORE:    0.00 PKD
ROOT
HETATM    1  C   UNL     1     -11.068  16.359  70.108  1.00  0.00    -0.277 C  
HETATM    2  N   UNL     1     -11.918  15.514  70.930  1.00  0.00    -0.339 NA 
HETATM    3  C   UNL     1     -12.122  15.974  72.291  1.00  0.00    -0.527 C  
HETATM    4  C   UNL     1     -13.037  15.114  73.134  1.00  0.00    -0.625 C  
HETATM    5  C   UNL     1     -13.516  13.804  72.551  1.00  0.00    -0.578 C  
HETATM    6  N   UNL     1     -13.112  13.499  71.195  1.00  0.00    -0.258 NA 
HETATM    7  H   UNL     1     -13.407  12.613  70.784  1.00  0.00     0.000 HD 
HETATM    8  C   UNL     1     -12.398  14.296  70.491  1.00  0.00    -0.360 C  
ENDROOT
BRANCH   8   9
HETATM    9  C   UNL     1     -12.035  13.816  69.047  1.00  0.00    -0.360 C  
BRANCH   9  10
HETATM   10  O   UNL     1     -10.800  13.131  68.853  1.00  0.00    -0.242 OA 
BRANCH  10  11
HETATM   11  C   UNL     1     -10.721  12.371  67.708  1.00  0.00    -0.221 C  
HETATM   12  C   UNL     1      -9.996  11.017  68.037  1.00  0.00    -0.173 C  
HETATM   13  O   UNL     1     -11.172  12.708  66.619  1.00  0.00    -0.273 OA 
HETATM   14  C   UNL     1      -9.120  10.613  66.828  1.00  0.00    -0.167 A  
HETATM   15  O   UNL     1      -9.098  11.210  69.139  1.00  0.00    -0.376 OA 
HETATM   16  C   UNL     1     -11.100   9.965  68.452  1.00  0.00    -0.193 C  
HETATM   17  C   UNL     1     -10.588   8.534  68.720  1.00  0.00    -0.162 C  
HETATM   18  C   UNL     1      -7.762  10.994  66.763  1.00  0.00    -0.146 A  
HETATM   19  H   UNL     1      -8.659  10.391  69.338  1.00  0.00     0.000 HD 
HETATM   20  C   UNL     1      -9.851   8.380  70.048  1.00  0.00    -0.182 C  
HETATM   21  C   UNL     1      -6.950  10.649  65.676  1.00  0.00    -0.078 A  
HETATM   22  C   UNL     1      -7.479   9.919  64.618  1.00  0.00    -0.140 A  
HETATM   23  C   UNL     1     -10.697   8.830  71.234  1.00  0.00    -0.339 C  
HETATM   24  C   UNL     1     -11.300  10.211  71.037  1.00  0.00    -0.385 C  
HETATM   25  C   UNL     1      -8.820   9.551  64.641  1.00  0.00    -0.250 A  
HETATM   26  C   UNL     1      -9.635   9.903  65.727  1.00  0.00    -0.312 A  
HETATM   27  C   UNL     1     -11.964  10.360  69.675  1.00  0.00    -0.207 C  
ENDBRANCH  10  11
ENDBRANCH   9  10
ENDBRANCH   8   9
TORSDOF 3
ENDMDL
MODEL       37
REMARK 921   NORMALIZED FREE ENERGY PREDICTED BY IDOCK:   -6.13 KCAL/MOL
REMARK 922        TOTAL FREE ENERGY PREDICTED BY IDOCK:   -7.65 KCAL/MOL
REMARK 923 INTER-LIGAND FREE ENERGY PREDICTED BY IDOCK:   -7.47 KCAL/MOL
REMARK 924 INTRA-LIGAND FREE ENERGY PREDICTED BY IDOCK:   -0.18 KCAL/MOL
REMARK 927      BINDING AFFINITY PREDICTED BY RF-SCORE:    0.00 PKD
ROOT
HETATM    1  C   UNL     1     -10.118  10.650  67.438  1.00  0.00    -0.194 C  
HETATM    2  N   UNL     1     -10.393  11.025  66.060  1.00  0.00    -0.251 NA 
HETATM    3  C   UNL     1      -9.558  10.383  65.063  1.00  0.00    -0.280 C  
HETATM    4  C   UNL     1      -9.870  10.745  63.628  1.00  0.00    -0.406 C  
HETATM    5  C   UNL     1     -10.888  11.833  63.376  1.00  0.00    -0.388 C  
HETATM    6  N   UNL     1     -11.541  12.408  64.534  1.00  0.00    -0.333 NA 
HETATM    7  H   UNL     1     -12.219  13.156  64.393  1.00  0.00     0.000 HD 
HETATM    8  C   UNL     1     -11.299  12.013  65.728  1.00  0.00    -0.331 C  
ENDROOT
BRANCH   8   9
HETATM    9  C   UNL     1     -12.077  12.743  66.874  1.00  0.00    -0.197 C  
BRANCH   9  10
HETATM   10  O   UNL     1     -12.112  14.167  66.866  1.00  0.00    -0.430 OA 
BRANCH  10  11
HETATM   11  C   UNL     1     -10.921  14.788  67.169  1.00  0.00    -0.320 C  
HETATM   12  C   UNL     1     -11.128  15.719  68.416  1.00  0.00    -0.341 C  
HETATM   13  O   UNL     1      -9.872  14.610  66.560  1.00  0.00    -0.253 OA 
HETATM   14  C   UNL     1     -10.267  16.992  68.237  1.00  0.00    -0.326 A  
HETATM   15  O   UNL     1     -12.492  16.159  68.465  1.00  0.00    -0.059 OA 
HETATM   16  C   UNL     1     -10.815  14.871  69.712  1.00  0.00    -0.255 C  
HETATM   17  C   UNL     1     -10.868  15.646  71.045  1.00  0.00    -0.168 C  
HETATM   18  C   UNL     1     -10.811  18.151  67.640  1.00  0.00    -0.260 A  
HETATM   19  H   UNL     1     -12.618  16.723  69.219  1.00  0.00     0.000 HD 
HETATM   20  C   UNL     1     -12.284  15.965  71.518  1.00  0.00    -0.525 C  
HETATM   21  C   UNL     1     -10.050  19.313  67.458  1.00  0.00    -0.487 A  
HETATM   22  C   UNL     1      -8.720  19.343  67.862  1.00  0.00    -0.359 A  
HETATM   23  C   UNL     1     -13.147  14.714  71.642  1.00  0.00    -0.423 C  
HETATM   24  C   UNL     1     -13.111  13.847  70.394  1.00  0.00     0.041 C  
HETATM   25  C   UNL     1      -8.150  18.209  68.430  1.00  0.00    -0.313 A  
HETATM   26  C   UNL     1      -8.909  17.043  68.604  1.00  0.00    -0.267 A  
HETATM   27  C   UNL     1     -11.690  13.607  69.902  1.00  0.00    -0.346 C  
ENDBRANCH  10  11
ENDBRANCH   9  10
ENDBRANCH   8   9
TORSDOF 3
ENDMDL
MODEL       38
REMARK 921   NORMALIZED FREE ENERGY PREDICTED BY IDOCK:   -6.12 KCAL/MOL
REMARK 922        TOTAL FREE ENERGY PREDICTED BY IDOCK:   -7.65 KCAL/MOL
REMARK 923 INTER-LIGAND FREE ENERGY PREDICTED BY IDOCK:   -7.10 KCAL/MOL
REMARK 924 INTRA-LIGAND FREE ENERGY PREDICTED BY IDOCK:   -0.54 KCAL/MOL
REMARK 927      BINDING AFFINITY PREDICTED BY RF-SCORE:    0.00 PKD
ROOT
HETATM    1  C   UNL     1     -13.133  11.805  71.345  1.00  0.00    -0.223 C  
HETATM    2  N   UNL     1     -12.001  11.166  70.694  1.00  0.00    -0.362 NA 
HETATM    3  C   UNL     1     -11.583   9.904  71.273  1.00  0.00    -0.379 C  
HETATM    4  C   UNL     1     -10.428   9.222  70.572  1.00  0.00    -0.312 C  
HETATM    5  C   UNL     1      -9.730   9.971  69.461  1.00  0.00    -0.233 C  
HETATM    6  N   UNL     1     -10.263  11.270  69.104  1.00  0.00    -0.388 NA 
HETATM    7  H   UNL     1      -9.800  11.804  68.369  1.00  0.00     0.000 HD 
HETATM    8  C   UNL     1     -11.293  11.773  69.676  1.00  0.00    -0.215 C  
ENDROOT
BRANCH   8   9
HETATM    9  C   UNL     1     -11.738  13.192  69.186  1.00  0.00    -0.325 C  
BRANCH   9  10
HETATM   10  O   UNL     1     -10.777  14.244  69.200  1.00  0.00    -0.247 OA 
BRANCH  10  11
HETATM   11  C   UNL     1     -10.898  15.166  68.185  1.00  0.00    -0.266 C  
HETATM   12  C   UNL     1      -9.548  15.956  68.043  1.00  0.00    -0.211 C  
HETATM   13  O   UNL     1     -11.903  15.314  67.499  1.00  0.00    -0.241 OA 
HETATM   14  C   UNL     1      -9.866  17.426  67.681  1.00  0.00    -0.282 A  
HETATM   15  O   UNL     1      -8.877  15.988  69.310  1.00  0.00    -0.248 OA 
HETATM   16  C   UNL     1      -8.643  15.185  67.002  1.00  0.00    -0.265 C  
HETATM   17  C   UNL     1      -7.303  15.867  66.652  1.00  0.00    -0.015 C  
HETATM   18  C   UNL     1     -10.000  18.403  68.692  1.00  0.00    -0.415 A  
HETATM   19  H   UNL     1      -8.060  16.466  69.225  1.00  0.00     0.000 HD 
HETATM   20  C   UNL     1      -6.248  15.754  67.749  1.00  0.00    -0.175 C  
HETATM   21  C   UNL     1     -10.296  19.739  68.392  1.00  0.00    -0.513 A  
HETATM   22  C   UNL     1     -10.474  20.130  67.069  1.00  0.00    -0.435 A  
HETATM   23  C   UNL     1      -5.976  14.305  68.143  1.00  0.00    -0.135 C  
HETATM   24  C   UNL     1      -7.246  13.529  68.448  1.00  0.00    -0.109 C  
HETATM   25  C   UNL     1     -10.373  19.185  66.054  1.00  0.00    -0.538 A  
HETATM   26  C   UNL     1     -10.084  17.846  66.356  1.00  0.00    -0.369 A  
HETATM   27  C   UNL     1      -8.308  13.720  67.373  1.00  0.00    -0.201 C  
ENDBRANCH  10  11
ENDBRANCH   9  10
ENDBRANCH   8   9
TORSDOF 3
ENDMDL
MODEL       39
REMARK 921   NORMALIZED FREE ENERGY PREDICTED BY IDOCK:   -6.11 KCAL/MOL
REMARK 922        TOTAL FREE ENERGY PREDICTED BY IDOCK:   -7.63 KCAL/MOL
REMARK 923 INTER-LIGAND FREE ENERGY PREDICTED BY IDOCK:   -6.81 KCAL/MOL
REMARK 924 INTRA-LIGAND FREE ENERGY PREDICTED BY IDOCK:   -0.81 KCAL/MOL
REMARK 927      BINDING AFFINITY PREDICTED BY RF-SCORE:    0.00 PKD
ROOT
HETATM    1  C   UNL     1     -10.579   7.883  71.219  1.00  0.00    -0.211 C  
HETATM    2  N   UNL     1     -11.224   9.184  71.152  1.00  0.00    -0.296 NA 
HETATM    3  C   UNL     1     -12.479   9.293  71.871  1.00  0.00    -0.382 C  
HETATM    4  C   UNL     1     -13.130  10.658  71.832  1.00  0.00    -0.563 C  
HETATM    5  C   UNL     1     -12.515  11.712  70.940  1.00  0.00    -0.341 C  
HETATM    6  N   UNL     1     -11.303  11.354  70.234  1.00  0.00    -0.498 NA 
HETATM    7  H   UNL     1     -10.877  12.041  69.612  1.00  0.00     0.000 HD 
HETATM    8  C   UNL     1     -10.745  10.208  70.360  1.00  0.00    -0.266 C  
ENDROOT
BRANCH   8   9
HETATM    9  C   UNL     1      -9.445   9.970  69.520  1.00  0.00    -0.226 C  
BRANCH   9  10
HETATM   10  O   UNL     1      -8.722  11.107  69.056  1.00  0.00    -0.124 OA 
BRANCH  10  11
HETATM   11  C   UNL     1      -8.980  11.479  67.756  1.00  0.00    -0.160 C  
HETATM   12  C   UNL     1      -9.150  13.038  67.690  1.00  0.00    -0.198 C  
HETATM   13  O   UNL     1      -9.041  10.700  66.811  1.00  0.00    -0.150 OA 
HETATM   14  C   UNL     1     -10.242  13.378  66.648  1.00  0.00    -0.274 A  
HETATM   15  O   UNL     1      -9.631  13.522  68.952  1.00  0.00    -0.408 OA 
HETATM   16  C   UNL     1      -7.729  13.669  67.406  1.00  0.00    -0.156 C  
HETATM   17  C   UNL     1      -7.707  15.199  67.207  1.00  0.00    -0.241 C  
HETATM   18  C   UNL     1     -11.589  13.535  67.044  1.00  0.00    -0.394 A  
HETATM   19  H   UNL     1      -9.734  14.466  68.912  1.00  0.00     0.000 HD 
HETATM   20  C   UNL     1      -7.871  15.993  68.501  1.00  0.00    -0.160 C  
HETATM   21  C   UNL     1     -12.599  13.834  66.120  1.00  0.00    -0.423 A  
HETATM   22  C   UNL     1     -12.288  13.976  64.772  1.00  0.00    -0.437 A  
HETATM   23  C   UNL     1      -6.825  15.617  69.546  1.00  0.00    -0.189 C  
HETATM   24  C   UNL     1      -6.728  14.117  69.768  1.00  0.00    -0.065 C  
HETATM   25  C   UNL     1     -10.974  13.802  64.350  1.00  0.00    -0.356 A  
HETATM   26  C   UNL     1      -9.965  13.495  65.274  1.00  0.00    -0.206 A  
HETATM   27  C   UNL     1      -6.640  13.346  68.458  1.00  0.00    -0.089 C  
ENDBRANCH  10  11
ENDBRANCH   9  10
ENDBRANCH   8   9
TORSDOF 3
ENDMDL
MODEL       40
REMARK 921   NORMALIZED FREE ENERGY PREDICTED BY IDOCK:   -6.07 KCAL/MOL
REMARK 922        TOTAL FREE ENERGY PREDICTED BY IDOCK:   -7.58 KCAL/MOL
REMARK 923 INTER-LIGAND FREE ENERGY PREDICTED BY IDOCK:   -7.03 KCAL/MOL
REMARK 924 INTRA-LIGAND FREE ENERGY PREDICTED BY IDOCK:   -0.56 KCAL/MOL
REMARK 927      BINDING AFFINITY PREDICTED BY RF-SCORE:    0.00 PKD
ROOT
HETATM    1  C   UNL     1      -6.441  18.121  66.890  1.00  0.00    -0.179 C  
HETATM    2  N   UNL     1      -7.775  18.700  66.868  1.00  0.00    -0.225 NA 
HETATM    3  C   UNL     1      -7.860  20.083  67.294  1.00  0.00    -0.298 C  
HETATM    4  C   UNL     1      -9.242  20.694  67.235  1.00  0.00    -0.444 C  
HETATM    5  C   UNL     1     -10.405  19.790  66.899  1.00  0.00    -0.476 C  
HETATM    6  N   UNL     1     -10.099  18.408  66.594  1.00  0.00    -0.358 NA 
HETATM    7  H   UNL     1     -10.866  17.771  66.380  1.00  0.00     0.000 HD 
HETATM    8  C   UNL     1      -8.901  17.953  66.581  1.00  0.00    -0.268 C  
ENDROOT
BRANCH   8   9
HETATM    9  C   UNL     1      -8.736  16.433  66.244  1.00  0.00    -0.334 C  
BRANCH   9  10
HETATM   10  O   UNL     1      -8.966  15.483  67.281  1.00  0.00    -0.188 OA 
BRANCH  10  11
HETATM   11  C   UNL     1      -9.663  14.357  66.904  1.00  0.00    -0.262 C  
HETATM   12  C   UNL     1     -10.229  13.650  68.186  1.00  0.00    -0.247 C  
HETATM   13  O   UNL     1      -9.823  13.996  65.744  1.00  0.00    -0.301 OA 
HETATM   14  C   UNL     1     -10.171  12.118  67.978  1.00  0.00    -0.203 A  
HETATM   15  O   UNL     1      -9.381  13.937  69.307  1.00  0.00    -0.364 OA 
HETATM   16  C   UNL     1     -11.670  14.237  68.468  1.00  0.00    -0.376 C  
HETATM   17  C   UNL     1     -12.435  13.589  69.641  1.00  0.00    -0.107 C  
HETATM   18  C   UNL     1      -9.051  11.375  68.412  1.00  0.00    -0.179 A  
HETATM   19  H   UNL     1      -9.724  13.509  70.083  1.00  0.00     0.000 HD 
HETATM   20  C   UNL     1     -11.925  14.008  71.018  1.00  0.00    -0.313 C  
HETATM   21  C   UNL     1      -8.968   9.989  68.227  1.00  0.00    -0.119 A  
HETATM   22  C   UNL     1     -10.004   9.310  67.595  1.00  0.00    -0.245 A  
HETATM   23  C   UNL     1     -11.933  15.522  71.201  1.00  0.00    -0.432 C  
HETATM   24  C   UNL     1     -11.253  16.257  70.058  1.00  0.00    -0.324 C  
HETATM   25  C   UNL     1     -11.109  10.018  67.135  1.00  0.00    -0.065 A  
HETATM   26  C   UNL     1     -11.187  11.407  67.313  1.00  0.00    -0.370 A  
HETATM   27  C   UNL     1     -11.726  15.767  68.696  1.00  0.00    -0.353 C  
ENDBRANCH  10  11
ENDBRANCH   9  10
ENDBRANCH   8   9
TORSDOF 3
ENDMDL
MODEL       41
REMARK 921   NORMALIZED FREE ENERGY PREDICTED BY IDOCK:   -6.04 KCAL/MOL
REMARK 922        TOTAL FREE ENERGY PREDICTED BY IDOCK:   -7.55 KCAL/MOL
REMARK 923 INTER-LIGAND FREE ENERGY PREDICTED BY IDOCK:   -7.28 KCAL/MOL
REMARK 924 INTRA-LIGAND FREE ENERGY PREDICTED BY IDOCK:   -0.27 KCAL/MOL
REMARK 927      BINDING AFFINITY PREDICTED BY RF-SCORE:    0.00 PKD
ROOT
HETATM    1  C   UNL     1      -9.425  20.180  66.551  1.00  0.00    -0.374 C  
HETATM    2  N   UNL     1      -8.318  19.909  67.455  1.00  0.00    -0.311 NA 
HETATM    3  C   UNL     1      -7.319  20.957  67.545  1.00  0.00    -0.281 C  
HETATM    4  C   UNL     1      -6.189  20.690  68.513  1.00  0.00    -0.355 C  
HETATM    5  C   UNL     1      -6.116  19.328  69.162  1.00  0.00    -0.258 C  
HETATM    6  N   UNL     1      -7.179  18.394  68.856  1.00  0.00    -0.284 NA 
HETATM    7  H   UNL     1      -7.146  17.461  69.267  1.00  0.00     0.000 HD 
HETATM    8  C   UNL     1      -8.160  18.693  68.088  1.00  0.00    -0.294 C  
ENDROOT
BRANCH   8   9
HETATM    9  C   UNL     1      -9.223  17.569  67.845  1.00  0.00    -0.265 C  
BRANCH   9  10
HETATM   10  O   UNL     1      -8.796  16.211  67.902  1.00  0.00    -0.180 OA 
BRANCH  10  11
HETATM   11  C   UNL     1      -9.340  15.382  66.948  1.00  0.00    -0.236 C  
HETATM   12  C   UNL     1      -9.959  14.122  67.653  1.00  0.00    -0.233 C  
HETATM   13  O   UNL     1      -9.348  15.619  65.746  1.00  0.00    -0.332 OA 
HETATM   14  C   UNL     1      -9.731  12.884  66.754  1.00  0.00    -0.246 A  
HETATM   15  O   UNL     1      -9.258  13.866  68.878  1.00  0.00    -0.384 OA 
HETATM   16  C   UNL     1     -11.470  14.446  67.984  1.00  0.00    -0.336 C  
HETATM   17  C   UNL     1     -12.281  13.285  68.596  1.00  0.00    -0.115 C  
HETATM   18  C   UNL     1      -8.593  12.067  66.928  1.00  0.00    -0.189 A  
HETATM   19  H   UNL     1      -9.632  13.103  69.305  1.00  0.00     0.000 HD 
HETATM   20  C   UNL     1     -11.954  13.006  70.061  1.00  0.00    -0.383 C  
HETATM   21  C   UNL     1      -8.358  10.947  66.122  1.00  0.00    -0.168 A  
HETATM   22  C   UNL     1      -9.255  10.618  65.112  1.00  0.00    -0.241 A  
HETATM   23  C   UNL     1     -12.127  14.243  70.937  1.00  0.00    -0.417 C  
HETATM   24  C   UNL     1     -11.411  15.463  70.381  1.00  0.00    -0.355 C  
HETATM   25  C   UNL     1     -10.373  11.418  64.899  1.00  0.00    -0.347 A  
HETATM   26  C   UNL     1     -10.602  12.545  65.702  1.00  0.00    -0.298 A  
HETATM   27  C   UNL     1     -11.698  15.673  68.900  1.00  0.00    -0.396 C  
ENDBRANCH  10  11
ENDBRANCH   9  10
ENDBRANCH   8   9
TORSDOF 3
ENDMDL
MODEL       42
REMARK 921   NORMALIZED FREE ENERGY PREDICTED BY IDOCK:   -6.02 KCAL/MOL
REMARK 922        TOTAL FREE ENERGY PREDICTED BY IDOCK:   -7.53 KCAL/MOL
REMARK 923 INTER-LIGAND FREE ENERGY PREDICTED BY IDOCK:   -7.12 KCAL/MOL
REMARK 924 INTRA-LIGAND FREE ENERGY PREDICTED BY IDOCK:   -0.41 KCAL/MOL
REMARK 927      BINDING AFFINITY PREDICTED BY RF-SCORE:    0.00 PKD
ROOT
HETATM    1  C   UNL     1      -9.782   9.615  65.544  1.00  0.00    -0.301 C  
HETATM    2  N   UNL     1     -10.143   9.078  66.847  1.00  0.00    -0.244 NA 
HETATM    3  C   UNL     1     -10.296   7.637  66.904  1.00  0.00    -0.318 C  
HETATM    4  C   UNL     1     -10.635   7.077  68.268  1.00  0.00    -0.238 C  
HETATM    5  C   UNL     1     -10.934   8.053  69.382  1.00  0.00    -0.009 C  
HETATM    6  N   UNL     1     -10.809   9.463  69.075  1.00  0.00    -0.369 NA 
HETATM    7  H   UNL     1     -11.022  10.143  69.804  1.00  0.00     0.000 HD 
HETATM    8  C   UNL     1     -10.443   9.888  67.924  1.00  0.00    -0.236 C  
ENDROOT
BRANCH   8   9
HETATM    9  C   UNL     1     -10.369  11.442  67.746  1.00  0.00    -0.182 C  
BRANCH   9  10
HETATM   10  O   UNL     1     -10.217  12.249  68.911  1.00  0.00    -0.148 OA 
BRANCH  10  11
HETATM   11  C   UNL     1     -11.379  12.800  69.401  1.00  0.00    -0.202 C  
HETATM   12  C   UNL     1     -11.189  14.350  69.557  1.00  0.00    -0.254 C  
HETATM   13  O   UNL     1     -12.398  12.164  69.649  1.00  0.00    -0.149 OA 
HETATM   14  C   UNL     1     -11.947  14.822  70.820  1.00  0.00    -0.371 A  
HETATM   15  O   UNL     1      -9.803  14.642  69.786  1.00  0.00    -0.422 OA 
HETATM   16  C   UNL     1     -11.641  15.033  68.205  1.00  0.00    -0.355 C  
HETATM   17  C   UNL     1     -11.619  16.576  68.198  1.00  0.00     0.098 C  
HETATM   18  C   UNL     1     -11.289  14.904  72.067  1.00  0.00    -0.093 A  
HETATM   19  H   UNL     1      -9.687  15.581  69.881  1.00  0.00     0.000 HD 
HETATM   20  C   UNL     1     -10.217  17.174  68.106  1.00  0.00    -0.332 C  
HETATM   21  C   UNL     1     -11.955  15.319  73.227  1.00  0.00    -0.535 A  
HETATM   22  C   UNL     1     -13.302  15.657  73.171  1.00  0.00    -0.660 A  
HETATM   23  C   UNL     1      -9.451  16.665  66.889  1.00  0.00    -0.248 C  
HETATM   24  C   UNL     1      -9.468  15.150  66.773  1.00  0.00    -0.260 C  
HETATM   25  C   UNL     1     -13.984  15.561  71.963  1.00  0.00    -0.599 A  
HETATM   26  C   UNL     1     -13.319  15.138  70.803  1.00  0.00    -0.389 A  
HETATM   27  C   UNL     1     -10.868  14.576  66.944  1.00  0.00    -0.305 C  
ENDBRANCH  10  11
ENDBRANCH   9  10
ENDBRANCH   8   9
TORSDOF 3
ENDMDL
MODEL       43
REMARK 921   NORMALIZED FREE ENERGY PREDICTED BY IDOCK:   -6.01 KCAL/MOL
REMARK 922        TOTAL FREE ENERGY PREDICTED BY IDOCK:   -7.52 KCAL/MOL
REMARK 923 INTER-LIGAND FREE ENERGY PREDICTED BY IDOCK:   -6.92 KCAL/MOL
REMARK 924 INTRA-LIGAND FREE ENERGY PREDICTED BY IDOCK:   -0.59 KCAL/MOL
REMARK 927      BINDING AFFINITY PREDICTED BY RF-SCORE:    0.00 PKD
ROOT
HETATM    1  C   UNL     1      -7.416   7.954  68.593  1.00  0.00    -0.099 C  
HETATM    2  N   UNL     1      -8.732   7.385  68.841  1.00  0.00    -0.132 NA 
HETATM    3  C   UNL     1      -8.798   6.420  69.921  1.00  0.00    -0.142 C  
HETATM    4  C   UNL     1     -10.174   5.857  70.202  1.00  0.00    -0.281 C  
HETATM    5  C   UNL     1     -11.295   6.220  69.256  1.00  0.00    -0.341 C  
HETATM    6  N   UNL     1     -10.982   7.137  68.181  1.00  0.00    -0.471 NA 
HETATM    7  H   UNL     1     -11.716   7.385  67.518  1.00  0.00     0.000 HD 
HETATM    8  C   UNL     1      -9.817   7.649  68.029  1.00  0.00    -0.161 C  
ENDROOT
BRANCH   8   9
HETATM    9  C   UNL     1      -9.634   8.614  66.810  1.00  0.00    -0.207 C  
BRANCH   9  10
HETATM   10  O   UNL     1     -10.604   9.636  66.605  1.00  0.00    -0.189 OA 
BRANCH  10  11
HETATM   11  C   UNL     1     -10.096  10.887  66.336  1.00  0.00    -0.231 C  
HETATM   12  C   UNL     1     -10.946  11.964  67.098  1.00  0.00    -0.269 C  
HETATM   13  O   UNL     1      -9.118  11.100  65.627  1.00  0.00    -0.205 OA 
HETATM   14  C   UNL     1     -11.060  13.229  66.214  1.00  0.00    -0.306 A  
HETATM   15  O   UNL     1     -12.284  11.478  67.280  1.00  0.00    -0.335 OA 
HETATM   16  C   UNL     1     -10.284  12.190  68.515  1.00  0.00    -0.214 C  
HETATM   17  C   UNL     1     -10.926  13.295  69.381  1.00  0.00    -0.067 C  
HETATM   18  C   UNL     1     -12.155  13.399  65.338  1.00  0.00    -0.457 A  
HETATM   19  H   UNL     1     -12.799  12.130  67.741  1.00  0.00     0.000 HD 
HETATM   20  C   UNL     1     -12.264  12.896  69.999  1.00  0.00    -0.292 C  
HETATM   21  C   UNL     1     -12.276  14.529  64.520  1.00  0.00    -0.483 A  
HETATM   22  C   UNL     1     -11.299  15.517  64.551  1.00  0.00    -0.322 A  
HETATM   23  C   UNL     1     -12.161  11.619  70.826  1.00  0.00    -0.443 C  
HETATM   24  C   UNL     1     -11.483  10.484  70.077  1.00  0.00    -0.393 C  
HETATM   25  C   UNL     1     -10.196  15.366  65.385  1.00  0.00    -0.408 A  
HETATM   26  C   UNL     1     -10.071  14.230  66.198  1.00  0.00    -0.325 A  
HETATM   27  C   UNL     1     -10.189  10.929  69.409  1.00  0.00    -0.151 C  
ENDBRANCH  10  11
ENDBRANCH   9  10
ENDBRANCH   8   9
TORSDOF 3
ENDMDL
MODEL       44
REMARK 921   NORMALIZED FREE ENERGY PREDICTED BY IDOCK:   -6.01 KCAL/MOL
REMARK 922        TOTAL FREE ENERGY PREDICTED BY IDOCK:   -7.52 KCAL/MOL
REMARK 923 INTER-LIGAND FREE ENERGY PREDICTED BY IDOCK:   -6.87 KCAL/MOL
REMARK 924 INTRA-LIGAND FREE ENERGY PREDICTED BY IDOCK:   -0.65 KCAL/MOL
REMARK 927      BINDING AFFINITY PREDICTED BY RF-SCORE:    0.00 PKD
ROOT
HETATM    1  C   UNL     1      -5.559  17.720  70.225  1.00  0.00    -0.239 C  
HETATM    2  N   UNL     1      -6.234  18.593  69.278  1.00  0.00    -0.252 NA 
HETATM    3  C   UNL     1      -5.744  19.958  69.234  1.00  0.00    -0.248 C  
HETATM    4  C   UNL     1      -6.422  20.855  68.222  1.00  0.00    -0.260 C  
HETATM    5  C   UNL     1      -7.621  20.311  67.481  1.00  0.00    -0.306 C  
HETATM    6  N   UNL     1      -7.996  18.938  67.751  1.00  0.00    -0.248 NA 
HETATM    7  H   UNL     1      -8.812  18.551  67.277  1.00  0.00     0.000 HD 
HETATM    8  C   UNL     1      -7.343  18.191  68.560  1.00  0.00    -0.278 C  
ENDROOT
BRANCH   8   9
HETATM    9  C   UNL     1      -7.881  16.734  68.754  1.00  0.00    -0.243 C  
BRANCH   9  10
HETATM   10  O   UNL     1      -9.220  16.564  69.212  1.00  0.00    -0.227 OA 
BRANCH  10  11
HETATM   11  C   UNL     1     -10.128  16.183  68.250  1.00  0.00    -0.232 C  
HETATM   12  C   UNL     1     -10.883  14.895  68.735  1.00  0.00    -0.252 C  
HETATM   13  O   UNL     1     -10.316  16.784  67.197  1.00  0.00    -0.292 OA 
HETATM   14  C   UNL     1     -11.147  13.982  67.514  1.00  0.00    -0.313 A  
HETATM   15  O   UNL     1     -10.037  14.149  69.621  1.00  0.00    -0.395 OA 
HETATM   16  C   UNL     1     -12.173  15.357  69.522  1.00  0.00    -0.277 C  
HETATM   17  C   UNL     1     -13.105  14.222  69.997  1.00  0.00     0.295 C  
HETATM   18  C   UNL     1     -10.231  12.966  67.164  1.00  0.00    -0.239 A  
HETATM   19  H   UNL     1     -10.494  13.369  69.915  1.00  0.00     0.000 HD 
HETATM   20  C   UNL     1     -12.571  13.446  71.199  1.00  0.00    -0.430 C  
HETATM   21  C   UNL     1     -10.442  12.132  66.058  1.00  0.00    -0.281 A  
HETATM   22  C   UNL     1     -11.574  12.298  65.269  1.00  0.00    -0.405 A  
HETATM   23  C   UNL     1     -12.260  14.355  72.383  1.00  0.00    -0.172 C  
HETATM   24  C   UNL     1     -11.393  15.544  72.001  1.00  0.00    -0.445 C  
HETATM   25  C   UNL     1     -12.481  13.307  65.574  1.00  0.00    -0.531 A  
HETATM   26  C   UNL     1     -12.266  14.147  66.676  1.00  0.00    -0.450 A  
HETATM   27  C   UNL     1     -11.908  16.254  70.756  1.00  0.00    -0.148 C  
ENDBRANCH  10  11
ENDBRANCH   9  10
ENDBRANCH   8   9
TORSDOF 3
ENDMDL
MODEL       45
REMARK 921   NORMALIZED FREE ENERGY PREDICTED BY IDOCK:   -5.96 KCAL/MOL
REMARK 922        TOTAL FREE ENERGY PREDICTED BY IDOCK:   -7.45 KCAL/MOL
REMARK 923 INTER-LIGAND FREE ENERGY PREDICTED BY IDOCK:   -6.73 KCAL/MOL
REMARK 924 INTRA-LIGAND FREE ENERGY PREDICTED BY IDOCK:   -0.71 KCAL/MOL
REMARK 927      BINDING AFFINITY PREDICTED BY RF-SCORE:    0.00 PKD
ROOT
HETATM    1  C   UNL     1      -7.128   8.707  65.327  1.00  0.00    -0.082 C  
HETATM    2  N   UNL     1      -8.198   8.627  66.309  1.00  0.00    -0.112 NA 
HETATM    3  C   UNL     1      -8.996   7.417  66.261  1.00  0.00    -0.162 C  
HETATM    4  C   UNL     1     -10.084   7.319  67.307  1.00  0.00    -0.291 C  
HETATM    5  C   UNL     1     -10.340   8.525  68.182  1.00  0.00    -0.206 C  
HETATM    6  N   UNL     1      -9.474   9.670  67.995  1.00  0.00    -0.132 NA 
HETATM    7  H   UNL     1      -9.636  10.504  68.559  1.00  0.00     0.000 HD 
HETATM    8  C   UNL     1      -8.514   9.678  67.147  1.00  0.00    -0.131 C  
ENDROOT
BRANCH   8   9
HETATM    9  C   UNL     1      -7.676  10.998  67.055  1.00  0.00    -0.134 C  
BRANCH   9  10
HETATM   10  O   UNL     1      -8.281  12.141  66.458  1.00  0.00    -0.081 OA 
BRANCH  10  11
HETATM   11  C   UNL     1      -9.058  12.904  67.300  1.00  0.00    -0.208 C  
HETATM   12  C   UNL     1     -10.041  13.779  66.443  1.00  0.00    -0.295 C  
HETATM   13  O   UNL     1      -8.991  12.874  68.524  1.00  0.00    -0.152 OA 
HETATM   14  C   UNL     1     -10.213  15.155  67.129  1.00  0.00    -0.247 A  
HETATM   15  O   UNL     1      -9.456  14.039  65.159  1.00  0.00    -0.484 OA 
HETATM   16  C   UNL     1     -11.374  12.954  66.243  1.00  0.00    -0.364 C  
HETATM   17  C   UNL     1     -12.509  13.692  65.502  1.00  0.00    -0.544 C  
HETATM   18  C   UNL     1      -9.388  16.245  66.773  1.00  0.00    -0.258 A  
HETATM   19  H   UNL     1     -10.051  14.568  64.640  1.00  0.00     0.000 HD 
HETATM   20  C   UNL     1     -12.286  13.818  63.997  1.00  0.00    -0.429 C  
HETATM   21  C   UNL     1      -9.517  17.497  67.386  1.00  0.00    -0.255 A  
HETATM   22  C   UNL     1     -10.472  17.691  68.378  1.00  0.00    -0.360 A  
HETATM   23  C   UNL     1     -12.062  12.464  63.331  1.00  0.00    -0.620 C  
HETATM   24  C   UNL     1     -10.999  11.632  64.030  1.00  0.00    -0.456 C  
HETATM   25  C   UNL     1     -11.282  16.629  68.767  1.00  0.00    -0.217 A  
HETATM   26  C   UNL     1     -11.146  15.372  68.160  1.00  0.00    -0.309 A  
HETATM   27  C   UNL     1     -11.205  11.586  65.538  1.00  0.00    -0.204 C  
ENDBRANCH  10  11
ENDBRANCH   9  10
ENDBRANCH   8   9
TORSDOF 3
ENDMDL
MODEL       46
REMARK 921   NORMALIZED FREE ENERGY PREDICTED BY IDOCK:   -5.95 KCAL/MOL
REMARK 922        TOTAL FREE ENERGY PREDICTED BY IDOCK:   -7.44 KCAL/MOL
REMARK 923 INTER-LIGAND FREE ENERGY PREDICTED BY IDOCK:   -6.73 KCAL/MOL
REMARK 924 INTRA-LIGAND FREE ENERGY PREDICTED BY IDOCK:   -0.71 KCAL/MOL
REMARK 927      BINDING AFFINITY PREDICTED BY RF-SCORE:    0.00 PKD
ROOT
HETATM    1  C   UNL     1      -8.381   8.155  67.232  1.00  0.00    -0.121 C  
HETATM    2  N   UNL     1      -8.141   8.663  65.891  1.00  0.00    -0.107 NA 
HETATM    3  C   UNL     1      -8.199   7.673  64.832  1.00  0.00    -0.095 C  
HETATM    4  C   UNL     1      -7.986   8.210  63.434  1.00  0.00    -0.147 C  
HETATM    5  C   UNL     1      -7.585   9.659  63.283  1.00  0.00    -0.119 C  
HETATM    6  N   UNL     1      -7.496  10.448  64.493  1.00  0.00    -0.314 NA 
HETATM    7  H   UNL     1      -7.210  11.425  64.421  1.00  0.00     0.000 HD 
HETATM    8  C   UNL     1      -7.761   9.969  65.651  1.00  0.00    -0.136 C  
ENDROOT
BRANCH   8   9
HETATM    9  C   UNL     1      -7.606  10.947  66.863  1.00  0.00    -0.128 C  
BRANCH   9  10
HETATM   10  O   UNL     1      -8.292  12.195  66.817  1.00  0.00    -0.175 OA 
BRANCH  10  11
HETATM   11  C   UNL     1      -9.308  12.343  67.733  1.00  0.00    -0.196 C  
HETATM   12  C   UNL     1     -10.360  13.366  67.174  1.00  0.00    -0.246 C  
HETATM   13  O   UNL     1      -9.372  11.745  68.801  1.00  0.00    -0.130 OA 
HETATM   14  C   UNL     1     -10.911  14.209  68.349  1.00  0.00    -0.270 A  
HETATM   15  O   UNL     1      -9.709  14.287  66.287  1.00  0.00    -0.284 OA 
HETATM   16  C   UNL     1     -11.444  12.551  66.362  1.00  0.00    -0.418 C  
HETATM   17  C   UNL     1     -12.626  13.379  65.814  1.00  0.00    -0.455 C  
HETATM   18  C   UNL     1     -10.317  15.444  68.690  1.00  0.00    -0.234 A  
HETATM   19  H   UNL     1     -10.346  14.906  65.949  1.00  0.00     0.000 HD 
HETATM   20  C   UNL     1     -12.270  14.236  64.601  1.00  0.00    -0.470 C  
HETATM   21  C   UNL     1     -10.790  16.221  69.754  1.00  0.00    -0.356 A  
HETATM   22  C   UNL     1     -11.868  15.778  70.512  1.00  0.00    -0.402 A  
HETATM   23  C   UNL     1     -11.677  13.410  63.464  1.00  0.00    -0.301 C  
HETATM   24  C   UNL     1     -10.540  12.511  63.920  1.00  0.00    -0.472 C  
HETATM   25  C   UNL     1     -12.458  14.554  70.216  1.00  0.00    -0.405 A  
HETATM   26  C   UNL     1     -11.978  13.772  69.155  1.00  0.00    -0.403 A  
HETATM   27  C   UNL     1     -10.897  11.724  65.174  1.00  0.00    -0.351 C  
ENDBRANCH  10  11
ENDBRANCH   9  10
ENDBRANCH   8   9
TORSDOF 3
ENDMDL
MODEL       47
REMARK 921   NORMALIZED FREE ENERGY PREDICTED BY IDOCK:   -5.94 KCAL/MOL
REMARK 922        TOTAL FREE ENERGY PREDICTED BY IDOCK:   -7.43 KCAL/MOL
REMARK 923 INTER-LIGAND FREE ENERGY PREDICTED BY IDOCK:   -7.20 KCAL/MOL
REMARK 924 INTRA-LIGAND FREE ENERGY PREDICTED BY IDOCK:   -0.24 KCAL/MOL
REMARK 927      BINDING AFFINITY PREDICTED BY RF-SCORE:    0.00 PKD
ROOT
HETATM    1  C   UNL     1      -8.927  10.903  64.770  1.00  0.00    -0.140 C  
HETATM    2  N   UNL     1     -10.161  11.671  64.732  1.00  0.00    -0.262 NA 
HETATM    3  C   UNL     1     -11.050  11.364  63.628  1.00  0.00    -0.325 C  
HETATM    4  C   UNL     1     -12.350  12.137  63.611  1.00  0.00    -0.673 C  
HETATM    5  C   UNL     1     -12.532  13.243  64.624  1.00  0.00    -0.349 C  
HETATM    6  N   UNL     1     -11.467  13.439  65.585  1.00  0.00    -0.311 NA 
HETATM    7  H   UNL     1     -11.556  14.190  66.269  1.00  0.00     0.000 HD 
HETATM    8  C   UNL     1     -10.416  12.706  65.609  1.00  0.00    -0.275 C  
ENDROOT
BRANCH   8   9
HETATM    9  C   UNL     1      -9.350  13.053  66.701  1.00  0.00    -0.241 C  
BRANCH   9  10
HETATM   10  O   UNL     1      -9.535  14.234  67.476  1.00  0.00    -0.201 OA 
BRANCH  10  11
HETATM   11  C   UNL     1      -9.250  15.415  66.828  1.00  0.00    -0.249 C  
HETATM   12  C   UNL     1      -8.432  16.347  67.792  1.00  0.00    -0.167 C  
HETATM   13  O   UNL     1      -9.575  15.669  65.674  1.00  0.00    -0.333 OA 
HETATM   14  C   UNL     1      -8.864  17.813  67.555  1.00  0.00    -0.243 A  
HETATM   15  O   UNL     1      -8.767  16.042  69.152  1.00  0.00    -0.236 OA 
HETATM   16  C   UNL     1      -6.896  16.051  67.562  1.00  0.00    -0.205 C  
HETATM   17  C   UNL     1      -5.921  16.947  68.355  1.00  0.00    -0.134 C  
HETATM   18  C   UNL     1      -9.892  18.395  68.330  1.00  0.00    -0.383 A  
HETATM   19  H   UNL     1      -8.272  16.606  69.736  1.00  0.00     0.000 HD 
HETATM   20  C   UNL     1      -5.831  16.600  69.839  1.00  0.00    -0.217 C  
HETATM   21  C   UNL     1     -10.308  19.717  68.129  1.00  0.00    -0.561 A  
HETATM   22  C   UNL     1      -9.712  20.491  67.141  1.00  0.00    -0.581 A  
HETATM   23  C   UNL     1      -5.458  15.139  70.070  1.00  0.00    -0.118 C  
HETATM   24  C   UNL     1      -6.327  14.177  69.279  1.00  0.00    -0.112 C  
HETATM   25  C   UNL     1      -8.714  19.937  66.344  1.00  0.00    -0.397 A  
HETATM   26  C   UNL     1      -8.303  18.611  66.540  1.00  0.00    -0.304 A  
HETATM   27  C   UNL     1      -6.459  14.589  67.819  1.00  0.00    -0.181 C  
ENDBRANCH  10  11
ENDBRANCH   9  10
ENDBRANCH   8   9
TORSDOF 3
ENDMDL
MODEL       48
REMARK 921   NORMALIZED FREE ENERGY PREDICTED BY IDOCK:   -5.91 KCAL/MOL
REMARK 922        TOTAL FREE ENERGY PREDICTED BY IDOCK:   -7.40 KCAL/MOL
REMARK 923 INTER-LIGAND FREE ENERGY PREDICTED BY IDOCK:   -6.22 KCAL/MOL
REMARK 924 INTRA-LIGAND FREE ENERGY PREDICTED BY IDOCK:   -1.18 KCAL/MOL
REMARK 927      BINDING AFFINITY PREDICTED BY RF-SCORE:    0.00 PKD
ROOT
HETATM    1  C   UNL     1     -11.192  15.149  65.922  1.00  0.00    -0.280 C  
HETATM    2  N   UNL     1     -10.117  15.060  66.898  1.00  0.00    -0.245 NA 
HETATM    3  C   UNL     1      -8.793  15.370  66.394  1.00  0.00    -0.305 C  
HETATM    4  C   UNL     1      -7.682  15.313  67.419  1.00  0.00    -0.225 C  
HETATM    5  C   UNL     1      -8.015  14.798  68.799  1.00  0.00    -0.152 C  
HETATM    6  N   UNL     1      -9.398  14.454  69.060  1.00  0.00    -0.390 NA 
HETATM    7  H   UNL     1      -9.647  14.087  69.978  1.00  0.00     0.000 HD 
HETATM    8  C   UNL     1     -10.320  14.593  68.181  1.00  0.00    -0.230 C  
ENDROOT
BRANCH   8   9
HETATM    9  C   UNL     1     -11.763  14.165  68.612  1.00  0.00    -0.350 C  
BRANCH   9  10
HETATM   10  O   UNL     1     -12.003  12.790  68.899  1.00  0.00    -0.300 OA 
BRANCH  10  11
HETATM   11  C   UNL     1     -11.670  11.912  67.893  1.00  0.00    -0.298 C  
HETATM   12  C   UNL     1     -10.647  10.857  68.447  1.00  0.00    -0.194 C  
HETATM   13  O   UNL     1     -12.129  11.952  66.757  1.00  0.00    -0.593 OA 
HETATM   14  C   UNL     1      -9.631  10.513  67.333  1.00  0.00    -0.181 A  
HETATM   15  O   UNL     1      -9.891  11.439  69.518  1.00  0.00    -0.386 OA 
HETATM   16  C   UNL     1     -11.472   9.631  69.008  1.00  0.00     0.158 C  
HETATM   17  C   UNL     1     -10.632   8.438  69.512  1.00  0.00    -0.217 C  
HETATM   18  C   UNL     1      -8.411  11.217  67.229  1.00  0.00    -0.144 A  
HETATM   19  H   UNL     1      -9.272  10.801  69.853  1.00  0.00     0.000 HD 
HETATM   20  C   UNL     1      -9.957   8.682  70.859  1.00  0.00    -0.257 C  
HETATM   21  C   UNL     1      -7.478  10.932  66.224  1.00  0.00    -0.129 A  
HETATM   22  C   UNL     1      -7.745   9.938  65.290  1.00  0.00    -0.129 A  
HETATM   23  C   UNL     1     -10.955   9.074  71.943  1.00  0.00    -0.423 C  
HETATM   24  C   UNL     1     -11.874  10.207  71.517  1.00  0.00    -0.356 C  
HETATM   25  C   UNL     1      -8.950   9.245  65.351  1.00  0.00    -0.253 A  
HETATM   26  C   UNL     1      -9.887   9.536  66.353  1.00  0.00    -0.320 A  
HETATM   27  C   UNL     1     -12.475   9.971  70.138  1.00  0.00    -0.015 C  
ENDBRANCH  10  11
ENDBRANCH   9  10
ENDBRANCH   8   9
TORSDOF 3
ENDMDL
MODEL       49
REMARK 921   NORMALIZED FREE ENERGY PREDICTED BY IDOCK:   -5.88 KCAL/MOL
REMARK 922        TOTAL FREE ENERGY PREDICTED BY IDOCK:   -7.36 KCAL/MOL
REMARK 923 INTER-LIGAND FREE ENERGY PREDICTED BY IDOCK:   -6.82 KCAL/MOL
REMARK 924 INTRA-LIGAND FREE ENERGY PREDICTED BY IDOCK:   -0.54 KCAL/MOL
REMARK 927      BINDING AFFINITY PREDICTED BY RF-SCORE:    0.00 PKD
ROOT
HETATM    1  C   UNL     1     -13.363   7.013  71.280  1.00  0.00    -0.199 C  
HETATM    2  N   UNL     1     -12.094   7.047  71.991  1.00  0.00    -0.305 NA 
HETATM    3  C   UNL     1     -11.708   5.805  72.632  1.00  0.00    -0.203 C  
HETATM    4  C   UNL     1     -10.370   5.831  73.338  1.00  0.00    -0.242 C  
HETATM    5  C   UNL     1      -9.651   7.156  73.448  1.00  0.00    -0.208 C  
HETATM    6  N   UNL     1     -10.270   8.298  72.807  1.00  0.00    -0.294 NA 
HETATM    7  H   UNL     1      -9.815   9.207  72.880  1.00  0.00     0.000 HD 
HETATM    8  C   UNL     1     -11.367   8.210  72.152  1.00  0.00    -0.336 C  
ENDROOT
BRANCH   8   9
HETATM    9  C   UNL     1     -11.915   9.537  71.528  1.00  0.00    -0.399 C  
BRANCH   9  10
HETATM   10  O   UNL     1     -11.068  10.268  70.645  1.00  0.00    -0.315 OA 
BRANCH  10  11
HETATM   11  C   UNL     1     -11.691  10.802  69.539  1.00  0.00    -0.312 C  
HETATM   12  C   UNL     1     -10.633  10.999  68.396  1.00  0.00    -0.193 C  
HETATM   13  O   UNL     1     -12.889  11.056  69.473  1.00  0.00    -0.188 OA 
HETATM   14  C   UNL     1     -10.972  12.293  67.619  1.00  0.00    -0.287 A  
HETATM   15  O   UNL     1      -9.336  11.203  68.974  1.00  0.00    -0.346 OA 
HETATM   16  C   UNL     1     -10.607   9.679  67.528  1.00  0.00    -0.339 C  
HETATM   17  C   UNL     1      -9.690   9.716  66.287  1.00  0.00    -0.303 C  
HETATM   18  C   UNL     1     -10.385  13.525  67.983  1.00  0.00    -0.241 A  
HETATM   19  H   UNL     1      -8.695  11.322  68.283  1.00  0.00     0.000 HD 
HETATM   20  C   UNL     1      -8.203   9.607  66.613  1.00  0.00    -0.120 C  
HETATM   21  C   UNL     1     -10.682  14.712  67.302  1.00  0.00    -0.290 A  
HETATM   22  C   UNL     1     -11.581  14.699  66.242  1.00  0.00    -0.344 A  
HETATM   23  C   UNL     1      -7.880   8.358  67.426  1.00  0.00    -0.099 C  
HETATM   24  C   UNL     1      -8.776   8.198  68.643  1.00  0.00    -0.134 C  
HETATM   25  C   UNL     1     -12.194  13.505  65.877  1.00  0.00    -0.507 A  
HETATM   26  C   UNL     1     -11.903  12.318  66.565  1.00  0.00    -0.378 A  
HETATM   27  C   UNL     1     -10.248   8.386  68.301  1.00  0.00    -0.244 C  
ENDBRANCH  10  11
ENDBRANCH   9  10
ENDBRANCH   8   9
TORSDOF 3
ENDMDL
MODEL       50
REMARK 921   NORMALIZED FREE ENERGY PREDICTED BY IDOCK:   -5.88 KCAL/MOL
REMARK 922        TOTAL FREE ENERGY PREDICTED BY IDOCK:   -7.36 KCAL/MOL
REMARK 923 INTER-LIGAND FREE ENERGY PREDICTED BY IDOCK:   -6.62 KCAL/MOL
REMARK 924 INTRA-LIGAND FREE ENERGY PREDICTED BY IDOCK:   -0.74 KCAL/MOL
REMARK 927      BINDING AFFINITY PREDICTED BY RF-SCORE:    0.00 PKD
ROOT
HETATM    1  C   UNL     1     -13.114  14.230  65.685  1.00  0.00    -0.015 C  
HETATM    2  N   UNL     1     -12.093  13.504  64.948  1.00  0.00    -0.377 NA 
HETATM    3  C   UNL     1     -12.381  12.104  64.702  1.00  0.00    -0.272 C  
HETATM    4  C   UNL     1     -11.335  11.359  63.902  1.00  0.00    -0.302 C  
HETATM    5  C   UNL     1     -10.045  12.077  63.578  1.00  0.00    -0.424 C  
HETATM    6  N   UNL     1      -9.932  13.456  64.004  1.00  0.00    -0.703 NA 
HETATM    7  H   UNL     1      -9.066  13.959  63.814  1.00  0.00     0.000 HD 
HETATM    8  C   UNL     1     -10.879  14.070  64.612  1.00  0.00    -0.403 C  
ENDROOT
BRANCH   8   9
HETATM    9  C   UNL     1     -10.598  15.555  65.019  1.00  0.00    -0.409 C  
BRANCH   9  10
HETATM   10  O   UNL     1      -9.616  15.808  66.020  1.00  0.00    -0.301 OA 
BRANCH  10  11
HETATM   11  C   UNL     1     -10.110  16.162  67.255  1.00  0.00    -0.265 C  
HETATM   12  C   UNL     1      -9.513  15.200  68.343  1.00  0.00    -0.208 C  
HETATM   13  O   UNL     1     -10.877  17.097  67.453  1.00  0.00    -0.284 OA 
HETATM   14  C   UNL     1     -10.594  14.926  69.415  1.00  0.00    -0.255 A  
HETATM   15  O   UNL     1      -9.206  13.932  67.747  1.00  0.00    -0.183 OA 
HETATM   16  C   UNL     1      -8.177  15.850  68.884  1.00  0.00    -0.213 C  
HETATM   17  C   UNL     1      -7.490  15.094  70.041  1.00  0.00     0.076 C  
HETATM   18  C   UNL     1     -11.449  13.807  69.306  1.00  0.00    -0.344 A  
HETATM   19  H   UNL     1      -8.845  13.350  68.405  1.00  0.00     0.000 HD 
HETATM   20  C   UNL     1      -6.769  13.821  69.605  1.00  0.00    -0.015 C  
HETATM   21  C   UNL     1     -12.442  13.542  70.258  1.00  0.00    -0.309 A  
HETATM   22  C   UNL     1     -12.611  14.396  71.341  1.00  0.00    -0.426 A  
HETATM   23  C   UNL     1      -5.741  14.085  68.509  1.00  0.00    -0.094 C  
HETATM   24  C   UNL     1      -6.310  14.882  67.347  1.00  0.00     0.056 C  
HETATM   25  C   UNL     1     -11.801  15.520  71.462  1.00  0.00    -0.472 A  
HETATM   26  C   UNL     1     -10.812  15.790  70.505  1.00  0.00    -0.319 A  
HETATM   27  C   UNL     1      -7.087  16.105  67.815  1.00  0.00    -0.157 C  
ENDBRANCH  10  11
ENDBRANCH   9  10
ENDBRANCH   8   9
TORSDOF 3
ENDMDL
MODEL       51
REMARK 921   NORMALIZED FREE ENERGY PREDICTED BY IDOCK:   -5.87 KCAL/MOL
REMARK 922        TOTAL FREE ENERGY PREDICTED BY IDOCK:   -7.34 KCAL/MOL
REMARK 923 INTER-LIGAND FREE ENERGY PREDICTED BY IDOCK:   -6.83 KCAL/MOL
REMARK 924 INTRA-LIGAND FREE ENERGY PREDICTED BY IDOCK:   -0.51 KCAL/MOL
REMARK 927      BINDING AFFINITY PREDICTED BY RF-SCORE:    0.00 PKD
ROOT
HETATM    1  C   UNL     1     -12.225  12.674  63.798  1.00  0.00    -0.514 C  
HETATM    2  N   UNL     1     -11.466  13.751  64.414  1.00  0.00    -0.379 NA 
HETATM    3  C   UNL     1     -11.915  15.091  64.089  1.00  0.00    -0.201 C  
HETATM    4  C   UNL     1     -11.149  16.209  64.760  1.00  0.00    -0.345 C  
HETATM    5  C   UNL     1      -9.919  15.847  65.560  1.00  0.00    -0.278 C  
HETATM    6  N   UNL     1      -9.600  14.440  65.679  1.00  0.00    -0.537 NA 
HETATM    7  H   UNL     1      -8.766  14.168  66.198  1.00  0.00     0.000 HD 
HETATM    8  C   UNL     1     -10.324  13.522  65.156  1.00  0.00    -0.353 C  
ENDROOT
BRANCH   8   9
HETATM    9  C   UNL     1      -9.839  12.048  65.362  1.00  0.00    -0.220 C  
BRANCH   9  10
HETATM   10  O   UNL     1      -9.337  11.675  66.642  1.00  0.00    -0.183 OA 
BRANCH  10  11
HETATM   11  C   UNL     1      -9.771  10.456  67.112  1.00  0.00    -0.172 C  
HETATM   12  C   UNL     1     -10.216  10.610  68.610  1.00  0.00    -0.182 C  
HETATM   13  O   UNL     1      -9.814   9.430  66.443  1.00  0.00    -0.226 OA 
HETATM   14  C   UNL     1      -9.831   9.325  69.381  1.00  0.00    -0.177 A  
HETATM   15  O   UNL     1      -9.484  11.682  69.220  1.00  0.00    -0.387 OA 
HETATM   16  C   UNL     1     -11.756  10.967  68.623  1.00  0.00    -0.367 C  
HETATM   17  C   UNL     1     -12.405  11.063  70.020  1.00  0.00    -0.377 C  
HETATM   18  C   UNL     1      -8.594   9.235  70.057  1.00  0.00    -0.193 A  
HETATM   19  H   UNL     1      -9.753  11.775  70.127  1.00  0.00     0.000 HD 
HETATM   20  C   UNL     1     -12.039  12.332  70.786  1.00  0.00    -0.259 C  
HETATM   21  C   UNL     1      -8.217   8.081  70.754  1.00  0.00    -0.113 A  
HETATM   22  C   UNL     1      -9.066   6.980  70.786  1.00  0.00    -0.154 A  
HETATM   23  C   UNL     1     -12.371  13.597  70.001  1.00  0.00    -0.342 C  
HETATM   24  C   UNL     1     -11.823  13.571  68.583  1.00  0.00    -0.404 C  
HETATM   25  C   UNL     1     -10.279   7.030  70.109  1.00  0.00    -0.206 A  
HETATM   26  C   UNL     1     -10.653   8.184  69.404  1.00  0.00    -0.206 A  
HETATM   27  C   UNL     1     -12.140  12.264  67.869  1.00  0.00    -0.052 C  
ENDBRANCH  10  11
ENDBRANCH   9  10
ENDBRANCH   8   9
TORSDOF 3
ENDMDL
MODEL       52
REMARK 921   NORMALIZED FREE ENERGY PREDICTED BY IDOCK:   -5.83 KCAL/MOL
REMARK 922        TOTAL FREE ENERGY PREDICTED BY IDOCK:   -7.31 KCAL/MOL
REMARK 923 INTER-LIGAND FREE ENERGY PREDICTED BY IDOCK:   -7.03 KCAL/MOL
REMARK 924 INTRA-LIGAND FREE ENERGY PREDICTED BY IDOCK:   -0.27 KCAL/MOL
REMARK 927      BINDING AFFINITY PREDICTED BY RF-SCORE:    0.00 PKD
ROOT
HETATM    1  C   UNL     1     -11.855  15.167  68.820  1.00  0.00    -0.303 C  
HETATM    2  N   UNL     1     -12.439  14.471  69.955  1.00  0.00    -0.325 NA 
HETATM    3  C   UNL     1     -12.993  15.324  70.989  1.00  0.00    -0.462 C  
HETATM    4  C   UNL     1     -13.634  14.598  72.151  1.00  0.00    -0.514 C  
HETATM    5  C   UNL     1     -13.504  13.094  72.208  1.00  0.00    -0.568 C  
HETATM    6  N   UNL     1     -12.824  12.448  71.104  1.00  0.00    -0.277 NA 
HETATM    7  H   UNL     1     -12.707  11.436  71.126  1.00  0.00     0.000 HD 
HETATM    8  C   UNL     1     -12.365  13.100  70.102  1.00  0.00    -0.213 C  
ENDROOT
BRANCH   8   9
HETATM    9  C   UNL     1     -11.644  12.259  68.995  1.00  0.00    -0.316 C  
BRANCH   9  10
HETATM   10  O   UNL     1     -11.866  10.852  68.964  1.00  0.00    -0.314 OA 
BRANCH  10  11
HETATM   11  C   UNL     1     -10.889  10.088  69.562  1.00  0.00    -0.253 C  
HETATM   12  C   UNL     1     -10.276   9.111  68.497  1.00  0.00    -0.198 C  
HETATM   13  O   UNL     1     -10.553  10.187  70.736  1.00  0.00    -0.241 OA 
HETATM   14  C   UNL     1      -9.946   7.765  69.185  1.00  0.00    -0.182 A  
HETATM   15  O   UNL     1     -11.257   8.820  67.491  1.00  0.00    -0.380 OA 
HETATM   16  C   UNL     1      -9.048   9.840  67.820  1.00  0.00    -0.138 C  
HETATM   17  C   UNL     1      -8.247   8.995  66.807  1.00  0.00    -0.115 C  
HETATM   18  C   UNL     1     -10.886   6.710  69.191  1.00  0.00    -0.329 A  
HETATM   19  H   UNL     1     -10.886   8.229  66.847  1.00  0.00     0.000 HD 
HETATM   20  C   UNL     1      -8.954   8.805  65.467  1.00  0.00    -0.231 C  
HETATM   21  C   UNL     1     -10.616   5.486  69.815  1.00  0.00    -0.388 A  
HETATM   22  C   UNL     1      -9.399   5.287  70.457  1.00  0.00    -0.205 A  
HETATM   23  C   UNL     1      -9.326  10.133  64.816  1.00  0.00    -0.324 C  
HETATM   24  C   UNL     1     -10.068  11.064  65.760  1.00  0.00    -0.305 C  
HETATM   25  C   UNL     1      -8.464   6.316  70.490  1.00  0.00    -0.138 A  
HETATM   26  C   UNL     1      -8.738   7.544  69.872  1.00  0.00    -0.140 A  
HETATM   27  C   UNL     1      -9.380  11.177  67.114  1.00  0.00    -0.176 C  
ENDBRANCH  10  11
ENDBRANCH   9  10
ENDBRANCH   8   9
TORSDOF 3
ENDMDL
MODEL       53
REMARK 921   NORMALIZED FREE ENERGY PREDICTED BY IDOCK:   -5.82 KCAL/MOL
REMARK 922        TOTAL FREE ENERGY PREDICTED BY IDOCK:   -7.29 KCAL/MOL
REMARK 923 INTER-LIGAND FREE ENERGY PREDICTED BY IDOCK:   -6.85 KCAL/MOL
REMARK 924 INTRA-LIGAND FREE ENERGY PREDICTED BY IDOCK:   -0.44 KCAL/MOL
REMARK 927      BINDING AFFINITY PREDICTED BY RF-SCORE:    0.00 PKD
ROOT
HETATM    1  C   UNL     1     -10.631  10.543  66.289  1.00  0.00    -0.133 C  
HETATM    2  N   UNL     1     -10.035  10.650  64.966  1.00  0.00    -0.283 NA 
HETATM    3  C   UNL     1      -9.122   9.582  64.609  1.00  0.00    -0.210 C  
HETATM    4  C   UNL     1      -8.532   9.674  63.219  1.00  0.00    -0.190 C  
HETATM    5  C   UNL     1      -8.814  10.918  62.409  1.00  0.00    -0.313 C  
HETATM    6  N   UNL     1      -9.687  11.908  63.003  1.00  0.00    -0.600 NA 
HETATM    7  H   UNL     1      -9.881  12.765  62.486  1.00  0.00     0.000 HD 
HETATM    8  C   UNL     1     -10.226  11.750  64.155  1.00  0.00    -0.322 C  
ENDROOT
BRANCH   8   9
HETATM    9  C   UNL     1     -11.136  12.918  64.665  1.00  0.00    -0.324 C  
BRANCH   9  10
HETATM   10  O   UNL     1     -10.611  13.802  65.650  1.00  0.00    -0.283 OA 
BRANCH  10  11
HETATM   11  C   UNL     1     -11.535  14.320  66.530  1.00  0.00    -0.360 C  
HETATM   12  C   UNL     1     -10.781  14.989  67.734  1.00  0.00    -0.278 C  
HETATM   13  O   UNL     1     -12.749  14.274  66.367  1.00  0.00    -0.314 OA 
HETATM   14  C   UNL     1     -11.593  14.745  69.029  1.00  0.00    -0.324 A  
HETATM   15  O   UNL     1      -9.514  14.343  67.925  1.00  0.00    -0.204 OA 
HETATM   16  C   UNL     1     -10.535  16.507  67.369  1.00  0.00    -0.310 C  
HETATM   17  C   UNL     1      -9.888  17.362  68.479  1.00  0.00    -0.320 C  
HETATM   18  C   UNL     1     -11.320  13.628  69.849  1.00  0.00    -0.124 A  
HETATM   19  H   UNL     1      -9.058  14.748  68.654  1.00  0.00     0.000 HD 
HETATM   20  C   UNL     1      -8.396  17.100  68.671  1.00  0.00    -0.257 C  
HETATM   21  C   UNL     1     -12.046  13.379  71.021  1.00  0.00    -0.192 A  
HETATM   22  C   UNL     1     -13.071  14.239  71.398  1.00  0.00    -0.421 A  
HETATM   23  C   UNL     1      -7.606  17.288  67.381  1.00  0.00    -0.201 C  
HETATM   24  C   UNL     1      -8.204  16.530  66.207  1.00  0.00    -0.360 C  
HETATM   25  C   UNL     1     -13.380  15.333  70.597  1.00  0.00    -0.320 A  
HETATM   26  C   UNL     1     -12.658  15.577  69.420  1.00  0.00     0.109 A  
HETATM   27  C   UNL     1      -9.706  16.752  66.085  1.00  0.00    -0.315 C  
ENDBRANCH  10  11
ENDBRANCH   9  10
ENDBRANCH   8   9
TORSDOF 3
ENDMDL
MODEL       54
REMARK 921   NORMALIZED FREE ENERGY PREDICTED BY IDOCK:   -5.81 KCAL/MOL
REMARK 922        TOTAL FREE ENERGY PREDICTED BY IDOCK:   -7.28 KCAL/MOL
REMARK 923 INTER-LIGAND FREE ENERGY PREDICTED BY IDOCK:   -6.71 KCAL/MOL
REMARK 924 INTRA-LIGAND FREE ENERGY PREDICTED BY IDOCK:   -0.57 KCAL/MOL
REMARK 927      BINDING AFFINITY PREDICTED BY RF-SCORE:    0.00 PKD
ROOT
HETATM    1  C   UNL     1     -11.656  14.056  68.871  1.00  0.00    -0.315 C  
HETATM    2  N   UNL     1     -11.224  14.803  67.700  1.00  0.00    -0.310 NA 
HETATM    3  C   UNL     1     -10.818  16.172  67.952  1.00  0.00    -0.332 C  
HETATM    4  C   UNL     1     -10.334  16.936  66.740  1.00  0.00    -0.298 C  
HETATM    5  C   UNL     1     -10.464  16.277  65.387  1.00  0.00    -0.343 C  
HETATM    6  N   UNL     1     -10.987  14.927  65.358  1.00  0.00    -0.344 NA 
HETATM    7  H   UNL     1     -11.102  14.465  64.457  1.00  0.00     0.000 HD 
HETATM    8  C   UNL     1     -11.312  14.291  66.421  1.00  0.00    -0.343 C  
ENDROOT
BRANCH   8   9
HETATM    9  C   UNL     1     -11.874  12.843  66.223  1.00  0.00    -0.416 C  
BRANCH   9  10
HETATM   10  O   UNL     1     -10.964  11.749  66.296  1.00  0.00    -0.278 OA 
BRANCH  10  11
HETATM   11  C   UNL     1     -11.127  10.917  67.381  1.00  0.00    -0.307 C  
HETATM   12  C   UNL     1      -9.832  10.049  67.564  1.00  0.00    -0.175 C  
HETATM   13  O   UNL     1     -12.126  10.892  68.090  1.00  0.00    -0.563 OA 
HETATM   14  C   UNL     1     -10.242   8.636  68.043  1.00  0.00    -0.261 A  
HETATM   15  O   UNL     1      -9.189   9.874  66.294  1.00  0.00    -0.156 OA 
HETATM   16  C   UNL     1      -8.856  10.831  68.530  1.00  0.00    -0.149 C  
HETATM   17  C   UNL     1      -7.559  10.087  68.912  1.00  0.00    -0.086 C  
HETATM   18  C   UNL     1     -10.462   7.596  67.112  1.00  0.00    -0.412 A  
HETATM   19  H   UNL     1      -8.405   9.348  66.404  1.00  0.00     0.000 HD 
HETATM   20  C   UNL     1      -6.520  10.043  67.795  1.00  0.00    -0.066 C  
HETATM   21  C   UNL     1     -10.843   6.311  67.519  1.00  0.00    -0.436 A  
HETATM   22  C   UNL     1     -11.021   6.034  68.869  1.00  0.00    -0.395 A  
HETATM   23  C   UNL     1      -6.158  11.435  67.287  1.00  0.00    -0.085 C  
HETATM   24  C   UNL     1      -7.378  12.272  66.941  1.00  0.00     0.029 C  
HETATM   25  C   UNL     1     -10.836   7.045  69.807  1.00  0.00    -0.276 A  
HETATM   26  C   UNL     1     -10.463   8.333  69.399  1.00  0.00    -0.224 A  
HETATM   27  C   UNL     1      -8.430  12.237  68.042  1.00  0.00    -0.171 C  
ENDBRANCH  10  11
ENDBRANCH   9  10
ENDBRANCH   8   9
TORSDOF 3
ENDMDL
MODEL       55
REMARK 921   NORMALIZED FREE ENERGY PREDICTED BY IDOCK:   -5.80 KCAL/MOL
REMARK 922        TOTAL FREE ENERGY PREDICTED BY IDOCK:   -7.27 KCAL/MOL
REMARK 923 INTER-LIGAND FREE ENERGY PREDICTED BY IDOCK:   -6.65 KCAL/MOL
REMARK 924 INTRA-LIGAND FREE ENERGY PREDICTED BY IDOCK:   -0.62 KCAL/MOL
REMARK 927      BINDING AFFINITY PREDICTED BY RF-SCORE:    0.00 PKD
ROOT
HETATM    1  C   UNL     1     -10.478  11.497  63.359  1.00  0.00    -0.406 C  
HETATM    2  N   UNL     1     -11.128  12.158  64.479  1.00  0.00    -0.311 NA 
HETATM    3  C   UNL     1     -11.825  13.388  64.156  1.00  0.00    -0.442 C  
HETATM    4  C   UNL     1     -12.531  14.055  65.315  1.00  0.00    -0.495 C  
HETATM    5  C   UNL     1     -12.322  13.483  66.698  1.00  0.00    -0.297 C  
HETATM    6  N   UNL     1     -11.505  12.292  66.803  1.00  0.00    -0.345 NA 
HETATM    7  H   UNL     1     -11.333  11.895  67.726  1.00  0.00     0.000 HD 
HETATM    8  C   UNL     1     -10.990  11.717  65.780  1.00  0.00    -0.301 C  
ENDROOT
BRANCH   8   9
HETATM    9  C   UNL     1     -10.121  10.445  66.060  1.00  0.00    -0.243 C  
BRANCH   9  10
HETATM   10  O   UNL     1     -10.656   9.435  66.911  1.00  0.00    -0.231 OA 
BRANCH  10  11
HETATM   11  C   UNL     1     -10.162   9.424  68.195  1.00  0.00    -0.200 C  
HETATM   12  C   UNL     1     -10.066   7.939  68.697  1.00  0.00    -0.197 C  
HETATM   13  O   UNL     1      -9.835  10.426  68.822  1.00  0.00    -0.168 OA 
HETATM   14  C   UNL     1     -10.418   7.897  70.203  1.00  0.00    -0.231 A  
HETATM   15  O   UNL     1     -11.054   7.142  68.030  1.00  0.00    -0.478 OA 
HETATM   16  C   UNL     1      -8.630   7.394  68.326  1.00  0.00    -0.124 C  
HETATM   17  C   UNL     1      -8.307   5.971  68.828  1.00  0.00    -0.106 C  
HETATM   18  C   UNL     1     -11.743   7.653  70.626  1.00  0.00    -0.214 A  
HETATM   19  H   UNL     1     -10.996   6.244  68.333  1.00  0.00     0.000 HD 
HETATM   20  C   UNL     1      -9.001   4.864  68.039  1.00  0.00    -0.121 C  
HETATM   21  C   UNL     1     -12.090   7.619  71.982  1.00  0.00    -0.336 A  
HETATM   22  C   UNL     1     -11.119   7.837  72.953  1.00  0.00    -0.457 A  
HETATM   23  C   UNL     1      -8.695   4.941  66.546  1.00  0.00    -0.112 C  
HETATM   24  C   UNL     1      -8.925   6.327  65.968  1.00  0.00    -0.150 C  
HETATM   25  C   UNL     1      -9.810   8.105  72.567  1.00  0.00    -0.363 A  
HETATM   26  C   UNL     1      -9.465   8.147  71.208  1.00  0.00    -0.199 A  
HETATM   27  C   UNL     1      -8.284   7.417  66.817  1.00  0.00    -0.121 C  
ENDBRANCH  10  11
ENDBRANCH   9  10
ENDBRANCH   8   9
TORSDOF 3
ENDMDL
MODEL       56
REMARK 921   NORMALIZED FREE ENERGY PREDICTED BY IDOCK:   -5.78 KCAL/MOL
REMARK 922        TOTAL FREE ENERGY PREDICTED BY IDOCK:   -7.25 KCAL/MOL
REMARK 923 INTER-LIGAND FREE ENERGY PREDICTED BY IDOCK:   -6.54 KCAL/MOL
REMARK 924 INTRA-LIGAND FREE ENERGY PREDICTED BY IDOCK:   -0.70 KCAL/MOL
REMARK 927      BINDING AFFINITY PREDICTED BY RF-SCORE:    0.00 PKD
ROOT
HETATM    1  C   UNL     1     -10.895   6.448  71.514  1.00  0.00    -0.254 C  
HETATM    2  N   UNL     1     -11.914   7.484  71.556  1.00  0.00    -0.294 NA 
HETATM    3  C   UNL     1     -13.282   7.007  71.625  1.00  0.00    -0.307 C  
HETATM    4  C   UNL     1     -14.339   8.086  71.707  1.00  0.00    -0.583 C  
HETATM    5  C   UNL     1     -13.900   9.523  71.552  1.00  0.00    -0.194 C  
HETATM    6  N   UNL     1     -12.481   9.767  71.400  1.00  0.00    -0.359 NA 
HETATM    7  H   UNL     1     -12.160  10.727  71.276  1.00  0.00     0.000 HD 
HETATM    8  C   UNL     1     -11.614   8.824  71.414  1.00  0.00    -0.299 C  
ENDROOT
BRANCH   8   9
HETATM    9  C   UNL     1     -10.119   9.249  71.225  1.00  0.00    -0.291 C  
BRANCH   9  10
HETATM   10  O   UNL     1      -9.747   9.885  70.005  1.00  0.00    -0.236 OA 
BRANCH  10  11
HETATM   11  C   UNL     1      -9.078   9.087  69.105  1.00  0.00    -0.140 C  
HETATM   12  C   UNL     1      -9.789   9.177  67.708  1.00  0.00    -0.174 C  
HETATM   13  O   UNL     1      -8.073   8.435  69.369  1.00  0.00    -0.110 OA 
HETATM   14  C   UNL     1      -9.728   7.790  67.027  1.00  0.00    -0.259 A  
HETATM   15  O   UNL     1     -11.180   9.473  67.897  1.00  0.00    -0.519 OA 
HETATM   16  C   UNL     1      -9.119  10.357  66.898  1.00  0.00    -0.159 C  
HETATM   17  C   UNL     1      -9.621  10.539  65.450  1.00  0.00    -0.291 C  
HETATM   18  C   UNL     1     -10.783   6.863  67.184  1.00  0.00    -0.436 A  
HETATM   19  H   UNL     1     -11.611   9.527  67.052  1.00  0.00     0.000 HD 
HETATM   20  C   UNL     1     -11.006  11.174  65.352  1.00  0.00    -0.151 C  
HETATM   21  C   UNL     1     -10.748   5.598  66.585  1.00  0.00    -0.339 A  
HETATM   22  C   UNL     1      -9.651   5.222  65.818  1.00  0.00    -0.108 A  
HETATM   23  C   UNL     1     -11.078  12.517  66.072  1.00  0.00    -0.329 C  
HETATM   24  C   UNL     1     -10.545  12.453  67.493  1.00  0.00    -0.240 C  
HETATM   25  C   UNL     1      -8.586   6.104  65.666  1.00  0.00    -0.148 A  
HETATM   26  C   UNL     1      -8.618   7.368  66.272  1.00  0.00    -0.148 A  
HETATM   27  C   UNL     1      -9.197  11.749  67.570  1.00  0.00    -0.175 C  
ENDBRANCH  10  11
ENDBRANCH   9  10
ENDBRANCH   8   9
TORSDOF 3
ENDMDL
MODEL       57
REMARK 921   NORMALIZED FREE ENERGY PREDICTED BY IDOCK:   -5.74 KCAL/MOL
REMARK 922        TOTAL FREE ENERGY PREDICTED BY IDOCK:   -7.20 KCAL/MOL
REMARK 923 INTER-LIGAND FREE ENERGY PREDICTED BY IDOCK:   -6.48 KCAL/MOL
REMARK 924 INTRA-LIGAND FREE ENERGY PREDICTED BY IDOCK:   -0.72 KCAL/MOL
REMARK 927      BINDING AFFINITY PREDICTED BY RF-SCORE:    0.00 PKD
ROOT
HETATM    1  C   UNL     1     -11.425  12.997  68.114  1.00  0.00    -0.319 C  
HETATM    2  N   UNL     1     -11.038  12.845  66.720  1.00  0.00    -0.273 NA 
HETATM    3  C   UNL     1     -12.061  13.187  65.751  1.00  0.00    -0.447 C  
HETATM    4  C   UNL     1     -11.645  13.065  64.302  1.00  0.00    -0.437 C  
HETATM    5  C   UNL     1     -10.293  12.460  64.000  1.00  0.00    -0.409 C  
HETATM    6  N   UNL     1      -9.464  12.101  65.131  1.00  0.00    -0.439 NA 
HETATM    7  H   UNL     1      -8.554  11.675  64.956  1.00  0.00     0.000 HD 
HETATM    8  C   UNL     1      -9.829  12.296  66.343  1.00  0.00    -0.230 C  
ENDROOT
BRANCH   8   9
HETATM    9  C   UNL     1      -8.825  11.841  67.455  1.00  0.00    -0.162 C  
BRANCH   9  10
HETATM   10  O   UNL     1      -8.680  10.446  67.705  1.00  0.00    -0.121 OA 
BRANCH  10  11
HETATM   11  C   UNL     1      -9.000  10.040  68.981  1.00  0.00    -0.163 C  
HETATM   12  C   UNL     1     -10.122   8.944  68.906  1.00  0.00    -0.197 C  
HETATM   13  O   UNL     1      -8.465  10.465  69.999  1.00  0.00    -0.012 OA 
HETATM   14  C   UNL     1     -11.082   9.129  70.105  1.00  0.00    -0.248 A  
HETATM   15  O   UNL     1     -10.909   9.143  67.724  1.00  0.00    -0.446 OA 
HETATM   16  C   UNL     1      -9.415   7.532  68.821  1.00  0.00    -0.148 C  
HETATM   17  C   UNL     1     -10.360   6.312  68.839  1.00  0.00    -0.246 C  
HETATM   18  C   UNL     1     -12.245   9.920  69.980  1.00  0.00     0.048 A  
HETATM   19  H   UNL     1     -11.588   8.480  67.679  1.00  0.00     0.000 HD 
HETATM   20  C   UNL     1     -11.107   6.089  67.526  1.00  0.00    -0.228 C  
HETATM   21  C   UNL     1     -13.125  10.111  71.052  1.00  0.00    -0.458 A  
HETATM   22  C   UNL     1     -12.860   9.521  72.283  1.00  0.00    -0.426 A  
HETATM   23  C   UNL     1     -10.160   5.961  66.337  1.00  0.00    -0.163 C  
HETATM   24  C   UNL     1      -9.145   7.090  66.268  1.00  0.00    -0.178 C  
HETATM   25  C   UNL     1     -11.709   8.758  72.444  1.00  0.00    -0.337 A  
HETATM   26  C   UNL     1     -10.823   8.573  71.372  1.00  0.00    -0.327 A  
HETATM   27  C   UNL     1      -8.470   7.339  67.610  1.00  0.00    -0.116 C  
ENDBRANCH  10  11
ENDBRANCH   9  10
ENDBRANCH   8   9
TORSDOF 3
ENDMDL
MODEL       58
REMARK 921   NORMALIZED FREE ENERGY PREDICTED BY IDOCK:   -5.74 KCAL/MOL
REMARK 922        TOTAL FREE ENERGY PREDICTED BY IDOCK:   -7.20 KCAL/MOL
REMARK 923 INTER-LIGAND FREE ENERGY PREDICTED BY IDOCK:   -6.70 KCAL/MOL
REMARK 924 INTRA-LIGAND FREE ENERGY PREDICTED BY IDOCK:   -0.49 KCAL/MOL
REMARK 927      BINDING AFFINITY PREDICTED BY RF-SCORE:    0.00 PKD
ROOT
HETATM    1  C   UNL     1      -9.517  11.286  62.938  1.00  0.00    -0.361 C  
HETATM    2  N   UNL     1      -8.961  10.014  63.372  1.00  0.00    -0.237 NA 
HETATM    3  C   UNL     1      -8.340   9.219  62.330  1.00  0.00    -0.175 C  
HETATM    4  C   UNL     1      -7.730   7.914  62.790  1.00  0.00    -0.131 C  
HETATM    5  C   UNL     1      -7.956   7.490  64.223  1.00  0.00    -0.109 C  
HETATM    6  N   UNL     1      -8.690   8.404  65.073  1.00  0.00    -0.377 NA 
HETATM    7  H   UNL     1      -8.872   8.135  66.040  1.00  0.00     0.000 HD 
HETATM    8  C   UNL     1      -9.122   9.536  64.658  1.00  0.00    -0.210 C  
ENDROOT
BRANCH   8   9
HETATM    9  C   UNL     1      -9.910  10.405  65.695  1.00  0.00    -0.259 C  
BRANCH   9  10
HETATM   10  O   UNL     1      -9.502  10.363  67.059  1.00  0.00    -0.159 OA 
BRANCH  10  11
HETATM   11  C   UNL     1     -10.316   9.633  67.895  1.00  0.00    -0.224 C  
HETATM   12  C   UNL     1     -10.633  10.482  69.178  1.00  0.00    -0.229 C  
HETATM   13  O   UNL     1     -10.733   8.507  67.647  1.00  0.00    -0.219 OA 
HETATM   14  C   UNL     1     -10.692   9.536  70.401  1.00  0.00    -0.341 A  
HETATM   15  O   UNL     1      -9.555  11.395  69.426  1.00  0.00    -0.391 OA 
HETATM   16  C   UNL     1     -11.952  11.307  68.899  1.00  0.00    -0.378 C  
HETATM   17  C   UNL     1     -12.483  12.135  70.088  1.00  0.00    -0.108 C  
HETATM   18  C   UNL     1      -9.542   9.304  71.187  1.00  0.00    -0.305 A  
HETATM   19  H   UNL     1      -9.746  11.909  70.202  1.00  0.00     0.000 HD 
HETATM   20  C   UNL     1     -11.675  13.399  70.370  1.00  0.00    -0.184 C  
HETATM   21  C   UNL     1      -9.566   8.446  72.294  1.00  0.00    -0.374 A  
HETATM   22  C   UNL     1     -10.743   7.790  72.638  1.00  0.00    -0.402 A  
HETATM   23  C   UNL     1     -11.572  14.304  69.147  1.00  0.00    -0.346 C  
HETATM   24  C   UNL     1     -11.114  13.563  67.902  1.00  0.00    -0.288 C  
HETATM   25  C   UNL     1     -11.885   7.979  71.867  1.00  0.00    -0.353 A  
HETATM   26  C   UNL     1     -11.858   8.832  70.755  1.00  0.00    -0.209 A  
HETATM   27  C   UNL     1     -11.886  12.268  67.687  1.00  0.00    -0.334 C  
ENDBRANCH  10  11
ENDBRANCH   9  10
ENDBRANCH   8   9
TORSDOF 3
ENDMDL
MODEL       59
REMARK 921   NORMALIZED FREE ENERGY PREDICTED BY IDOCK:   -5.74 KCAL/MOL
REMARK 922        TOTAL FREE ENERGY PREDICTED BY IDOCK:   -7.20 KCAL/MOL
REMARK 923 INTER-LIGAND FREE ENERGY PREDICTED BY IDOCK:   -6.65 KCAL/MOL
REMARK 924 INTRA-LIGAND FREE ENERGY PREDICTED BY IDOCK:   -0.55 KCAL/MOL
REMARK 927      BINDING AFFINITY PREDICTED BY RF-SCORE:    0.00 PKD
ROOT
HETATM    1  C   UNL     1      -5.425  10.477  65.746  1.00  0.00    -0.102 C  
HETATM    2  N   UNL     1      -6.373   9.881  64.818  1.00  0.00    -0.108 NA 
HETATM    3  C   UNL     1      -5.813   9.441  63.555  1.00  0.00    -0.089 C  
HETATM    4  C   UNL     1      -6.793   8.787  62.606  1.00  0.00    -0.094 C  
HETATM    5  C   UNL     1      -8.257   8.793  62.982  1.00  0.00    -0.188 C  
HETATM    6  N   UNL     1      -8.607   9.372  64.262  1.00  0.00    -0.187 NA 
HETATM    7  H   UNL     1      -9.590   9.405  64.532  1.00  0.00     0.000 HD 
HETATM    8  C   UNL     1      -7.731   9.846  65.067  1.00  0.00    -0.133 C  
ENDROOT
BRANCH   8   9
HETATM    9  C   UNL     1      -8.270  10.449  66.407  1.00  0.00    -0.141 C  
BRANCH   9  10
HETATM   10  O   UNL     1      -8.540  11.847  66.459  1.00  0.00    -0.183 OA 
BRANCH  10  11
HETATM   11  C   UNL     1      -9.442  12.238  67.423  1.00  0.00    -0.181 C  
HETATM   12  C   UNL     1     -10.341  13.391  66.849  1.00  0.00    -0.257 C  
HETATM   13  O   UNL     1      -9.526  11.737  68.538  1.00  0.00    -0.200 OA 
HETATM   14  C   UNL     1     -10.645  14.398  67.983  1.00  0.00    -0.241 A  
HETATM   15  O   UNL     1      -9.610  14.117  65.851  1.00  0.00    -0.446 OA 
HETATM   16  C   UNL     1     -11.609  12.728  66.178  1.00  0.00    -0.431 C  
HETATM   17  C   UNL     1     -12.668  13.713  65.639  1.00  0.00    -0.505 C  
HETATM   18  C   UNL     1      -9.821  15.528  68.183  1.00  0.00    -0.216 A  
HETATM   19  H   UNL     1     -10.154  14.815  65.503  1.00  0.00     0.000 HD 
HETATM   20  C   UNL     1     -12.264  14.406  64.340  1.00  0.00    -0.481 C  
HETATM   21  C   UNL     1     -10.069  16.450  69.208  1.00  0.00    -0.271 A  
HETATM   22  C   UNL     1     -11.146  16.260  70.067  1.00  0.00    -0.351 A  
HETATM   23  C   UNL     1     -11.912  13.411  63.240  1.00  0.00    -0.289 C  
HETATM   24  C   UNL     1     -10.916  12.357  63.695  1.00  0.00    -0.525 C  
HETATM   25  C   UNL     1     -11.960  15.143  69.911  1.00  0.00    -0.372 A  
HETATM   26  C   UNL     1     -11.706  14.217  68.889  1.00  0.00    -0.369 A  
HETATM   27  C   UNL     1     -11.306  11.736  65.029  1.00  0.00    -0.288 C  
ENDBRANCH  10  11
ENDBRANCH   9  10
ENDBRANCH   8   9
TORSDOF 3
ENDMDL
MODEL       60
REMARK 921   NORMALIZED FREE ENERGY PREDICTED BY IDOCK:   -5.73 KCAL/MOL
REMARK 922        TOTAL FREE ENERGY PREDICTED BY IDOCK:   -7.19 KCAL/MOL
REMARK 923 INTER-LIGAND FREE ENERGY PREDICTED BY IDOCK:   -6.37 KCAL/MOL
REMARK 924 INTRA-LIGAND FREE ENERGY PREDICTED BY IDOCK:   -0.82 KCAL/MOL
REMARK 927      BINDING AFFINITY PREDICTED BY RF-SCORE:    0.00 PKD
ROOT
HETATM    1  C   UNL     1     -12.319   6.785  71.487  1.00  0.00    -0.358 C  
HETATM    2  N   UNL     1     -12.342   8.237  71.413  1.00  0.00    -0.305 NA 
HETATM    3  C   UNL     1     -13.397   8.882  72.172  1.00  0.00    -0.440 C  
HETATM    4  C   UNL     1     -13.396  10.393  72.125  1.00  0.00    -0.374 C  
HETATM    5  C   UNL     1     -12.423  11.074  71.190  1.00  0.00    -0.397 C  
HETATM    6  N   UNL     1     -11.514  10.224  70.451  1.00  0.00    -0.311 NA 
HETATM    7  H   UNL     1     -10.859  10.656  69.800  1.00  0.00     0.000 HD 
HETATM    8  C   UNL     1     -11.500   8.950  70.583  1.00  0.00    -0.242 C  
ENDROOT
BRANCH   8   9
HETATM    9  C   UNL     1     -10.465   8.170  69.704  1.00  0.00    -0.224 C  
BRANCH   9  10
HETATM   10  O   UNL     1      -9.344   8.881  69.189  1.00  0.00    -0.147 OA 
BRANCH  10  11
HETATM   11  C   UNL     1      -9.432   9.239  67.863  1.00  0.00    -0.137 C  
HETATM   12  C   UNL     1      -9.123  10.772  67.722  1.00  0.00    -0.151 C  
HETATM   13  O   UNL     1      -9.690   8.463  66.950  1.00  0.00    -0.186 OA 
HETATM   14  C   UNL     1     -10.026  11.364  66.613  1.00  0.00    -0.239 A  
HETATM   15  O   UNL     1      -9.481  11.447  68.936  1.00  0.00    -0.343 OA 
HETATM   16  C   UNL     1      -7.569  10.934  67.483  1.00  0.00    -0.101 C  
HETATM   17  C   UNL     1      -7.082  12.375  67.220  1.00  0.00    -0.128 C  
HETATM   18  C   UNL     1     -11.277  11.936  66.933  1.00  0.00    -0.382 A  
HETATM   19  H   UNL     1      -9.295  12.375  68.851  1.00  0.00     0.000 HD 
HETATM   20  C   UNL     1      -7.046  13.252  68.469  1.00  0.00    -0.105 C  
HETATM   21  C   UNL     1     -12.117  12.470  65.948  1.00  0.00    -0.420 A  
HETATM   22  C   UNL     1     -11.730  12.437  64.613  1.00  0.00    -0.426 A  
HETATM   23  C   UNL     1      -6.199  12.641  69.581  1.00  0.00    -0.122 C  
HETATM   24  C   UNL     1      -6.564  11.194  69.872  1.00  0.00    -0.129 C  
HETATM   25  C   UNL     1     -10.515  11.856  64.264  1.00  0.00    -0.370 A  
HETATM   26  C   UNL     1      -9.678  11.315  65.251  1.00  0.00    -0.280 A  
HETATM   27  C   UNL     1      -6.665  10.361  68.602  1.00  0.00    -0.053 C  
ENDBRANCH  10  11
ENDBRANCH   9  10
ENDBRANCH   8   9
TORSDOF 3
ENDMDL
MODEL       61
REMARK 921   NORMALIZED FREE ENERGY PREDICTED BY IDOCK:   -5.63 KCAL/MOL
REMARK 922        TOTAL FREE ENERGY PREDICTED BY IDOCK:   -7.07 KCAL/MOL
REMARK 923 INTER-LIGAND FREE ENERGY PREDICTED BY IDOCK:   -6.64 KCAL/MOL
REMARK 924 INTRA-LIGAND FREE ENERGY PREDICTED BY IDOCK:   -0.43 KCAL/MOL
REMARK 927      BINDING AFFINITY PREDICTED BY RF-SCORE:    0.00 PKD
ROOT
HETATM    1  C   UNL     1      -5.965  18.139  70.066  1.00  0.00    -0.167 C  
HETATM    2  N   UNL     1      -6.579  18.781  68.915  1.00  0.00    -0.256 NA 
HETATM    3  C   UNL     1      -6.331  20.204  68.791  1.00  0.00    -0.312 C  
HETATM    4  C   UNL     1      -6.940  20.863  67.573  1.00  0.00    -0.406 C  
HETATM    5  C   UNL     1      -7.860  20.037  66.705  1.00  0.00    -0.308 C  
HETATM    6  N   UNL     1      -8.040  18.647  67.070  1.00  0.00    -0.246 NA 
HETATM    7  H   UNL     1      -8.670  18.071  66.511  1.00  0.00     0.000 HD 
HETATM    8  C   UNL     1      -7.441  18.113  68.068  1.00  0.00    -0.240 C  
ENDROOT
BRANCH   8   9
HETATM    9  C   UNL     1      -7.751  16.603  68.340  1.00  0.00    -0.200 C  
BRANCH   9  10
HETATM   10  O   UNL     1      -9.094  16.151  68.193  1.00  0.00    -0.186 OA 
BRANCH  10  11
HETATM   11  C   UNL     1      -9.299  15.226  67.195  1.00  0.00    -0.216 C  
HETATM   12  C   UNL     1      -9.761  13.870  67.836  1.00  0.00    -0.231 C  
HETATM   13  O   UNL     1      -9.157  15.454  65.998  1.00  0.00    -0.322 OA 
HETATM   14  C   UNL     1      -9.147  12.701  67.029  1.00  0.00    -0.215 A  
HETATM   15  O   UNL     1      -9.232  13.763  69.165  1.00  0.00    -0.377 OA 
HETATM   16  C   UNL     1     -11.339  13.882  67.910  1.00  0.00    -0.320 C  
HETATM   17  C   UNL     1     -11.992  12.581  68.426  1.00  0.00    -0.271 C  
HETATM   18  C   UNL     1      -7.913  12.132  67.413  1.00  0.00    -0.168 A  
HETATM   19  H   UNL     1      -9.512  12.943  69.554  1.00  0.00     0.000 HD 
HETATM   20  C   UNL     1     -11.859  12.379  69.934  1.00  0.00    -0.376 C  
HETATM   21  C   UNL     1      -7.331  11.080  66.694  1.00  0.00    -0.143 A  
HETATM   22  C   UNL     1      -7.967  10.573  65.567  1.00  0.00    -0.145 A  
HETATM   23  C   UNL     1     -12.416  13.558  70.726  1.00  0.00    -0.428 C  
HETATM   24  C   UNL     1     -11.877  14.896  70.249  1.00  0.00    -0.358 C  
HETATM   25  C   UNL     1      -9.172  11.130  65.150  1.00  0.00    -0.209 A  
HETATM   26  C   UNL     1      -9.750  12.189  65.865  1.00  0.00    -0.253 A  
HETATM   27  C   UNL     1     -11.954  15.039  68.735  1.00  0.00    -0.282 C  
ENDBRANCH  10  11
ENDBRANCH   9  10
ENDBRANCH   8   9
TORSDOF 3
ENDMDL
MODEL       62
REMARK 921   NORMALIZED FREE ENERGY PREDICTED BY IDOCK:   -5.63 KCAL/MOL
REMARK 922        TOTAL FREE ENERGY PREDICTED BY IDOCK:   -7.06 KCAL/MOL
REMARK 923 INTER-LIGAND FREE ENERGY PREDICTED BY IDOCK:   -7.22 KCAL/MOL
REMARK 924 INTRA-LIGAND FREE ENERGY PREDICTED BY IDOCK:    0.16 KCAL/MOL
REMARK 927      BINDING AFFINITY PREDICTED BY RF-SCORE:    0.00 PKD
ROOT
HETATM    1  C   UNL     1     -12.979  14.023  65.236  1.00  0.00    -0.278 C  
HETATM    2  N   UNL     1     -12.045  13.213  64.470  1.00  0.00    -0.384 NA 
HETATM    3  C   UNL     1     -12.615  12.040  63.836  1.00  0.00    -0.406 C  
HETATM    4  C   UNL     1     -11.650  11.219  63.009  1.00  0.00     0.487 C  
HETATM    5  C   UNL     1     -10.187  11.594  63.046  1.00  0.00    -0.250 C  
HETATM    6  N   UNL     1      -9.823  12.759  63.825  1.00  0.00    -0.702 NA 
HETATM    7  H   UNL     1      -8.840  13.024  63.881  1.00  0.00     0.000 HD 
HETATM    8  C   UNL     1     -10.688  13.470  64.447  1.00  0.00    -0.388 C  
ENDROOT
BRANCH   8   9
HETATM    9  C   UNL     1     -10.136  14.691  65.256  1.00  0.00    -0.360 C  
BRANCH   9  10
HETATM   10  O   UNL     1      -9.385  14.434  66.440  1.00  0.00    -0.280 OA 
BRANCH  10  11
HETATM   11  C   UNL     1      -8.875  15.547  67.068  1.00  0.00    -0.230 C  
HETATM   12  C   UNL     1     -10.003  16.212  67.934  1.00  0.00    -0.239 C  
HETATM   13  O   UNL     1      -7.714  15.929  66.969  1.00  0.00    -0.192 OA 
HETATM   14  C   UNL     1      -9.836  17.749  67.878  1.00  0.00    -0.306 A  
HETATM   15  O   UNL     1     -11.284  15.924  67.357  1.00  0.00    -0.259 OA 
HETATM   16  C   UNL     1      -9.938  15.580  69.381  1.00  0.00    -0.277 C  
HETATM   17  C   UNL     1     -10.914  16.182  70.415  1.00  0.00    -0.320 C  
HETATM   18  C   UNL     1     -10.526  18.513  66.911  1.00  0.00    -0.434 A  
HETATM   19  H   UNL     1     -11.967  16.326  67.881  1.00  0.00     0.000 HD 
HETATM   20  C   UNL     1     -12.365  15.747  70.221  1.00  0.00    -0.341 C  
HETATM   21  C   UNL     1     -10.385  19.904  66.832  1.00  0.00    -0.596 A  
HETATM   22  C   UNL     1      -9.542  20.568  67.716  1.00  0.00    -0.420 A  
HETATM   23  C   UNL     1     -12.519  14.230  70.223  1.00  0.00    -0.422 C  
HETATM   24  C   UNL     1     -11.552  13.538  69.276  1.00  0.00    -0.369 C  
HETATM   25  C   UNL     1      -8.830  19.840  68.664  1.00  0.00    -0.244 A  
HETATM   26  C   UNL     1      -8.966  18.446  68.737  1.00  0.00    -0.253 A  
HETATM   27  C   UNL     1     -10.126  14.044  69.441  1.00  0.00     0.245 C  
ENDBRANCH  10  11
ENDBRANCH   9  10
ENDBRANCH   8   9
TORSDOF 3
ENDMDL
MODEL       63
REMARK 921   NORMALIZED FREE ENERGY PREDICTED BY IDOCK:   -5.62 KCAL/MOL
REMARK 922        TOTAL FREE ENERGY PREDICTED BY IDOCK:   -7.06 KCAL/MOL
REMARK 923 INTER-LIGAND FREE ENERGY PREDICTED BY IDOCK:   -6.48 KCAL/MOL
REMARK 924 INTRA-LIGAND FREE ENERGY PREDICTED BY IDOCK:   -0.58 KCAL/MOL
REMARK 927      BINDING AFFINITY PREDICTED BY RF-SCORE:    0.00 PKD
ROOT
HETATM    1  C   UNL     1     -10.811   8.945  71.509  1.00  0.00    -0.326 C  
HETATM    2  N   UNL     1     -10.616   8.141  70.312  1.00  0.00    -0.224 NA 
HETATM    3  C   UNL     1     -11.230   6.828  70.340  1.00  0.00    -0.328 C  
HETATM    4  C   UNL     1     -11.058   6.008  69.080  1.00  0.00    -0.405 C  
HETATM    5  C   UNL     1     -10.153   6.550  67.998  1.00  0.00    -0.150 C  
HETATM    6  N   UNL     1      -9.564   7.853  68.222  1.00  0.00    -0.153 NA 
HETATM    7  H   UNL     1      -8.936   8.235  67.516  1.00  0.00     0.000 HD 
HETATM    8  C   UNL     1      -9.801   8.546  69.273  1.00  0.00    -0.185 C  
ENDROOT
BRANCH   8   9
HETATM    9  C   UNL     1      -9.079   9.931  69.373  1.00  0.00    -0.206 C  
BRANCH   9  10
HETATM   10  O   UNL     1      -9.178  10.827  68.270  1.00  0.00    -0.145 OA 
BRANCH  10  11
HETATM   11  C   UNL     1     -10.044  11.883  68.445  1.00  0.00    -0.206 C  
HETATM   12  C   UNL     1     -10.040  12.772  67.151  1.00  0.00    -0.234 C  
HETATM   13  O   UNL     1     -10.718  12.068  69.452  1.00  0.00    -0.089 OA 
HETATM   14  C   UNL     1     -10.180  14.256  67.564  1.00  0.00    -0.240 A  
HETATM   15  O   UNL     1      -8.770  12.655  66.493  1.00  0.00    -0.392 OA 
HETATM   16  C   UNL     1     -11.170  12.231  66.188  1.00  0.00    -0.372 C  
HETATM   17  C   UNL     1     -11.388  13.044  64.894  1.00  0.00    -0.332 C  
HETATM   18  C   UNL     1      -9.035  15.057  67.773  1.00  0.00    -0.179 A  
HETATM   19  H   UNL     1      -8.767  13.193  65.710  1.00  0.00     0.000 HD 
HETATM   20  C   UNL     1     -10.301  12.835  63.842  1.00  0.00    -0.352 C  
HETATM   21  C   UNL     1      -9.135  16.400  68.156  1.00  0.00    -0.201 A  
HETATM   22  C   UNL     1     -10.385  16.977  68.349  1.00  0.00    -0.351 A  
HETATM   23  C   UNL     1     -10.127  11.364  63.476  1.00  0.00    -0.437 C  
HETATM   24  C   UNL     1      -9.966  10.469  64.693  1.00  0.00    -0.415 C  
HETATM   25  C   UNL     1     -11.530  16.206  68.177  1.00  0.00    -0.220 A  
HETATM   26  C   UNL     1     -11.430  14.859  67.800  1.00  0.00    -0.353 A  
HETATM   27  C   UNL     1     -11.019  10.751  65.757  1.00  0.00     0.021 C  
ENDBRANCH  10  11
ENDBRANCH   9  10
ENDBRANCH   8   9
TORSDOF 3
ENDMDL
MODEL       64
REMARK 921   NORMALIZED FREE ENERGY PREDICTED BY IDOCK:   -5.62 KCAL/MOL
REMARK 922        TOTAL FREE ENERGY PREDICTED BY IDOCK:   -7.06 KCAL/MOL
REMARK 923 INTER-LIGAND FREE ENERGY PREDICTED BY IDOCK:   -6.47 KCAL/MOL
REMARK 924 INTRA-LIGAND FREE ENERGY PREDICTED BY IDOCK:   -0.59 KCAL/MOL
REMARK 927      BINDING AFFINITY PREDICTED BY RF-SCORE:    0.00 PKD
ROOT
HETATM    1  C   UNL     1     -10.062   8.972  71.565  1.00  0.00    -0.339 C  
HETATM    2  N   UNL     1     -11.508   8.886  71.434  1.00  0.00    -0.286 NA 
HETATM    3  C   UNL     1     -12.090   7.610  71.803  1.00  0.00    -0.305 C  
HETATM    4  C   UNL     1     -13.597   7.533  71.702  1.00  0.00    -0.442 C  
HETATM    5  C   UNL     1     -14.328   8.706  71.091  1.00  0.00    -0.055 C  
HETATM    6  N   UNL     1     -13.531   9.851  70.703  1.00  0.00    -0.572 NA 
HETATM    7  H   UNL     1     -13.997  10.650  70.273  1.00  0.00     0.000 HD 
HETATM    8  C   UNL     1     -12.263   9.900  70.881  1.00  0.00    -0.328 C  
ENDROOT
BRANCH   8   9
HETATM    9  C   UNL     1     -11.542  11.203  70.397  1.00  0.00    -0.259 C  
BRANCH   9  10
HETATM   10  O   UNL     1     -11.466  11.453  68.997  1.00  0.00    -0.243 OA 
BRANCH  10  11
HETATM   11  C   UNL     1     -10.210  11.335  68.444  1.00  0.00    -0.195 C  
HETATM   12  C   UNL     1     -10.328  11.389  66.880  1.00  0.00    -0.227 C  
HETATM   13  O   UNL     1      -9.175  11.228  69.092  1.00  0.00    -0.053 OA 
HETATM   14  C   UNL     1      -9.285  10.425  66.267  1.00  0.00    -0.195 A  
HETATM   15  O   UNL     1     -11.615  10.899  66.479  1.00  0.00    -0.118 OA 
HETATM   16  C   UNL     1     -10.192  12.900  66.435  1.00  0.00    -0.273 C  
HETATM   17  C   UNL     1     -10.185  13.147  64.912  1.00  0.00    -0.306 C  
HETATM   18  C   UNL     1      -9.631   9.090  65.961  1.00  0.00    -0.342 A  
HETATM   19  H   UNL     1     -11.687  10.931  65.532  1.00  0.00     0.000 HD 
HETATM   20  C   UNL     1     -11.557  13.011  64.257  1.00  0.00    -0.437 C  
HETATM   21  C   UNL     1      -8.704   8.194  65.414  1.00  0.00    -0.128 A  
HETATM   22  C   UNL     1      -7.401   8.610  65.166  1.00  0.00    -0.088 A  
HETATM   23  C   UNL     1     -12.597  13.924  64.899  1.00  0.00    -0.380 C  
HETATM   24  C   UNL     1     -12.638  13.797  66.413  1.00  0.00    -0.309 C  
HETATM   25  C   UNL     1      -7.023   9.911  65.480  1.00  0.00    -0.110 A  
HETATM   26  C   UNL     1      -7.950  10.805  66.035  1.00  0.00    -0.154 A  
HETATM   27  C   UNL     1     -11.248  13.862  67.032  1.00  0.00    -0.327 C  
ENDBRANCH  10  11
ENDBRANCH   9  10
ENDBRANCH   8   9
TORSDOF 3
ENDMDL
MODEL       65
REMARK 921   NORMALIZED FREE ENERGY PREDICTED BY IDOCK:   -5.62 KCAL/MOL
REMARK 922        TOTAL FREE ENERGY PREDICTED BY IDOCK:   -7.06 KCAL/MOL
REMARK 923 INTER-LIGAND FREE ENERGY PREDICTED BY IDOCK:   -7.50 KCAL/MOL
REMARK 924 INTRA-LIGAND FREE ENERGY PREDICTED BY IDOCK:    0.44 KCAL/MOL
REMARK 927      BINDING AFFINITY PREDICTED BY RF-SCORE:    0.00 PKD
ROOT
HETATM    1  C   UNL     1     -11.354  11.756  69.219  1.00  0.00    -0.286 C  
HETATM    2  N   UNL     1     -12.165  12.328  70.282  1.00  0.00    -0.301 NA 
HETATM    3  C   UNL     1     -12.296  13.772  70.255  1.00  0.00    -0.337 C  
HETATM    4  C   UNL     1     -13.171  14.362  71.339  1.00  0.00    -0.418 C  
HETATM    5  C   UNL     1     -13.687  13.437  72.417  1.00  0.00    -0.597 C  
HETATM    6  N   UNL     1     -13.355  12.032  72.296  1.00  0.00    -0.546 NA 
HETATM    7  H   UNL     1     -13.676  11.389  73.019  1.00  0.00     0.000 HD 
HETATM    8  C   UNL     1     -12.674  11.567  71.315  1.00  0.00    -0.364 C  
ENDROOT
BRANCH   8   9
HETATM    9  C   UNL     1     -12.388  10.028  71.334  1.00  0.00    -0.415 C  
BRANCH   9  10
HETATM   10  O   UNL     1     -11.321   9.529  70.533  1.00  0.00    -0.255 OA 
BRANCH  10  11
HETATM   11  C   UNL     1     -10.419   8.723  71.189  1.00  0.00    -0.245 C  
HETATM   12  C   UNL     1     -10.486   7.276  70.583  1.00  0.00    -0.214 C  
HETATM   13  O   UNL     1      -9.675   9.101  72.087  1.00  0.00    -0.249 OA 
HETATM   14  C   UNL     1     -10.279   6.248  71.720  1.00  0.00    -0.224 A  
HETATM   15  O   UNL     1     -11.798   7.037  70.056  1.00  0.00    -0.569 OA 
HETATM   16  C   UNL     1      -9.436   7.195  69.403  1.00  0.00    -0.153 C  
HETATM   17  C   UNL     1      -9.283   5.809  68.742  1.00  0.00    -0.128 C  
HETATM   18  C   UNL     1     -11.386   5.702  72.407  1.00  0.00    -0.327 A  
HETATM   19  H   UNL     1     -11.839   6.161  69.690  1.00  0.00     0.000 HD 
HETATM   20  C   UNL     1     -10.442   5.433  67.822  1.00  0.00    -0.208 C  
HETATM   21  C   UNL     1     -11.226   4.777  73.446  1.00  0.00    -0.425 A  
HETATM   22  C   UNL     1      -9.951   4.379  73.832  1.00  0.00    -0.188 A  
HETATM   23  C   UNL     1     -10.679   6.475  66.733  1.00  0.00    -0.344 C  
HETATM   24  C   UNL     1     -10.782   7.888  67.283  1.00  0.00    -0.299 C  
HETATM   25  C   UNL     1      -8.841   4.918  73.192  1.00  0.00    -0.112 A  
HETATM   26  C   UNL     1      -9.001   5.851  72.156  1.00  0.00    -0.143 A  
HETATM   27  C   UNL     1      -9.654   8.210  68.255  1.00  0.00    -0.154 C  
ENDBRANCH  10  11
ENDBRANCH   9  10
ENDBRANCH   8   9
TORSDOF 3
ENDMDL
MODEL       66
REMARK 921   NORMALIZED FREE ENERGY PREDICTED BY IDOCK:   -5.60 KCAL/MOL
REMARK 922        TOTAL FREE ENERGY PREDICTED BY IDOCK:   -7.04 KCAL/MOL
REMARK 923 INTER-LIGAND FREE ENERGY PREDICTED BY IDOCK:   -6.29 KCAL/MOL
REMARK 924 INTRA-LIGAND FREE ENERGY PREDICTED BY IDOCK:   -0.75 KCAL/MOL
REMARK 927      BINDING AFFINITY PREDICTED BY RF-SCORE:    0.00 PKD
ROOT
HETATM    1  C   UNL     1      -6.592   5.460  68.007  1.00  0.00    -0.049 C  
HETATM    2  N   UNL     1      -7.976   5.532  67.568  1.00  0.00    -0.101 NA 
HETATM    3  C   UNL     1      -8.404   4.465  66.685  1.00  0.00    -0.105 C  
HETATM    4  C   UNL     1      -9.855   4.520  66.259  1.00  0.00    -0.244 C  
HETATM    5  C   UNL     1     -10.663   5.736  66.650  1.00  0.00    -0.262 C  
HETATM    6  N   UNL     1     -10.002   6.733  67.465  1.00  0.00    -0.133 NA 
HETATM    7  H   UNL     1     -10.520   7.572  67.729  1.00  0.00     0.000 HD 
HETATM    8  C   UNL     1      -8.793   6.605  67.867  1.00  0.00    -0.115 C  
ENDROOT
BRANCH   8   9
HETATM    9  C   UNL     1      -8.217   7.777  68.730  1.00  0.00    -0.128 C  
BRANCH   9  10
HETATM   10  O   UNL     1      -8.971   8.222  69.854  1.00  0.00    -0.138 OA 
BRANCH  10  11
HETATM   11  C   UNL     1      -9.280   9.564  69.862  1.00  0.00    -0.220 C  
HETATM   12  C   UNL     1     -10.838   9.733  69.765  1.00  0.00    -0.257 C  
HETATM   13  O   UNL     1      -8.455  10.465  69.953  1.00  0.00    -0.087 OA 
HETATM   14  C   UNL     1     -11.153  10.979  68.904  1.00  0.00    -0.295 A  
HETATM   15  O   UNL     1     -11.401   8.610  69.072  1.00  0.00    -0.322 OA 
HETATM   16  C   UNL     1     -11.414   9.769  71.237  1.00  0.00    -0.457 C  
HETATM   17  C   UNL     1     -12.930  10.031  71.352  1.00  0.00    -0.517 C  
HETATM   18  C   UNL     1     -11.367  10.856  67.513  1.00  0.00    -0.309 A  
HETATM   19  H   UNL     1     -12.343   8.713  69.013  1.00  0.00     0.000 HD 
HETATM   20  C   UNL     1     -13.795   8.830  70.975  1.00  0.00     0.011 C  
HETATM   21  C   UNL     1     -11.644  11.969  66.709  1.00  0.00    -0.391 A  
HETATM   22  C   UNL     1     -11.706  13.237  67.275  1.00  0.00    -0.424 A  
HETATM   23  C   UNL     1     -13.446   7.588  71.789  1.00  0.00    -0.381 C  
HETATM   24  C   UNL     1     -11.958   7.282  71.787  1.00  0.00    -0.342 C  
HETATM   25  C   UNL     1     -11.474  13.392  68.638  1.00  0.00    -0.345 A  
HETATM   26  C   UNL     1     -11.189  12.279  69.441  1.00  0.00    -0.243 A  
HETATM   27  C   UNL     1     -11.117   8.514  72.094  1.00  0.00    -0.436 C  
ENDBRANCH  10  11
ENDBRANCH   9  10
ENDBRANCH   8   9
TORSDOF 3
ENDMDL
MODEL       67
REMARK 921   NORMALIZED FREE ENERGY PREDICTED BY IDOCK:   -5.60 KCAL/MOL
REMARK 922        TOTAL FREE ENERGY PREDICTED BY IDOCK:   -7.03 KCAL/MOL
REMARK 923 INTER-LIGAND FREE ENERGY PREDICTED BY IDOCK:   -6.47 KCAL/MOL
REMARK 924 INTRA-LIGAND FREE ENERGY PREDICTED BY IDOCK:   -0.56 KCAL/MOL
REMARK 927      BINDING AFFINITY PREDICTED BY RF-SCORE:    0.00 PKD
ROOT
HETATM    1  C   UNL     1      -5.550  10.731  65.769  1.00  0.00    -0.145 C  
HETATM    2  N   UNL     1      -6.631   9.803  66.060  1.00  0.00    -0.078 NA 
HETATM    3  C   UNL     1      -6.596   8.557  65.319  1.00  0.00    -0.063 C  
HETATM    4  C   UNL     1      -7.700   7.577  65.651  1.00  0.00    -0.100 C  
HETATM    5  C   UNL     1      -8.800   8.035  66.580  1.00  0.00    -0.145 C  
HETATM    6  N   UNL     1      -8.681   9.365  67.140  1.00  0.00    -0.127 NA 
HETATM    7  H   UNL     1      -9.418   9.705  67.756  1.00  0.00     0.000 HD 
HETATM    8  C   UNL     1      -7.685  10.131  66.890  1.00  0.00    -0.103 C  
ENDROOT
BRANCH   8   9
HETATM    9  C   UNL     1      -7.708  11.545  67.561  1.00  0.00    -0.132 C  
BRANCH   9  10
HETATM   10  O   UNL     1      -8.184  12.649  66.795  1.00  0.00    -0.100 OA 
BRANCH  10  11
HETATM   11  C   UNL     1      -8.856  13.615  67.509  1.00  0.00    -0.205 C  
HETATM   12  C   UNL     1      -9.895  14.322  66.568  1.00  0.00    -0.288 C  
HETATM   13  O   UNL     1      -8.670  13.855  68.697  1.00  0.00    -0.158 OA 
HETATM   14  C   UNL     1      -9.965  15.822  66.938  1.00  0.00    -0.247 A  
HETATM   15  O   UNL     1      -9.432  14.262  65.212  1.00  0.00    -0.504 OA 
HETATM   16  C   UNL     1     -11.262  13.536  66.679  1.00  0.00    -0.328 C  
HETATM   17  C   UNL     1     -12.445  14.143  65.895  1.00  0.00    -0.479 C  
HETATM   18  C   UNL     1      -9.152  16.766  66.273  1.00  0.00    -0.320 A  
HETATM   19  H   UNL     1     -10.061  14.690  64.642  1.00  0.00     0.000 HD 
HETATM   20  C   UNL     1     -12.366  13.920  64.387  1.00  0.00    -0.400 C  
HETATM   21  C   UNL     1      -9.189  18.129  66.595  1.00  0.00    -0.295 A  
HETATM   22  C   UNL     1     -10.037  18.582  67.599  1.00  0.00    -0.390 A  
HETATM   23  C   UNL     1     -12.242  12.443  64.027  1.00  0.00    -0.579 C  
HETATM   24  C   UNL     1     -11.138  11.739  64.798  1.00  0.00    -0.356 C  
HETATM   25  C   UNL     1     -10.832  17.673  68.289  1.00  0.00    -0.195 A  
HETATM   26  C   UNL     1     -10.788  16.307  67.972  1.00  0.00    -0.339 A  
HETATM   27  C   UNL     1     -11.197  12.039  66.290  1.00  0.00    -0.394 C  
ENDBRANCH  10  11
ENDBRANCH   9  10
ENDBRANCH   8   9
TORSDOF 3
ENDMDL
MODEL       68
REMARK 921   NORMALIZED FREE ENERGY PREDICTED BY IDOCK:   -5.58 KCAL/MOL
REMARK 922        TOTAL FREE ENERGY PREDICTED BY IDOCK:   -7.01 KCAL/MOL
REMARK 923 INTER-LIGAND FREE ENERGY PREDICTED BY IDOCK:   -6.57 KCAL/MOL
REMARK 924 INTRA-LIGAND FREE ENERGY PREDICTED BY IDOCK:   -0.44 KCAL/MOL
REMARK 927      BINDING AFFINITY PREDICTED BY RF-SCORE:    0.00 PKD
ROOT
HETATM    1  C   UNL     1      -9.845   6.959  70.020  1.00  0.00    -0.173 C  
HETATM    2  N   UNL     1      -8.753   7.897  70.230  1.00  0.00    -0.137 NA 
HETATM    3  C   UNL     1      -7.451   7.297  70.446  1.00  0.00    -0.083 C  
HETATM    4  C   UNL     1      -6.310   8.274  70.627  1.00  0.00    -0.036 C  
HETATM    5  C   UNL     1      -6.644   9.744  70.723  1.00  0.00    -0.088 C  
HETATM    6  N   UNL     1      -8.035  10.117  70.569  1.00  0.00    -0.405 NA 
HETATM    7  H   UNL     1      -8.290  11.101  70.647  1.00  0.00     0.000 HD 
HETATM    8  C   UNL     1      -8.957   9.258  70.340  1.00  0.00    -0.239 C  
ENDROOT
BRANCH   8   9
HETATM    9  C   UNL     1     -10.414   9.818  70.211  1.00  0.00    -0.288 C  
BRANCH   9  10
HETATM   10  O   UNL     1     -10.616  11.008  69.454  1.00  0.00    -0.223 OA 
BRANCH  10  11
HETATM   11  C   UNL     1     -11.691  11.776  69.840  1.00  0.00    -0.323 C  
HETATM   12  C   UNL     1     -11.491  13.242  69.316  1.00  0.00    -0.288 C  
HETATM   13  O   UNL     1     -12.653  11.355  70.474  1.00  0.00    -0.281 OA 
HETATM   14  C   UNL     1     -12.045  14.230  70.370  1.00  0.00    -0.409 A  
HETATM   15  O   UNL     1     -10.089  13.522  69.199  1.00  0.00    -0.425 OA 
HETATM   16  C   UNL     1     -12.156  13.341  67.886  1.00  0.00    -0.270 C  
HETATM   17  C   UNL     1     -12.148  14.744  67.243  1.00  0.00    -0.120 C  
HETATM   18  C   UNL     1     -11.199  14.774  71.362  1.00  0.00    -0.011 A  
HETATM   19  H   UNL     1      -9.967  14.410  68.882  1.00  0.00     0.000 HD 
HETATM   20  C   UNL     1     -10.783  15.171  66.708  1.00  0.00    -0.311 C  
HETATM   21  C   UNL     1     -11.678  15.662  72.333  1.00  0.00    -0.574 A  
HETATM   22  C   UNL     1     -13.020  16.024  72.342  1.00  0.00    -0.440 A  
HETATM   23  C   UNL     1     -10.214  14.168  65.709  1.00  0.00    -0.347 C  
HETATM   24  C   UNL     1     -10.236  12.741  66.230  1.00  0.00    -0.264 C  
HETATM   25  C   UNL     1     -13.883  15.485  71.394  1.00  0.00    -0.501 A  
HETATM   26  C   UNL     1     -13.405  14.589  70.426  1.00  0.00     0.110 A  
HETATM   27  C   UNL     1     -11.587  12.367  66.824  1.00  0.00    -0.444 C  
ENDBRANCH  10  11
ENDBRANCH   9  10
ENDBRANCH   8   9
TORSDOF 3
ENDMDL
MODEL       69
REMARK 921   NORMALIZED FREE ENERGY PREDICTED BY IDOCK:   -5.57 KCAL/MOL
REMARK 922        TOTAL FREE ENERGY PREDICTED BY IDOCK:   -7.00 KCAL/MOL
REMARK 923 INTER-LIGAND FREE ENERGY PREDICTED BY IDOCK:   -6.56 KCAL/MOL
REMARK 924 INTRA-LIGAND FREE ENERGY PREDICTED BY IDOCK:   -0.44 KCAL/MOL
REMARK 927      BINDING AFFINITY PREDICTED BY RF-SCORE:    0.00 PKD
ROOT
HETATM    1  C   UNL     1      -6.999   6.822  65.348  1.00  0.00    -0.059 C  
HETATM    2  N   UNL     1      -8.306   6.372  65.801  1.00  0.00    -0.140 NA 
HETATM    3  C   UNL     1      -8.564   4.953  65.640  1.00  0.00    -0.131 C  
HETATM    4  C   UNL     1      -9.909   4.480  66.146  1.00  0.00    -0.243 C  
HETATM    5  C   UNL     1     -10.898   5.523  66.614  1.00  0.00    -0.179 C  
HETATM    6  N   UNL     1     -10.459   6.902  66.603  1.00  0.00    -0.487 NA 
HETATM    7  H   UNL     1     -11.112   7.627  66.897  1.00  0.00     0.000 HD 
HETATM    8  C   UNL     1      -9.280   7.247  66.237  1.00  0.00    -0.130 C  
ENDROOT
BRANCH   8   9
HETATM    9  C   UNL     1      -8.961   8.779  66.269  1.00  0.00    -0.173 C  
BRANCH   9  10
HETATM   10  O   UNL     1     -10.050   9.694  66.356  1.00  0.00    -0.240 OA 
BRANCH  10  11
HETATM   11  C   UNL     1      -9.730  11.014  66.129  1.00  0.00    -0.217 C  
HETATM   12  C   UNL     1     -10.755  11.930  66.888  1.00  0.00    -0.246 C  
HETATM   13  O   UNL     1      -8.778  11.391  65.455  1.00  0.00    -0.109 OA 
HETATM   14  C   UNL     1     -11.036  13.185  66.028  1.00  0.00    -0.295 A  
HETATM   15  O   UNL     1     -12.007  11.243  67.019  1.00  0.00    -0.401 OA 
HETATM   16  C   UNL     1     -10.173  12.218  68.329  1.00  0.00    -0.221 C  
HETATM   17  C   UNL     1     -10.998  13.190  69.199  1.00  0.00    -0.194 C  
HETATM   18  C   UNL     1     -12.120  13.210  65.123  1.00  0.00    -0.463 A  
HETATM   19  H   UNL     1     -12.628  11.797  67.478  1.00  0.00     0.000 HD 
HETATM   20  C   UNL     1     -12.276  12.578  69.767  1.00  0.00    -0.199 C  
HETATM   21  C   UNL     1     -12.390  14.329  64.326  1.00  0.00    -0.407 A  
HETATM   22  C   UNL     1     -11.576  15.453  64.408  1.00  0.00    -0.265 A  
HETATM   23  C   UNL     1     -12.003  11.310  70.570  1.00  0.00    -0.467 C  
HETATM   24  C   UNL     1     -11.140  10.311  69.817  1.00  0.00    -0.340 C  
HETATM   25  C   UNL     1     -10.485  15.449  65.271  1.00  0.00    -0.440 A  
HETATM   26  C   UNL     1     -10.210  14.324  66.063  1.00  0.00    -0.327 A  
HETATM   27  C   UNL     1      -9.911  10.964  69.198  1.00  0.00    -0.181 C  
ENDBRANCH  10  11
ENDBRANCH   9  10
ENDBRANCH   8   9
TORSDOF 3
ENDMDL
MODEL       70
REMARK 921   NORMALIZED FREE ENERGY PREDICTED BY IDOCK:   -5.53 KCAL/MOL
REMARK 922        TOTAL FREE ENERGY PREDICTED BY IDOCK:   -6.95 KCAL/MOL
REMARK 923 INTER-LIGAND FREE ENERGY PREDICTED BY IDOCK:   -5.93 KCAL/MOL
REMARK 924 INTRA-LIGAND FREE ENERGY PREDICTED BY IDOCK:   -1.02 KCAL/MOL
REMARK 927      BINDING AFFINITY PREDICTED BY RF-SCORE:    0.00 PKD
ROOT
HETATM    1  C   UNL     1     -10.168  17.792  68.842  1.00  0.00    -0.345 C  
HETATM    2  N   UNL     1      -8.999  17.672  67.986  1.00  0.00    -0.258 NA 
HETATM    3  C   UNL     1      -8.971  18.566  66.844  1.00  0.00    -0.280 C  
HETATM    4  C   UNL     1      -7.738  18.466  65.975  1.00  0.00    -0.200 C  
HETATM    5  C   UNL     1      -6.746  17.365  66.273  1.00  0.00    -0.260 C  
HETATM    6  N   UNL     1      -7.021  16.521  67.417  1.00  0.00    -0.140 NA 
HETATM    7  H   UNL     1      -6.378  15.760  67.631  1.00  0.00     0.000 HD 
HETATM    8  C   UNL     1      -8.042  16.694  68.171  1.00  0.00    -0.186 C  
ENDROOT
BRANCH   8   9
HETATM    9  C   UNL     1      -8.207  15.690  69.362  1.00  0.00    -0.236 C  
BRANCH   9  10
HETATM   10  O   UNL     1      -8.460  14.321  69.061  1.00  0.00    -0.081 OA 
BRANCH  10  11
HETATM   11  C   UNL     1      -9.704  14.052  68.538  1.00  0.00    -0.215 C  
HETATM   12  C   UNL     1      -9.538  13.262  67.191  1.00  0.00    -0.240 C  
HETATM   13  O   UNL     1     -10.763  14.371  69.068  1.00  0.00    -0.244 OA 
HETATM   14  C   UNL     1     -10.637  13.720  66.204  1.00  0.00    -0.291 A  
HETATM   15  O   UNL     1      -8.283  13.604  66.586  1.00  0.00    -0.397 OA 
HETATM   16  C   UNL     1      -9.539  11.718  67.533  1.00  0.00    -0.179 C  
HETATM   17  C   UNL     1      -9.484  10.768  66.318  1.00  0.00    -0.213 C  
HETATM   18  C   UNL     1     -10.391  14.766  65.288  1.00  0.00    -0.425 A  
HETATM   19  H   UNL     1      -8.182  13.126  65.771  1.00  0.00     0.000 HD 
HETATM   20  C   UNL     1      -8.109  10.686  65.659  1.00  0.00    -0.146 C  
HETATM   21  C   UNL     1     -11.371  15.206  64.390  1.00  0.00    -0.211 A  
HETATM   22  C   UNL     1     -12.629  14.615  64.390  1.00  0.00    -0.157 A  
HETATM   23  C   UNL     1      -7.018  10.287  66.647  1.00  0.00    -0.103 C  
HETATM   24  C   UNL     1      -7.030  11.130  67.912  1.00  0.00    -0.069 C  
HETATM   25  C   UNL     1     -12.910  13.599  65.298  1.00  0.00    -0.421 A  
HETATM   26  C   UNL     1     -11.930  13.165  66.203  1.00  0.00    -0.478 A  
HETATM   27  C   UNL     1      -8.427  11.255  68.505  1.00  0.00    -0.156 C  
ENDBRANCH  10  11
ENDBRANCH   9  10
ENDBRANCH   8   9
TORSDOF 3
ENDMDL
MODEL       71
REMARK 921   NORMALIZED FREE ENERGY PREDICTED BY IDOCK:   -5.45 KCAL/MOL
REMARK 922        TOTAL FREE ENERGY PREDICTED BY IDOCK:   -6.86 KCAL/MOL
REMARK 923 INTER-LIGAND FREE ENERGY PREDICTED BY IDOCK:   -6.49 KCAL/MOL
REMARK 924 INTRA-LIGAND FREE ENERGY PREDICTED BY IDOCK:   -0.37 KCAL/MOL
REMARK 927      BINDING AFFINITY PREDICTED BY RF-SCORE:    0.00 PKD
ROOT
HETATM    1  C   UNL     1     -13.852  10.547  72.172  1.00  0.00     0.215 C  
HETATM    2  N   UNL     1     -13.236  11.792  71.740  1.00  0.00    -0.420 NA 
HETATM    3  C   UNL     1     -13.757  12.992  72.365  1.00  0.00    -0.494 C  
HETATM    4  C   UNL     1     -13.090  14.282  71.943  1.00  0.00    -0.445 C  
HETATM    5  C   UNL     1     -12.078  14.224  70.821  1.00  0.00    -0.348 C  
HETATM    6  N   UNL     1     -11.774  12.919  70.274  1.00  0.00    -0.544 NA 
HETATM    7  H   UNL     1     -11.108  12.853  69.505  1.00  0.00     0.000 HD 
HETATM    8  C   UNL     1     -12.309  11.843  70.719  1.00  0.00    -0.320 C  
ENDROOT
BRANCH   8   9
HETATM    9  C   UNL     1     -11.886  10.511  70.013  1.00  0.00    -0.308 C  
BRANCH   9  10
HETATM   10  O   UNL     1     -10.752  10.534  69.152  1.00  0.00    -0.201 OA 
BRANCH  10  11
HETATM   11  C   UNL     1     -10.918  11.230  67.976  1.00  0.00    -0.247 C  
HETATM   12  C   UNL     1      -9.533  11.815  67.523  1.00  0.00    -0.174 C  
HETATM   13  O   UNL     1     -11.985  11.345  67.383  1.00  0.00    -0.606 OA 
HETATM   14  C   UNL     1      -9.762  13.203  66.880  1.00  0.00    -0.243 A  
HETATM   15  O   UNL     1      -8.706  12.035  68.674  1.00  0.00    -0.312 OA 
HETATM   16  C   UNL     1      -8.839  10.746  66.588  1.00  0.00    -0.151 C  
HETATM   17  C   UNL     1      -7.499  11.182  65.958  1.00  0.00     0.036 C  
HETATM   18  C   UNL     1      -9.681  14.379  67.658  1.00  0.00    -0.219 A  
HETATM   19  H   UNL     1      -7.867  12.389  68.400  1.00  0.00     0.000 HD 
HETATM   20  C   UNL     1      -6.327  11.182  66.937  1.00  0.00    -0.114 C  
HETATM   21  C   UNL     1      -9.893  15.647  67.102  1.00  0.00    -0.229 A  
HETATM   22  C   UNL     1     -10.202  15.771  65.753  1.00  0.00    -0.394 A  
HETATM   23  C   UNL     1      -6.136   9.826  67.610  1.00  0.00    -0.051 C  
HETATM   24  C   UNL     1      -7.421   9.281  68.211  1.00  0.00    -0.079 C  
HETATM   25  C   UNL     1     -10.314  14.629  64.966  1.00  0.00    -0.432 A  
HETATM   26  C   UNL     1     -10.109  13.359  65.525  1.00  0.00    -0.279 A  
HETATM   27  C   UNL     1      -8.590   9.362  67.238  1.00  0.00    -0.129 C  
ENDBRANCH  10  11
ENDBRANCH   9  10
ENDBRANCH   8   9
TORSDOF 3
ENDMDL
MODEL       72
REMARK 921   NORMALIZED FREE ENERGY PREDICTED BY IDOCK:   -5.43 KCAL/MOL
REMARK 922        TOTAL FREE ENERGY PREDICTED BY IDOCK:   -6.84 KCAL/MOL
REMARK 923 INTER-LIGAND FREE ENERGY PREDICTED BY IDOCK:   -6.33 KCAL/MOL
REMARK 924 INTRA-LIGAND FREE ENERGY PREDICTED BY IDOCK:   -0.51 KCAL/MOL
REMARK 927      BINDING AFFINITY PREDICTED BY RF-SCORE:    0.00 PKD
ROOT
HETATM    1  C   UNL     1     -10.011  13.103  66.131  1.00  0.00    -0.291 C  
HETATM    2  N   UNL     1     -10.639  13.439  67.399  1.00  0.00    -0.250 NA 
HETATM    3  C   UNL     1     -11.408  14.668  67.405  1.00  0.00    -0.356 C  
HETATM    4  C   UNL     1     -12.091  14.996  68.714  1.00  0.00    -0.215 C  
HETATM    5  C   UNL     1     -11.790  14.124  69.910  1.00  0.00    -0.325 C  
HETATM    6  N   UNL     1     -10.913  12.992  69.697  1.00  0.00    -0.448 NA 
HETATM    7  H   UNL     1     -10.680  12.396  70.491  1.00  0.00     0.000 HD 
HETATM    8  C   UNL     1     -10.419  12.709  68.550  1.00  0.00    -0.234 C  
ENDROOT
BRANCH   8   9
HETATM    9  C   UNL     1      -9.478  11.459  68.485  1.00  0.00    -0.183 C  
BRANCH   9  10
HETATM   10  O   UNL     1      -9.876  10.278  69.175  1.00  0.00    -0.194 OA 
BRANCH  10  11
HETATM   11  C   UNL     1     -10.389   9.276  68.382  1.00  0.00    -0.209 C  
HETATM   12  C   UNL     1     -10.110   7.888  69.061  1.00  0.00    -0.200 C  
HETATM   13  O   UNL     1     -10.984   9.463  67.327  1.00  0.00    -0.183 OA 
HETATM   14  C   UNL     1      -9.805   6.845  67.959  1.00  0.00    -0.153 A  
HETATM   15  O   UNL     1      -8.928   7.978  69.869  1.00  0.00    -0.143 OA 
HETATM   16  C   UNL     1     -11.342   7.546  69.990  1.00  0.00    -0.115 C  
HETATM   17  C   UNL     1     -11.298   6.163  70.673  1.00  0.00    -0.368 C  
HETATM   18  C   UNL     1      -8.475   6.593  67.555  1.00  0.00    -0.121 A  
HETATM   19  H   UNL     1      -8.759   7.138  70.280  1.00  0.00     0.000 HD 
HETATM   20  C   UNL     1     -10.315   6.080  71.838  1.00  0.00    -0.251 C  
HETATM   21  C   UNL     1      -8.173   5.661  66.554  1.00  0.00    -0.106 A  
HETATM   22  C   UNL     1      -9.196   4.962  65.924  1.00  0.00    -0.155 A  
HETATM   23  C   UNL     1     -10.584   7.144  72.897  1.00  0.00    -0.317 C  
HETATM   24  C   UNL     1     -10.707   8.541  72.312  1.00  0.00    -0.411 C  
HETATM   25  C   UNL     1     -10.517   5.208  66.283  1.00  0.00    -0.341 A  
HETATM   26  C   UNL     1     -10.820   6.147  67.280  1.00  0.00    -0.438 A  
HETATM   27  C   UNL     1     -11.635   8.579  71.105  1.00  0.00    -0.325 C  
ENDBRANCH  10  11
ENDBRANCH   9  10
ENDBRANCH   8   9
TORSDOF 3
ENDMDL
MODEL       73
REMARK 921   NORMALIZED FREE ENERGY PREDICTED BY IDOCK:   -5.42 KCAL/MOL
REMARK 922        TOTAL FREE ENERGY PREDICTED BY IDOCK:   -6.82 KCAL/MOL
REMARK 923 INTER-LIGAND FREE ENERGY PREDICTED BY IDOCK:   -6.06 KCAL/MOL
REMARK 924 INTRA-LIGAND FREE ENERGY PREDICTED BY IDOCK:   -0.76 KCAL/MOL
REMARK 927      BINDING AFFINITY PREDICTED BY RF-SCORE:    0.00 PKD
ROOT
HETATM    1  C   UNL     1      -9.944  10.212  66.259  1.00  0.00    -0.242 C  
HETATM    2  N   UNL     1     -10.340  11.392  67.010  1.00  0.00    -0.215 NA 
HETATM    3  C   UNL     1     -11.347  12.222  66.376  1.00  0.00    -0.354 C  
HETATM    4  C   UNL     1     -11.786  13.429  67.175  1.00  0.00    -0.424 C  
HETATM    5  C   UNL     1     -11.043  13.743  68.453  1.00  0.00    -0.263 C  
HETATM    6  N   UNL     1     -10.001  12.821  68.854  1.00  0.00    -0.420 NA 
HETATM    7  H   UNL     1      -9.472  13.018  69.704  1.00  0.00     0.000 HD 
HETATM    8  C   UNL     1      -9.717  11.767  68.183  1.00  0.00    -0.192 C  
ENDROOT
BRANCH   8   9
HETATM    9  C   UNL     1      -8.556  10.878  68.741  1.00  0.00    -0.159 C  
BRANCH   9  10
HETATM   10  O   UNL     1      -8.793  10.120  69.924  1.00  0.00    -0.174 OA 
BRANCH  10  11
HETATM   11  C   UNL     1      -8.999   8.773  69.730  1.00  0.00    -0.146 C  
HETATM   12  C   UNL     1      -9.951   8.231  70.855  1.00  0.00    -0.190 C  
HETATM   13  O   UNL     1      -8.523   8.125  68.806  1.00  0.00    -0.125 OA 
HETATM   14  C   UNL     1      -9.506   6.800  71.239  1.00  0.00    -0.166 A  
HETATM   15  O   UNL     1      -9.802   9.030  72.037  1.00  0.00    -0.311 OA 
HETATM   16  C   UNL     1     -11.438   8.357  70.334  1.00  0.00    -0.129 C  
HETATM   17  C   UNL     1     -12.522   7.778  71.268  1.00  0.00    -0.301 C  
HETATM   18  C   UNL     1      -8.600   6.589  72.302  1.00  0.00    -0.123 A  
HETATM   19  H   UNL     1     -10.378   8.702  72.718  1.00  0.00     0.000 HD 
HETATM   20  C   UNL     1     -12.810   8.645  72.492  1.00  0.00    -0.352 C  
HETATM   21  C   UNL     1      -8.174   5.305  72.663  1.00  0.00    -0.113 A  
HETATM   22  C   UNL     1      -8.638   4.196  71.964  1.00  0.00    -0.116 A  
HETATM   23  C   UNL     1     -13.196  10.071  72.112  1.00  0.00    -0.489 C  
HETATM   24  C   UNL     1     -12.217  10.708  71.141  1.00  0.00    -0.479 C  
HETATM   25  C   UNL     1      -9.511   4.374  70.897  1.00  0.00    -0.241 A  
HETATM   26  C   UNL     1      -9.931   5.661  70.530  1.00  0.00    -0.265 A  
HETATM   27  C   UNL     1     -11.891   9.791  69.969  1.00  0.00    -0.067 C  
ENDBRANCH  10  11
ENDBRANCH   9  10
ENDBRANCH   8   9
TORSDOF 3
ENDMDL
MODEL       74
REMARK 921   NORMALIZED FREE ENERGY PREDICTED BY IDOCK:   -5.39 KCAL/MOL
REMARK 922        TOTAL FREE ENERGY PREDICTED BY IDOCK:   -6.78 KCAL/MOL
REMARK 923 INTER-LIGAND FREE ENERGY PREDICTED BY IDOCK:   -6.04 KCAL/MOL
REMARK 924 INTRA-LIGAND FREE ENERGY PREDICTED BY IDOCK:   -0.75 KCAL/MOL
REMARK 927      BINDING AFFINITY PREDICTED BY RF-SCORE:    0.00 PKD
ROOT
HETATM    1  C   UNL     1      -7.534  18.808  68.544  1.00  0.00    -0.300 C  
HETATM    2  N   UNL     1      -6.835  17.572  68.858  1.00  0.00    -0.236 NA 
HETATM    3  C   UNL     1      -5.850  17.667  69.918  1.00  0.00    -0.247 C  
HETATM    4  C   UNL     1      -5.152  16.372  70.269  1.00  0.00    -0.178 C  
HETATM    5  C   UNL     1      -5.418  15.164  69.402  1.00  0.00    -0.092 C  
HETATM    6  N   UNL     1      -6.378  15.320  68.330  1.00  0.00    -0.105 NA 
HETATM    7  H   UNL     1      -6.564  14.525  67.718  1.00  0.00     0.000 HD 
HETATM    8  C   UNL     1      -7.004  16.418  68.119  1.00  0.00    -0.132 C  
ENDROOT
BRANCH   8   9
HETATM    9  C   UNL     1      -8.002  16.431  66.913  1.00  0.00    -0.234 C  
BRANCH   9  10
HETATM   10  O   UNL     1      -9.332  15.969  67.131  1.00  0.00    -0.207 OA 
BRANCH  10  11
HETATM   11  C   UNL     1      -9.722  14.905  66.350  1.00  0.00    -0.285 C  
HETATM   12  C   UNL     1     -10.043  13.678  67.275  1.00  0.00    -0.239 C  
HETATM   13  O   UNL     1      -9.817  14.939  65.128  1.00  0.00    -0.300 OA 
HETATM   14  C   UNL     1      -9.592  12.382  66.560  1.00  0.00    -0.242 A  
HETATM   15  O   UNL     1      -9.266  13.767  68.477  1.00  0.00    -0.245 OA 
HETATM   16  C   UNL     1     -11.577  13.742  67.649  1.00  0.00    -0.381 C  
HETATM   17  C   UNL     1     -12.110  12.555  68.480  1.00  0.00    -0.129 C  
HETATM   18  C   UNL     1      -8.304  11.848  66.783  1.00  0.00    -0.153 A  
HETATM   19  H   UNL     1      -9.460  13.024  69.037  1.00  0.00     0.000 HD 
HETATM   20  C   UNL     1     -11.686  12.588  69.946  1.00  0.00    -0.327 C  
HETATM   21  C   UNL     1      -7.867  10.682  66.142  1.00  0.00    -0.152 A  
HETATM   22  C   UNL     1      -8.708  10.022  65.253  1.00  0.00    -0.182 A  
HETATM   23  C   UNL     1     -12.084  13.890  70.635  1.00  0.00    -0.417 C  
HETATM   24  C   UNL     1     -11.655  15.123  69.857  1.00  0.00    -0.329 C  
HETATM   25  C   UNL     1      -9.973  10.538  64.993  1.00  0.00    -0.388 A  
HETATM   26  C   UNL     1     -10.407  11.710  65.630  1.00  0.00    -0.306 A  
HETATM   27  C   UNL     1     -12.026  15.030  68.382  1.00  0.00    -0.231 C  
ENDBRANCH  10  11
ENDBRANCH   9  10
ENDBRANCH   8   9
TORSDOF 3
ENDMDL
MODEL       75
REMARK 921   NORMALIZED FREE ENERGY PREDICTED BY IDOCK:   -5.38 KCAL/MOL
REMARK 922        TOTAL FREE ENERGY PREDICTED BY IDOCK:   -6.77 KCAL/MOL
REMARK 923 INTER-LIGAND FREE ENERGY PREDICTED BY IDOCK:   -6.13 KCAL/MOL
REMARK 924 INTRA-LIGAND FREE ENERGY PREDICTED BY IDOCK:   -0.64 KCAL/MOL
REMARK 927      BINDING AFFINITY PREDICTED BY RF-SCORE:    0.00 PKD
ROOT
HETATM    1  C   UNL     1      -5.948  14.522  70.055  1.00  0.00    -0.141 C  
HETATM    2  N   UNL     1      -6.093  13.476  69.055  1.00  0.00    -0.081 NA 
HETATM    3  C   UNL     1      -5.668  12.154  69.473  1.00  0.00    -0.087 C  
HETATM    4  C   UNL     1      -5.855  11.061  68.444  1.00  0.00    -0.042 C  
HETATM    5  C   UNL     1      -6.305  11.459  67.058  1.00  0.00    -0.122 C  
HETATM    6  N   UNL     1      -6.588  12.861  66.834  1.00  0.00    -0.418 NA 
HETATM    7  H   UNL     1      -6.877  13.160  65.903  1.00  0.00     0.000 HD 
HETATM    8  C   UNL     1      -6.490  13.741  67.760  1.00  0.00    -0.170 C  
ENDROOT
BRANCH   8   9
HETATM    9  C   UNL     1      -6.818  15.218  67.356  1.00  0.00    -0.154 C  
BRANCH   9  10
HETATM   10  O   UNL     1      -8.123  15.719  67.630  1.00  0.00    -0.136 OA 
BRANCH  10  11
HETATM   11  C   UNL     1      -9.052  15.522  66.633  1.00  0.00    -0.279 C  
HETATM   12  C   UNL     1     -10.144  14.512  67.138  1.00  0.00    -0.252 C  
HETATM   13  O   UNL     1      -9.023  16.074  65.539  1.00  0.00    -0.270 OA 
HETATM   14  C   UNL     1     -10.581  13.616  65.956  1.00  0.00    -0.290 A  
HETATM   15  O   UNL     1      -9.570  13.636  68.118  1.00  0.00    -0.210 OA 
HETATM   16  C   UNL     1     -11.302  15.349  67.813  1.00  0.00    -0.308 C  
HETATM   17  C   UNL     1     -12.523  14.534  68.288  1.00  0.00     0.208 C  
HETATM   18  C   UNL     1      -9.950  12.374  65.723  1.00  0.00    -0.270 A  
HETATM   19  H   UNL     1     -10.230  13.025  68.424  1.00  0.00     0.000 HD 
HETATM   20  C   UNL     1     -12.273  13.732  69.563  1.00  0.00    -0.344 C  
HETATM   21  C   UNL     1     -10.320  11.548  64.654  1.00  0.00    -0.349 A  
HETATM   22  C   UNL     1     -11.328  11.947  63.784  1.00  0.00    -0.532 A  
HETATM   23  C   UNL     1     -11.790  14.610  70.713  1.00  0.00    -0.372 C  
HETATM   24  C   UNL     1     -10.622  15.501  70.323  1.00  0.00    -0.324 C  
HETATM   25  C   UNL     1     -11.950  13.177  63.973  1.00  0.00    -0.524 A  
HETATM   26  C   UNL     1     -11.573  14.007  65.038  1.00  0.00    -0.351 A  
HETATM   27  C   UNL     1     -10.869  16.231  69.010  1.00  0.00    -0.315 C  
ENDBRANCH  10  11
ENDBRANCH   9  10
ENDBRANCH   8   9
TORSDOF 3
ENDMDL
MODEL       76
REMARK 921   NORMALIZED FREE ENERGY PREDICTED BY IDOCK:   -5.37 KCAL/MOL
REMARK 922        TOTAL FREE ENERGY PREDICTED BY IDOCK:   -6.76 KCAL/MOL
REMARK 923 INTER-LIGAND FREE ENERGY PREDICTED BY IDOCK:   -6.62 KCAL/MOL
REMARK 924 INTRA-LIGAND FREE ENERGY PREDICTED BY IDOCK:   -0.13 KCAL/MOL
REMARK 927      BINDING AFFINITY PREDICTED BY RF-SCORE:    0.00 PKD
ROOT
HETATM    1  C   UNL     1     -13.876   9.329  71.274  1.00  0.00    -0.138 C  
HETATM    2  N   UNL     1     -12.431   9.180  71.335  1.00  0.00    -0.318 NA 
HETATM    3  C   UNL     1     -11.937   8.351  72.417  1.00  0.00    -0.384 C  
HETATM    4  C   UNL     1     -10.436   8.166  72.456  1.00  0.00    -0.409 C  
HETATM    5  C   UNL     1      -9.596   8.968  71.489  1.00  0.00    -0.270 C  
HETATM    6  N   UNL     1     -10.301   9.811  70.546  1.00  0.00    -0.292 NA 
HETATM    7  H   UNL     1      -9.758  10.376  69.893  1.00  0.00     0.000 HD 
HETATM    8  C   UNL     1     -11.579   9.876  70.500  1.00  0.00    -0.309 C  
ENDROOT
BRANCH   8   9
HETATM    9  C   UNL     1     -12.190  10.844  69.432  1.00  0.00    -0.222 C  
BRANCH   9  10
HETATM   10  O   UNL     1     -11.678  10.794  68.103  1.00  0.00    -0.501 OA 
BRANCH  10  11
HETATM   11  C   UNL     1     -11.559  12.011  67.471  1.00  0.00    -0.330 C  
HETATM   12  C   UNL     1     -10.190  12.668  67.872  1.00  0.00    -0.220 C  
HETATM   13  O   UNL     1     -12.393  12.479  66.704  1.00  0.00    -0.483 OA 
HETATM   14  C   UNL     1     -10.387  14.198  67.994  1.00  0.00    -0.231 A  
HETATM   15  O   UNL     1      -9.800  12.207  69.173  1.00  0.00    -0.403 OA 
HETATM   16  C   UNL     1      -9.106  12.211  66.817  1.00  0.00    -0.205 C  
HETATM   17  C   UNL     1      -7.706  12.837  66.987  1.00  0.00     0.003 C  
HETATM   18  C   UNL     1     -10.706  14.786  69.238  1.00  0.00    -0.263 A  
HETATM   19  H   UNL     1      -8.971  12.604  69.416  1.00  0.00     0.000 HD 
HETATM   20  C   UNL     1      -6.908  12.259  68.153  1.00  0.00    -0.078 C  
HETATM   21  C   UNL     1     -10.899  16.166  69.374  1.00  0.00    -0.320 A  
HETATM   22  C   UNL     1     -10.785  16.996  68.264  1.00  0.00    -0.372 A  
HETATM   23  C   UNL     1      -6.761  10.744  68.059  1.00  0.00    -0.064 C  
HETATM   24  C   UNL     1      -8.087  10.037  67.828  1.00  0.00    -0.109 C  
HETATM   25  C   UNL     1     -10.496  16.443  67.021  1.00  0.00    -0.291 A  
HETATM   26  C   UNL     1     -10.311  15.060  66.884  1.00  0.00    -0.266 A  
HETATM   27  C   UNL     1      -8.894  10.681  66.709  1.00  0.00    -0.146 C  
ENDBRANCH  10  11
ENDBRANCH   9  10
ENDBRANCH   8   9
TORSDOF 3
ENDMDL
MODEL       77
REMARK 921   NORMALIZED FREE ENERGY PREDICTED BY IDOCK:   -5.36 KCAL/MOL
REMARK 922        TOTAL FREE ENERGY PREDICTED BY IDOCK:   -6.75 KCAL/MOL
REMARK 923 INTER-LIGAND FREE ENERGY PREDICTED BY IDOCK:   -6.22 KCAL/MOL
REMARK 924 INTRA-LIGAND FREE ENERGY PREDICTED BY IDOCK:   -0.53 KCAL/MOL
REMARK 927      BINDING AFFINITY PREDICTED BY RF-SCORE:    0.00 PKD
ROOT
HETATM    1  C   UNL     1      -5.580  13.407  69.442  1.00  0.00    -0.082 C  
HETATM    2  N   UNL     1      -5.967  12.009  69.551  1.00  0.00    -0.089 NA 
HETATM    3  C   UNL     1      -5.436  11.305  70.702  1.00  0.00    -0.134 C  
HETATM    4  C   UNL     1      -5.870   9.863  70.835  1.00  0.00    -0.088 C  
HETATM    5  C   UNL     1      -6.667   9.254  69.704  1.00  0.00    -0.047 C  
HETATM    6  N   UNL     1      -7.012  10.123  68.598  1.00  0.00    -0.061 NA 
HETATM    7  H   UNL     1      -7.535   9.734  67.814  1.00  0.00     0.000 HD 
HETATM    8  C   UNL     1      -6.687  11.362  68.567  1.00  0.00    -0.069 C  
ENDROOT
BRANCH   8   9
HETATM    9  C   UNL     1      -7.124  12.165  67.296  1.00  0.00    -0.144 C  
BRANCH   9  10
HETATM   10  O   UNL     1      -8.514  12.250  66.994  1.00  0.00    -0.180 OA 
BRANCH  10  11
HETATM   11  C   UNL     1      -9.189  13.278  67.614  1.00  0.00    -0.209 C  
HETATM   12  C   UNL     1     -10.000  14.083  66.537  1.00  0.00    -0.284 C  
HETATM   13  O   UNL     1      -9.164  13.497  68.819  1.00  0.00    -0.074 OA 
HETATM   14  C   UNL     1      -9.979  15.583  66.915  1.00  0.00    -0.251 A  
HETATM   15  O   UNL     1      -9.344  13.979  65.266  1.00  0.00    -0.387 OA 
HETATM   16  C   UNL     1     -11.437  13.436  66.429  1.00  0.00    -0.359 C  
HETATM   17  C   UNL     1     -12.423  14.156  65.484  1.00  0.00    -0.495 C  
HETATM   18  C   UNL     1      -8.986  16.443  66.395  1.00  0.00    -0.340 A  
HETATM   19  H   UNL     1      -9.834  14.466  64.614  1.00  0.00     0.000 HD 
HETATM   20  C   UNL     1     -12.138  13.927  64.002  1.00  0.00    -0.437 C  
HETATM   21  C   UNL     1      -8.939  17.802  66.729  1.00  0.00    -0.272 A  
HETATM   22  C   UNL     1      -9.882  18.337  67.600  1.00  0.00    -0.328 A  
HETATM   23  C   UNL     1     -12.105  12.446  63.642  1.00  0.00    -0.648 C  
HETATM   24  C   UNL     1     -11.204  11.636  64.560  1.00  0.00    -0.335 C  
HETATM   25  C   UNL     1     -10.856  17.509  68.149  1.00  0.00    -0.246 A  
HETATM   26  C   UNL     1     -10.898  16.146  67.820  1.00  0.00    -0.318 A  
HETATM   27  C   UNL     1     -11.460  11.940  66.030  1.00  0.00    -0.344 C  
ENDBRANCH  10  11
ENDBRANCH   9  10
ENDBRANCH   8   9
TORSDOF 3
ENDMDL
MODEL       78
REMARK 921   NORMALIZED FREE ENERGY PREDICTED BY IDOCK:   -5.35 KCAL/MOL
REMARK 922        TOTAL FREE ENERGY PREDICTED BY IDOCK:   -6.73 KCAL/MOL
REMARK 923 INTER-LIGAND FREE ENERGY PREDICTED BY IDOCK:   -6.03 KCAL/MOL
REMARK 924 INTRA-LIGAND FREE ENERGY PREDICTED BY IDOCK:   -0.70 KCAL/MOL
REMARK 927      BINDING AFFINITY PREDICTED BY RF-SCORE:    0.00 PKD
ROOT
HETATM    1  C   UNL     1     -10.883   8.953  66.910  1.00  0.00     0.081 C  
HETATM    2  N   UNL     1      -9.889   9.264  67.925  1.00  0.00    -0.160 NA 
HETATM    3  C   UNL     1      -8.580   8.676  67.714  1.00  0.00    -0.136 C  
HETATM    4  C   UNL     1      -7.537   9.030  68.750  1.00  0.00    -0.087 C  
HETATM    5  C   UNL     1      -7.980   9.814  69.964  1.00  0.00    -0.184 C  
HETATM    6  N   UNL     1      -9.368  10.224  70.014  1.00  0.00    -0.389 NA 
HETATM    7  H   UNL     1      -9.697  10.739  70.830  1.00  0.00     0.000 HD 
HETATM    8  C   UNL     1     -10.197   9.966  69.073  1.00  0.00    -0.200 C  
ENDROOT
BRANCH   8   9
HETATM    9  C   UNL     1     -11.666  10.467  69.282  1.00  0.00    -0.209 C  
BRANCH   9  10
HETATM   10  O   UNL     1     -12.126  11.559  68.491  1.00  0.00    -0.522 OA 
BRANCH  10  11
HETATM   11  C   UNL     1     -11.590  12.786  68.811  1.00  0.00    -0.312 C  
HETATM   12  C   UNL     1     -10.700  13.287  67.618  1.00  0.00    -0.239 C  
HETATM   13  O   UNL     1     -11.805  13.384  69.859  1.00  0.00    -0.309 OA 
HETATM   14  C   UNL     1      -9.475  14.038  68.190  1.00  0.00    -0.215 A  
HETATM   15  O   UNL     1     -10.183  12.158  66.899  1.00  0.00    -0.207 OA 
HETATM   16  C   UNL     1     -11.619  14.134  66.651  1.00  0.00    -0.399 C  
HETATM   17  C   UNL     1     -10.897  14.800  65.460  1.00  0.00    -0.359 C  
HETATM   18  C   UNL     1      -8.262  13.356  68.433  1.00  0.00    -0.139 A  
HETATM   19  H   UNL     1      -9.644  12.461  66.178  1.00  0.00     0.000 HD 
HETATM   20  C   UNL     1     -10.514  13.826  64.347  1.00  0.00    -0.265 C  
HETATM   21  C   UNL     1      -7.141  14.010  68.959  1.00  0.00    -0.106 A  
HETATM   22  C   UNL     1      -7.206  15.365  69.264  1.00  0.00    -0.186 A  
HETATM   23  C   UNL     1     -11.716  13.048  63.822  1.00  0.00    -0.547 C  
HETATM   24  C   UNL     1     -12.531  12.403  64.931  1.00  0.00    -0.439 C  
HETATM   25  C   UNL     1      -8.395  16.057  69.059  1.00  0.00    -0.243 A  
HETATM   26  C   UNL     1      -9.520  15.400  68.540  1.00  0.00    -0.202 A  
HETATM   27  C   UNL     1     -12.834  13.378  66.062  1.00  0.00    -0.058 C  
ENDBRANCH  10  11
ENDBRANCH   9  10
ENDBRANCH   8   9
TORSDOF 3
ENDMDL
MODEL       79
REMARK 921   NORMALIZED FREE ENERGY PREDICTED BY IDOCK:   -5.34 KCAL/MOL
REMARK 922        TOTAL FREE ENERGY PREDICTED BY IDOCK:   -6.72 KCAL/MOL
REMARK 923 INTER-LIGAND FREE ENERGY PREDICTED BY IDOCK:   -6.24 KCAL/MOL
REMARK 924 INTRA-LIGAND FREE ENERGY PREDICTED BY IDOCK:   -0.48 KCAL/MOL
REMARK 927      BINDING AFFINITY PREDICTED BY RF-SCORE:    0.00 PKD
ROOT
HETATM    1  C   UNL     1     -10.190   5.786  74.209  1.00  0.00    -0.282 C  
HETATM    2  N   UNL     1     -10.141   4.550  73.445  1.00  0.00    -0.152 NA 
HETATM    3  C   UNL     1     -10.602   3.367  74.147  1.00  0.00    -0.202 C  
HETATM    4  C   UNL     1     -10.586   2.088  73.339  1.00  0.00    -0.225 C  
HETATM    5  C   UNL     1      -9.960   2.125  71.964  1.00  0.00    -0.155 C  
HETATM    6  N   UNL     1      -9.476   3.406  71.494  1.00  0.00    -0.141 NA 
HETATM    7  H   UNL     1      -9.033   3.456  70.576  1.00  0.00     0.000 HD 
HETATM    8  C   UNL     1      -9.582   4.480  72.185  1.00  0.00    -0.153 C  
ENDROOT
BRANCH   8   9
HETATM    9  C   UNL     1      -8.998   5.783  71.543  1.00  0.00    -0.140 C  
BRANCH   9  10
HETATM   10  O   UNL     1      -9.715   6.387  70.470  1.00  0.00    -0.168 OA 
BRANCH  10  11
HETATM   11  C   UNL     1      -9.168   7.550  69.977  1.00  0.00    -0.151 C  
HETATM   12  C   UNL     1     -10.323   8.561  69.643  1.00  0.00    -0.218 C  
HETATM   13  O   UNL     1      -7.966   7.751  69.848  1.00  0.00    -0.106 OA 
HETATM   14  C   UNL     1      -9.938   9.356  68.373  1.00  0.00    -0.191 A  
HETATM   15  O   UNL     1     -11.516   7.835  69.319  1.00  0.00    -0.321 OA 
HETATM   16  C   UNL     1     -10.588   9.437  70.932  1.00  0.00    -0.390 C  
HETATM   17  C   UNL     1     -11.629  10.564  70.768  1.00  0.00    -0.432 C  
HETATM   18  C   UNL     1     -10.345   8.912  67.095  1.00  0.00    -0.351 A  
HETATM   19  H   UNL     1     -12.215   8.447  69.116  1.00  0.00     0.000 HD 
HETATM   20  C   UNL     1     -13.073  10.069  70.729  1.00  0.00    -0.316 C  
HETATM   21  C   UNL     1     -10.002   9.608  65.929  1.00  0.00    -0.351 A  
HETATM   22  C   UNL     1      -9.235  10.765  66.010  1.00  0.00    -0.210 A  
HETATM   23  C   UNL     1     -13.434   9.240  71.957  1.00  0.00    -0.519 C  
HETATM   24  C   UNL     1     -12.428   8.136  72.239  1.00  0.00    -0.345 C  
HETATM   25  C   UNL     1      -8.799  11.213  67.253  1.00  0.00    -0.144 A  
HETATM   26  C   UNL     1      -9.135  10.511  68.419  1.00  0.00    -0.148 A  
HETATM   27  C   UNL     1     -10.992   8.643  72.198  1.00  0.00    -0.434 C  
ENDBRANCH  10  11
ENDBRANCH   9  10
ENDBRANCH   8   9
TORSDOF 3
ENDMDL
MODEL       80
REMARK 921   NORMALIZED FREE ENERGY PREDICTED BY IDOCK:   -5.27 KCAL/MOL
REMARK 922        TOTAL FREE ENERGY PREDICTED BY IDOCK:   -6.64 KCAL/MOL
REMARK 923 INTER-LIGAND FREE ENERGY PREDICTED BY IDOCK:   -6.41 KCAL/MOL
REMARK 924 INTRA-LIGAND FREE ENERGY PREDICTED BY IDOCK:   -0.24 KCAL/MOL
REMARK 927      BINDING AFFINITY PREDICTED BY RF-SCORE:    0.00 PKD
ROOT
HETATM    1  C   UNL     1     -10.427  19.735  65.705  1.00  0.00    -0.445 C  
HETATM    2  N   UNL     1      -9.199  19.701  66.483  1.00  0.00    -0.359 NA 
HETATM    3  C   UNL     1      -8.042  20.299  65.845  1.00  0.00    -0.040 C  
HETATM    4  C   UNL     1      -6.775  20.297  66.670  1.00  0.00    -0.269 C  
HETATM    5  C   UNL     1      -6.785  19.550  67.984  1.00  0.00    -0.245 C  
HETATM    6  N   UNL     1      -8.035  18.942  68.388  1.00  0.00    -0.326 NA 
HETATM    7  H   UNL     1      -8.065  18.417  69.262  1.00  0.00     0.000 HD 
HETATM    8  C   UNL     1      -9.105  19.037  67.690  1.00  0.00    -0.291 C  
ENDROOT
BRANCH   8   9
HETATM    9  C   UNL     1     -10.373  18.313  68.256  1.00  0.00    -0.357 C  
BRANCH   9  10
HETATM   10  O   UNL     1     -10.186  17.151  69.059  1.00  0.00    -0.302 OA 
BRANCH  10  11
HETATM   11  C   UNL     1     -10.821  16.016  68.609  1.00  0.00    -0.301 C  
HETATM   12  C   UNL     1      -9.825  15.183  67.726  1.00  0.00    -0.223 C  
HETATM   13  O   UNL     1     -11.977  15.712  68.884  1.00  0.00    -0.367 OA 
HETATM   14  C   UNL     1     -10.611  14.532  66.563  1.00  0.00    -0.297 A  
HETATM   15  O   UNL     1      -8.867  16.064  67.122  1.00  0.00    -0.190 OA 
HETATM   16  C   UNL     1      -9.066  14.172  68.675  1.00  0.00    -0.138 C  
HETATM   17  C   UNL     1      -8.106  13.191  67.970  1.00  0.00    -0.157 C  
HETATM   18  C   UNL     1     -10.722  15.185  65.316  1.00  0.00    -0.422 A  
HETATM   19  H   UNL     1      -8.264  15.561  66.588  1.00  0.00     0.000 HD 
HETATM   20  C   UNL     1      -6.801  13.831  67.502  1.00  0.00    -0.148 C  
HETATM   21  C   UNL     1     -11.435  14.622  64.250  1.00  0.00    -0.174 A  
HETATM   22  C   UNL     1     -12.065  13.393  64.408  1.00  0.00    -0.468 A  
HETATM   23  C   UNL     1      -6.054  14.519  68.640  1.00  0.00    -0.084 C  
HETATM   24  C   UNL     1      -6.936  15.465  69.438  1.00  0.00    -0.181 C  
HETATM   25  C   UNL     1     -11.995  12.738  65.633  1.00  0.00    -0.503 A  
HETATM   26  C   UNL     1     -11.287  13.306  66.702  1.00  0.00    -0.353 A  
HETATM   27  C   UNL     1      -8.262  14.824  69.827  1.00  0.00     0.231 C  
ENDBRANCH  10  11
ENDBRANCH   9  10
ENDBRANCH   8   9
TORSDOF 3
ENDMDL
MODEL       81
REMARK 921   NORMALIZED FREE ENERGY PREDICTED BY IDOCK:   -5.25 KCAL/MOL
REMARK 922        TOTAL FREE ENERGY PREDICTED BY IDOCK:   -6.62 KCAL/MOL
REMARK 923 INTER-LIGAND FREE ENERGY PREDICTED BY IDOCK:   -6.40 KCAL/MOL
REMARK 924 INTRA-LIGAND FREE ENERGY PREDICTED BY IDOCK:   -0.22 KCAL/MOL
REMARK 927      BINDING AFFINITY PREDICTED BY RF-SCORE:    0.00 PKD
ROOT
HETATM    1  C   UNL     1     -10.303  10.354  68.008  1.00  0.00    -0.179 C  
HETATM    2  N   UNL     1      -9.633  10.265  66.720  1.00  0.00    -0.167 NA 
HETATM    3  C   UNL     1      -9.695   8.967  66.076  1.00  0.00    -0.269 C  
HETATM    4  C   UNL     1      -9.030   8.887  64.719  1.00  0.00    -0.088 C  
HETATM    5  C   UNL     1      -8.245  10.087  64.241  1.00  0.00    -0.166 C  
HETATM    6  N   UNL     1      -8.242  11.256  65.095  1.00  0.00    -0.329 NA 
HETATM    7  H   UNL     1      -7.706  12.073  64.805  1.00  0.00     0.000 HD 
HETATM    8  C   UNL     1      -8.885  11.303  66.202  1.00  0.00    -0.190 C  
ENDROOT
BRANCH   8   9
HETATM    9  C   UNL     1      -8.772  12.635  67.017  1.00  0.00    -0.198 C  
BRANCH   9  10
HETATM   10  O   UNL     1      -9.468  13.782  66.539  1.00  0.00    -0.276 OA 
BRANCH  10  11
HETATM   11  C   UNL     1      -8.975  14.993  66.969  1.00  0.00    -0.234 C  
HETATM   12  C   UNL     1     -10.116  15.784  67.702  1.00  0.00    -0.247 C  
HETATM   13  O   UNL     1      -7.817  15.365  66.812  1.00  0.00    -0.201 OA 
HETATM   14  C   UNL     1      -9.965  17.290  67.383  1.00  0.00    -0.278 A  
HETATM   15  O   UNL     1     -11.390  15.385  67.176  1.00  0.00    -0.305 OA 
HETATM   16  C   UNL     1     -10.055  15.410  69.237  1.00  0.00    -0.253 C  
HETATM   17  C   UNL     1     -11.045  16.169  70.146  1.00  0.00    -0.373 C  
HETATM   18  C   UNL     1     -10.655  17.868  66.295  1.00  0.00    -0.241 A  
HETATM   19  H   UNL     1     -12.081  15.864  67.619  1.00  0.00     0.000 HD 
HETATM   20  C   UNL     1     -12.490  15.691  70.022  1.00  0.00    -0.249 C  
HETATM   21  C   UNL     1     -10.529  19.226  65.979  1.00  0.00    -0.573 A  
HETATM   22  C   UNL     1      -9.700  20.042  66.741  1.00  0.00    -0.563 A  
HETATM   23  C   UNL     1     -12.628  14.195  70.283  1.00  0.00    -0.367 C  
HETATM   24  C   UNL     1     -11.647  13.362  69.475  1.00  0.00    -0.352 C  
HETATM   25  C   UNL     1      -8.987  19.496  67.803  1.00  0.00    -0.375 A  
HETATM   26  C   UNL     1      -9.108  18.134  68.114  1.00  0.00    -0.298 A  
HETATM   27  C   UNL     1     -10.227  13.905  69.558  1.00  0.00     0.368 C  
ENDBRANCH  10  11
ENDBRANCH   9  10
ENDBRANCH   8   9
TORSDOF 3
ENDMDL
MODEL       82
REMARK 921   NORMALIZED FREE ENERGY PREDICTED BY IDOCK:   -5.25 KCAL/MOL
REMARK 922        TOTAL FREE ENERGY PREDICTED BY IDOCK:   -6.62 KCAL/MOL
REMARK 923 INTER-LIGAND FREE ENERGY PREDICTED BY IDOCK:   -6.01 KCAL/MOL
REMARK 924 INTRA-LIGAND FREE ENERGY PREDICTED BY IDOCK:   -0.60 KCAL/MOL
REMARK 927      BINDING AFFINITY PREDICTED BY RF-SCORE:    0.00 PKD
ROOT
HETATM    1  C   UNL     1      -8.447  15.386  66.663  1.00  0.00    -0.260 C  
HETATM    2  N   UNL     1      -8.126  16.623  67.359  1.00  0.00    -0.162 NA 
HETATM    3  C   UNL     1      -6.718  16.830  67.638  1.00  0.00    -0.142 C  
HETATM    4  C   UNL     1      -6.382  18.134  68.328  1.00  0.00    -0.193 C  
HETATM    5  C   UNL     1      -7.525  19.006  68.795  1.00  0.00    -0.333 C  
HETATM    6  N   UNL     1      -8.866  18.555  68.487  1.00  0.00    -0.327 NA 
HETATM    7  H   UNL     1      -9.656  19.116  68.806  1.00  0.00     0.000 HD 
HETATM    8  C   UNL     1      -9.099  17.480  67.831  1.00  0.00    -0.261 C  
ENDROOT
BRANCH   8   9
HETATM    9  C   UNL     1     -10.605  17.123  67.590  1.00  0.00    -0.343 C  
BRANCH   9  10
HETATM   10  O   UNL     1     -11.262  16.289  68.540  1.00  0.00    -0.350 OA 
BRANCH  10  11
HETATM   11  C   UNL     1     -11.582  15.027  68.095  1.00  0.00    -0.340 C  
HETATM   12  C   UNL     1     -11.478  14.016  69.292  1.00  0.00    -0.295 C  
HETATM   13  O   UNL     1     -11.913  14.760  66.945  1.00  0.00    -0.334 OA 
HETATM   14  C   UNL     1     -10.931  12.669  68.763  1.00  0.00    -0.289 A  
HETATM   15  O   UNL     1     -10.517  14.496  70.243  1.00  0.00    -0.413 OA 
HETATM   16  C   UNL     1     -12.895  13.941  69.987  1.00  0.00     0.045 C  
HETATM   17  C   UNL     1     -13.021  12.917  71.135  1.00  0.00    -0.259 C  
HETATM   18  C   UNL     1      -9.545  12.396  68.786  1.00  0.00     0.064 A  
HETATM   19  H   UNL     1     -10.454  13.885  70.967  1.00  0.00     0.000 HD 
HETATM   20  C   UNL     1     -12.338  13.353  72.429  1.00  0.00     0.449 C  
HETATM   21  C   UNL     1      -9.023  11.189  68.305  1.00  0.00    -0.166 A  
HETATM   22  C   UNL     1      -9.875  10.224  67.779  1.00  0.00    -0.195 A  
HETATM   23  C   UNL     1     -12.841  14.707  72.920  1.00  0.00    -0.556 C  
HETATM   24  C   UNL     1     -12.814  15.773  71.837  1.00  0.00    -0.514 C  
HETATM   25  C   UNL     1     -11.242  10.475  67.719  1.00  0.00    -0.344 A  
HETATM   26  C   UNL     1     -11.763  11.688  68.194  1.00  0.00    -0.365 A  
HETATM   27  C   UNL     1     -13.435  15.285  70.535  1.00  0.00    -0.128 C  
ENDBRANCH  10  11
ENDBRANCH   9  10
ENDBRANCH   8   9
TORSDOF 3
ENDMDL
MODEL       83
REMARK 921   NORMALIZED FREE ENERGY PREDICTED BY IDOCK:   -5.22 KCAL/MOL
REMARK 922        TOTAL FREE ENERGY PREDICTED BY IDOCK:   -6.59 KCAL/MOL
REMARK 923 INTER-LIGAND FREE ENERGY PREDICTED BY IDOCK:   -6.08 KCAL/MOL
REMARK 924 INTRA-LIGAND FREE ENERGY PREDICTED BY IDOCK:   -0.51 KCAL/MOL
REMARK 927      BINDING AFFINITY PREDICTED BY RF-SCORE:    0.00 PKD
ROOT
HETATM    1  C   UNL     1     -11.840  12.734  67.150  1.00  0.00    -0.350 C  
HETATM    2  N   UNL     1     -11.117  11.992  66.129  1.00  0.00    -0.309 NA 
HETATM    3  C   UNL     1     -11.069  12.619  64.822  1.00  0.00    -0.300 C  
HETATM    4  C   UNL     1     -10.285  11.864  63.772  1.00  0.00    -0.442 C  
HETATM    5  C   UNL     1      -9.771  10.487  64.123  1.00  0.00    -0.327 C  
HETATM    6  N   UNL     1     -10.014  10.016  65.471  1.00  0.00    -0.303 NA 
HETATM    7  H   UNL     1      -9.693   9.083  65.729  1.00  0.00     0.000 HD 
HETATM    8  C   UNL     1     -10.617  10.725  66.351  1.00  0.00    -0.203 C  
ENDROOT
BRANCH   8   9
HETATM    9  C   UNL     1     -10.814  10.068  67.758  1.00  0.00    -0.282 C  
BRANCH   9  10
HETATM   10  O   UNL     1      -9.833   9.141  68.215  1.00  0.00    -0.152 OA 
BRANCH  10  11
HETATM   11  C   UNL     1     -10.108   7.817  67.955  1.00  0.00    -0.185 C  
HETATM   12  C   UNL     1      -9.673   6.949  69.188  1.00  0.00    -0.155 C  
HETATM   13  O   UNL     1     -10.630   7.407  66.924  1.00  0.00    -0.326 OA 
HETATM   14  C   UNL     1      -9.110   5.602  68.677  1.00  0.00    -0.124 A  
HETATM   15  O   UNL     1      -8.597   7.600  69.877  1.00  0.00    -0.136 OA 
HETATM   16  C   UNL     1     -10.912   6.835  70.162  1.00  0.00    -0.340 C  
HETATM   17  C   UNL     1     -10.709   5.929  71.395  1.00  0.00    -0.319 C  
HETATM   18  C   UNL     1      -7.726   5.443  68.440  1.00  0.00    -0.081 A  
HETATM   19  H   UNL     1      -8.333   7.075  70.624  1.00  0.00     0.000 HD 
HETATM   20  C   UNL     1      -9.832   6.551  72.480  1.00  0.00    -0.176 C  
HETATM   21  C   UNL     1      -7.192   4.238  67.968  1.00  0.00    -0.064 A  
HETATM   22  C   UNL     1      -8.031   3.159  67.713  1.00  0.00    -0.075 A  
HETATM   23  C   UNL     1     -10.360   7.905  72.944  1.00  0.00    -0.413 C  
HETATM   24  C   UNL     1     -10.651   8.851  71.791  1.00  0.00    -0.432 C  
HETATM   25  C   UNL     1      -9.401   3.293  67.913  1.00  0.00    -0.246 A  
HETATM   26  C   UNL     1      -9.936   4.503  68.377  1.00  0.00    -0.103 A  
HETATM   27  C   UNL     1     -11.464   8.182  70.690  1.00  0.00    -0.237 C  
ENDBRANCH  10  11
ENDBRANCH   9  10
ENDBRANCH   8   9
TORSDOF 3
ENDMDL
MODEL       84
REMARK 921   NORMALIZED FREE ENERGY PREDICTED BY IDOCK:   -5.22 KCAL/MOL
REMARK 922        TOTAL FREE ENERGY PREDICTED BY IDOCK:   -6.58 KCAL/MOL
REMARK 923 INTER-LIGAND FREE ENERGY PREDICTED BY IDOCK:   -5.93 KCAL/MOL
REMARK 924 INTRA-LIGAND FREE ENERGY PREDICTED BY IDOCK:   -0.65 KCAL/MOL
REMARK 927      BINDING AFFINITY PREDICTED BY RF-SCORE:    0.00 PKD
ROOT
HETATM    1  C   UNL     1      -9.542   4.800  65.366  1.00  0.00    -0.140 C  
HETATM    2  N   UNL     1      -9.400   4.077  66.619  1.00  0.00    -0.170 NA 
HETATM    3  C   UNL     1      -9.139   2.656  66.491  1.00  0.00    -0.117 C  
HETATM    4  C   UNL     1      -8.955   1.913  67.796  1.00  0.00    -0.173 C  
HETATM    5  C   UNL     1      -9.210   2.663  69.083  1.00  0.00    -0.142 C  
HETATM    6  N   UNL     1      -9.553   4.065  68.972  1.00  0.00    -0.173 NA 
HETATM    7  H   UNL     1      -9.748   4.591  69.824  1.00  0.00     0.000 HD 
HETATM    8  C   UNL     1      -9.621   4.672  67.846  1.00  0.00    -0.157 C  
ENDROOT
BRANCH   8   9
HETATM    9  C   UNL     1     -10.017   6.186  67.892  1.00  0.00    -0.134 C  
BRANCH   9  10
HETATM   10  O   UNL     1      -9.334   7.034  68.811  1.00  0.00    -0.136 OA 
BRANCH  10  11
HETATM   11  C   UNL     1     -10.114   7.992  69.420  1.00  0.00    -0.197 C  
HETATM   12  C   UNL     1     -10.323   7.604  70.927  1.00  0.00    -0.201 C  
HETATM   13  O   UNL     1     -10.548   8.992  68.860  1.00  0.00    -0.222 OA 
HETATM   14  C   UNL     1     -11.755   8.007  71.353  1.00  0.00    -0.320 A  
HETATM   15  O   UNL     1     -10.246   6.179  71.071  1.00  0.00    -0.187 OA 
HETATM   16  C   UNL     1      -9.159   8.268  71.764  1.00  0.00    -0.255 C  
HETATM   17  C   UNL     1      -9.248   8.082  73.294  1.00  0.00    -0.347 C  
HETATM   18  C   UNL     1     -12.819   7.083  71.264  1.00  0.00    -0.376 A  
HETATM   19  H   UNL     1     -10.373   5.944  71.982  1.00  0.00     0.000 HD 
HETATM   20  C   UNL     1      -8.875   6.679  73.768  1.00  0.00    -0.155 C  
HETATM   21  C   UNL     1     -14.126   7.425  71.634  1.00  0.00    -0.552 A  
HETATM   22  C   UNL     1     -14.404   8.707  72.096  1.00  0.00    -0.518 A  
HETATM   23  C   UNL     1      -7.484   6.263  73.301  1.00  0.00    -0.091 C  
HETATM   24  C   UNL     1      -7.276   6.469  71.809  1.00  0.00    -0.086 C  
HETATM   25  C   UNL     1     -13.381   9.647  72.170  1.00  0.00    -0.545 A  
HETATM   26  C   UNL     1     -12.074   9.305  71.792  1.00  0.00    -0.457 A  
HETATM   27  C   UNL     1      -7.726   7.850  71.352  1.00  0.00    -0.085 C  
ENDBRANCH  10  11
ENDBRANCH   9  10
ENDBRANCH   8   9
TORSDOF 3
ENDMDL
MODEL       85
REMARK 921   NORMALIZED FREE ENERGY PREDICTED BY IDOCK:   -5.21 KCAL/MOL
REMARK 922        TOTAL FREE ENERGY PREDICTED BY IDOCK:   -6.58 KCAL/MOL
REMARK 923 INTER-LIGAND FREE ENERGY PREDICTED BY IDOCK:   -6.05 KCAL/MOL
REMARK 924 INTRA-LIGAND FREE ENERGY PREDICTED BY IDOCK:   -0.53 KCAL/MOL
REMARK 927      BINDING AFFINITY PREDICTED BY RF-SCORE:    0.00 PKD
ROOT
HETATM    1  C   UNL     1      -9.088   8.592  72.326  1.00  0.00    -0.248 C  
HETATM    2  N   UNL     1      -9.788   7.656  71.460  1.00  0.00    -0.166 NA 
HETATM    3  C   UNL     1      -9.248   6.310  71.436  1.00  0.00    -0.149 C  
HETATM    4  C   UNL     1      -9.999   5.328  70.564  1.00  0.00    -0.299 C  
HETATM    5  C   UNL     1     -11.117   5.860  69.696  1.00  0.00    -0.343 C  
HETATM    6  N   UNL     1     -11.430   7.269  69.813  1.00  0.00    -0.497 NA 
HETATM    7  H   UNL     1     -12.168   7.657  69.226  1.00  0.00     0.000 HD 
HETATM    8  C   UNL     1     -10.815   8.046  70.624  1.00  0.00    -0.234 C  
ENDROOT
BRANCH   8   9
HETATM    9  C   UNL     1     -11.261   9.547  70.624  1.00  0.00    -0.302 C  
BRANCH   9  10
HETATM   10  O   UNL     1     -10.513  10.474  69.842  1.00  0.00    -0.241 OA 
BRANCH  10  11
HETATM   11  C   UNL     1     -10.677  10.363  68.480  1.00  0.00    -0.221 C  
HETATM   12  C   UNL     1      -9.797  11.449  67.765  1.00  0.00    -0.175 C  
HETATM   13  O   UNL     1     -11.387   9.527  67.933  1.00  0.00     0.023 OA 
HETATM   14  C   UNL     1     -10.556  11.968  66.521  1.00  0.00    -0.269 A  
HETATM   15  O   UNL     1      -9.628  12.578  68.635  1.00  0.00    -0.370 OA 
HETATM   16  C   UNL     1      -8.382  10.810  67.473  1.00  0.00    -0.115 C  
HETATM   17  C   UNL     1      -7.401  11.699  66.679  1.00  0.00    -0.028 C  
HETATM   18  C   UNL     1     -11.385  13.109  66.608  1.00  0.00    -0.361 A  
HETATM   19  H   UNL     1      -9.095  13.235  68.202  1.00  0.00     0.000 HD 
HETATM   20  C   UNL     1      -6.790  12.831  67.501  1.00  0.00    -0.153 C  
HETATM   21  C   UNL     1     -12.090  13.594  65.500  1.00  0.00    -0.440 A  
HETATM   22  C   UNL     1     -11.991  12.944  64.274  1.00  0.00    -0.463 A  
HETATM   23  C   UNL     1      -6.088  12.321  68.756  1.00  0.00    -0.068 C  
HETATM   24  C   UNL     1      -6.957  11.383  69.577  1.00  0.00    -0.063 C  
HETATM   25  C   UNL     1     -11.203  11.803  64.165  1.00  0.00    -0.437 A  
HETATM   26  C   UNL     1     -10.503  11.313  65.277  1.00  0.00    -0.341 A  
HETATM   27  C   UNL     1      -7.612  10.308  68.719  1.00  0.00    -0.093 C  
ENDBRANCH  10  11
ENDBRANCH   9  10
ENDBRANCH   8   9
TORSDOF 3
ENDMDL
MODEL       86
REMARK 921   NORMALIZED FREE ENERGY PREDICTED BY IDOCK:   -5.20 KCAL/MOL
REMARK 922        TOTAL FREE ENERGY PREDICTED BY IDOCK:   -6.57 KCAL/MOL
REMARK 923 INTER-LIGAND FREE ENERGY PREDICTED BY IDOCK:   -6.04 KCAL/MOL
REMARK 924 INTRA-LIGAND FREE ENERGY PREDICTED BY IDOCK:   -0.53 KCAL/MOL
REMARK 927      BINDING AFFINITY PREDICTED BY RF-SCORE:    0.00 PKD
ROOT
HETATM    1  C   UNL     1      -9.083   5.397  70.934  1.00  0.00    -0.139 C  
HETATM    2  N   UNL     1      -8.523   6.248  71.971  1.00  0.00    -0.123 NA 
HETATM    3  C   UNL     1      -8.745   5.798  73.331  1.00  0.00    -0.120 C  
HETATM    4  C   UNL     1      -8.130   6.665  74.408  1.00  0.00    -0.136 C  
HETATM    5  C   UNL     1      -7.494   7.971  73.990  1.00  0.00    -0.171 C  
HETATM    6  N   UNL     1      -7.464   8.267  72.573  1.00  0.00    -0.135 NA 
HETATM    7  H   UNL     1      -7.057   9.149  72.266  1.00  0.00     0.000 HD 
HETATM    8  C   UNL     1      -7.930   7.464  71.691  1.00  0.00    -0.098 C  
ENDROOT
BRANCH   8   9
HETATM    9  C   UNL     1      -7.835   7.934  70.201  1.00  0.00    -0.097 C  
BRANCH   9  10
HETATM   10  O   UNL     1      -9.025   8.377  69.555  1.00  0.00    -0.147 OA 
BRANCH  10  11
HETATM   11  C   UNL     1      -9.264   9.731  69.624  1.00  0.00    -0.223 C  
HETATM   12  C   UNL     1     -10.813   9.980  69.670  1.00  0.00    -0.260 C  
HETATM   13  O   UNL     1      -8.388  10.589  69.664  1.00  0.00    -0.119 OA 
HETATM   14  C   UNL     1     -11.137  11.265  68.872  1.00  0.00    -0.295 A  
HETATM   15  O   UNL     1     -11.491   8.907  69.002  1.00  0.00    -0.245 OA 
HETATM   16  C   UNL     1     -11.255  10.000  71.188  1.00  0.00    -0.339 C  
HETATM   17  C   UNL     1     -12.741  10.332  71.444  1.00  0.00    -0.547 C  
HETATM   18  C   UNL     1     -11.478  11.194  67.503  1.00  0.00    -0.296 A  
HETATM   19  H   UNL     1     -12.429   9.057  69.029  1.00  0.00     0.000 HD 
HETATM   20  C   UNL     1     -13.696   9.187  71.115  1.00  0.00    -0.161 C  
HETATM   21  C   UNL     1     -11.767  12.342  66.755  1.00  0.00    -0.430 A  
HETATM   22  C   UNL     1     -11.714  13.595  67.356  1.00  0.00    -0.416 A  
HETATM   23  C   UNL     1     -13.341   7.906  71.862  1.00  0.00    -0.318 C  
HETATM   24  C   UNL     1     -11.876   7.527  71.721  1.00  0.00    -0.327 C  
HETATM   25  C   UNL     1     -11.356  13.698  68.696  1.00  0.00    -0.321 A  
HETATM   26  C   UNL     1     -11.060  12.548  69.443  1.00  0.00    -0.145 A  
HETATM   27  C   UNL     1     -10.950   8.707  71.983  1.00  0.00    -0.432 C  
ENDBRANCH  10  11
ENDBRANCH   9  10
ENDBRANCH   8   9
TORSDOF 3
ENDMDL
MODEL       87
REMARK 921   NORMALIZED FREE ENERGY PREDICTED BY IDOCK:   -5.18 KCAL/MOL
REMARK 922        TOTAL FREE ENERGY PREDICTED BY IDOCK:   -6.54 KCAL/MOL
REMARK 923 INTER-LIGAND FREE ENERGY PREDICTED BY IDOCK:   -5.68 KCAL/MOL
REMARK 924 INTRA-LIGAND FREE ENERGY PREDICTED BY IDOCK:   -0.85 KCAL/MOL
REMARK 927      BINDING AFFINITY PREDICTED BY RF-SCORE:    0.00 PKD
ROOT
HETATM    1  C   UNL     1     -10.646   5.970  67.095  1.00  0.00    -0.302 C  
HETATM    2  N   UNL     1     -10.790   6.827  68.261  1.00  0.00    -0.236 NA 
HETATM    3  C   UNL     1     -11.209   6.156  69.477  1.00  0.00    -0.411 C  
HETATM    4  C   UNL     1     -11.323   7.041  70.697  1.00  0.00    -0.349 C  
HETATM    5  C   UNL     1     -11.150   8.531  70.513  1.00  0.00    -0.244 C  
HETATM    6  N   UNL     1     -10.822   8.997  69.181  1.00  0.00    -0.399 NA 
HETATM    7  H   UNL     1     -10.717   9.999  69.025  1.00  0.00     0.000 HD 
HETATM    8  C   UNL     1     -10.660   8.199  68.192  1.00  0.00    -0.110 C  
ENDROOT
BRANCH   8   9
HETATM    9  C   UNL     1     -10.320   8.859  66.814  1.00  0.00    -0.247 C  
BRANCH   9  10
HETATM   10  O   UNL     1      -9.220   9.762  66.749  1.00  0.00    -0.144 OA 
BRANCH  10  11
HETATM   11  C   UNL     1      -9.547  11.072  66.480  1.00  0.00    -0.195 C  
HETATM   12  C   UNL     1      -8.995  11.987  67.630  1.00  0.00    -0.172 C  
HETATM   13  O   UNL     1     -10.156  11.444  65.483  1.00  0.00    -0.226 OA 
HETATM   14  C   UNL     1     -10.004  13.132  67.884  1.00  0.00    -0.233 A  
HETATM   15  O   UNL     1      -8.923  11.235  68.849  1.00  0.00    -0.310 OA 
HETATM   16  C   UNL     1      -7.539  12.449  67.224  1.00  0.00    -0.141 C  
HETATM   17  C   UNL     1      -6.863  13.444  68.191  1.00  0.00    -0.117 C  
HETATM   18  C   UNL     1     -11.012  12.999  68.864  1.00  0.00    -0.271 A  
HETATM   19  H   UNL     1      -8.589  11.788  69.545  1.00  0.00     0.000 HD 
HETATM   20  C   UNL     1      -6.369  12.807  69.488  1.00  0.00    -0.108 C  
HETATM   21  C   UNL     1     -11.943  14.016  69.108  1.00  0.00    -0.400 A  
HETATM   22  C   UNL     1     -11.894  15.194  68.370  1.00  0.00    -0.293 A  
HETATM   23  C   UNL     1      -5.417  11.643  69.233  1.00  0.00    -0.049 C  
HETATM   24  C   UNL     1      -5.971  10.635  68.240  1.00  0.00    -0.046 C  
HETATM   25  C   UNL     1     -10.928  15.344  67.381  1.00  0.00    -0.312 A  
HETATM   26  C   UNL     1     -10.001  14.321  67.132  1.00  0.00    -0.255 A  
HETATM   27  C   UNL     1      -6.524  11.304  66.989  1.00  0.00    -0.114 C  
ENDBRANCH  10  11
ENDBRANCH   9  10
ENDBRANCH   8   9
TORSDOF 3
ENDMDL
MODEL       88
REMARK 921   NORMALIZED FREE ENERGY PREDICTED BY IDOCK:   -5.17 KCAL/MOL
REMARK 922        TOTAL FREE ENERGY PREDICTED BY IDOCK:   -6.52 KCAL/MOL
REMARK 923 INTER-LIGAND FREE ENERGY PREDICTED BY IDOCK:   -6.02 KCAL/MOL
REMARK 924 INTRA-LIGAND FREE ENERGY PREDICTED BY IDOCK:   -0.50 KCAL/MOL
REMARK 927      BINDING AFFINITY PREDICTED BY RF-SCORE:    0.00 PKD
ROOT
HETATM    1  C   UNL     1     -10.915  11.987  65.853  1.00  0.00    -0.298 C  
HETATM    2  N   UNL     1     -10.973  12.842  67.029  1.00  0.00    -0.257 NA 
HETATM    3  C   UNL     1     -11.583  14.141  66.823  1.00  0.00    -0.391 C  
HETATM    4  C   UNL     1     -11.676  15.013  68.055  1.00  0.00    -0.320 C  
HETATM    5  C   UNL     1     -11.000  14.532  69.319  1.00  0.00    -0.260 C  
HETATM    6  N   UNL     1     -10.364  13.232  69.273  1.00  0.00    -0.407 NA 
HETATM    7  H   UNL     1      -9.886  12.891  70.106  1.00  0.00     0.000 HD 
HETATM    8  C   UNL     1     -10.379  12.494  68.226  1.00  0.00    -0.236 C  
ENDROOT
BRANCH   8   9
HETATM    9  C   UNL     1      -9.635  11.120  68.331  1.00  0.00    -0.192 C  
BRANCH   9  10
HETATM   10  O   UNL     1     -10.238  10.083  69.099  1.00  0.00    -0.186 OA 
BRANCH  10  11
HETATM   11  C   UNL     1      -9.401   9.443  69.986  1.00  0.00    -0.226 C  
HETATM   12  C   UNL     1      -9.816   7.932  70.087  1.00  0.00    -0.184 C  
HETATM   13  O   UNL     1      -8.471   9.983  70.574  1.00  0.00    -0.092 OA 
HETATM   14  C   UNL     1      -9.620   7.457  71.546  1.00  0.00    -0.163 A  
HETATM   15  O   UNL     1     -11.216   7.800  69.805  1.00  0.00    -0.432 OA 
HETATM   16  C   UNL     1      -8.995   7.130  69.001  1.00  0.00    -0.134 C  
HETATM   17  C   UNL     1      -9.194   5.600  69.011  1.00  0.00    -0.141 C  
HETATM   18  C   UNL     1     -10.684   7.516  72.472  1.00  0.00    -0.335 A  
HETATM   19  H   UNL     1     -11.468   6.886  69.867  1.00  0.00     0.000 HD 
HETATM   20  C   UNL     1     -10.531   5.147  68.428  1.00  0.00    -0.084 C  
HETATM   21  C   UNL     1     -10.530   7.101  73.801  1.00  0.00    -0.371 A  
HETATM   22  C   UNL     1      -9.301   6.623  74.241  1.00  0.00    -0.247 A  
HETATM   23  C   UNL     1     -10.746   5.662  67.009  1.00  0.00    -0.332 C  
HETATM   24  C   UNL     1     -10.511   7.158  66.883  1.00  0.00    -0.364 C  
HETATM   25  C   UNL     1      -8.227   6.577  73.359  1.00  0.00    -0.118 A  
HETATM   26  C   UNL     1      -8.380   7.001  72.031  1.00  0.00    -0.106 A  
HETATM   27  C   UNL     1      -9.207   7.592  67.538  1.00  0.00    -0.145 C  
ENDBRANCH  10  11
ENDBRANCH   9  10
ENDBRANCH   8   9
TORSDOF 3
ENDMDL
MODEL       89
REMARK 921   NORMALIZED FREE ENERGY PREDICTED BY IDOCK:   -5.15 KCAL/MOL
REMARK 922        TOTAL FREE ENERGY PREDICTED BY IDOCK:   -6.51 KCAL/MOL
REMARK 923 INTER-LIGAND FREE ENERGY PREDICTED BY IDOCK:   -6.40 KCAL/MOL
REMARK 924 INTRA-LIGAND FREE ENERGY PREDICTED BY IDOCK:   -0.10 KCAL/MOL
REMARK 927      BINDING AFFINITY PREDICTED BY RF-SCORE:    0.00 PKD
ROOT
HETATM    1  C   UNL     1     -10.092  11.997  63.765  1.00  0.00    -0.394 C  
HETATM    2  N   UNL     1      -9.511  11.086  64.739  1.00  0.00    -0.223 NA 
HETATM    3  C   UNL     1      -9.491   9.689  64.349  1.00  0.00    -0.066 C  
HETATM    4  C   UNL     1      -8.853   8.749  65.347  1.00  0.00    -0.221 C  
HETATM    5  C   UNL     1      -8.449   9.308  66.692  1.00  0.00    -0.126 C  
HETATM    6  N   UNL     1      -8.646  10.727  66.903  1.00  0.00    -0.130 NA 
HETATM    7  H   UNL     1      -8.398  11.127  67.807  1.00  0.00     0.000 HD 
HETATM    8  C   UNL     1      -9.119  11.499  65.997  1.00  0.00    -0.198 C  
ENDROOT
BRANCH   8   9
HETATM    9  C   UNL     1      -9.284  13.007  66.384  1.00  0.00    -0.132 C  
BRANCH   9  10
HETATM   10  O   UNL     1     -10.588  13.486  66.701  1.00  0.00    -0.276 OA 
BRANCH  10  11
HETATM   11  C   UNL     1     -11.392  12.597  67.378  1.00  0.00    -0.313 C  
HETATM   12  C   UNL     1     -11.211  12.813  68.923  1.00  0.00    -0.283 C  
HETATM   13  O   UNL     1     -12.140  11.789  66.840  1.00  0.00    -0.566 OA 
HETATM   14  C   UNL     1     -11.289  11.440  69.632  1.00  0.00    -0.347 A  
HETATM   15  O   UNL     1      -9.899  13.329  69.185  1.00  0.00    -0.393 OA 
HETATM   16  C   UNL     1     -12.284  13.875  69.393  1.00  0.00    -0.338 C  
HETATM   17  C   UNL     1     -12.329  14.149  70.911  1.00  0.00    -0.438 C  
HETATM   18  C   UNL     1     -10.116  10.696  69.888  1.00  0.00     0.053 A  
HETATM   19  H   UNL     1      -9.789  13.460  70.119  1.00  0.00     0.000 HD 
HETATM   20  C   UNL     1     -11.169  15.001  71.420  1.00  0.00    -0.260 C  
HETATM   21  C   UNL     1     -10.159   9.447  70.519  1.00  0.00    -0.335 A  
HETATM   22  C   UNL     1     -11.380   8.904  70.905  1.00  0.00    -0.336 A  
HETATM   23  C   UNL     1     -11.062  16.332  70.682  1.00  0.00    -0.265 C  
HETATM   24  C   UNL     1     -11.072  16.170  69.171  1.00  0.00    -0.329 C  
HETATM   25  C   UNL     1     -12.554   9.603  70.643  1.00  0.00    -0.125 A  
HETATM   26  C   UNL     1     -12.511  10.850  70.003  1.00  0.00    -0.332 A  
HETATM   27  C   UNL     1     -12.195  15.256  68.698  1.00  0.00    -0.030 C  
ENDBRANCH  10  11
ENDBRANCH   9  10
ENDBRANCH   8   9
TORSDOF 3
ENDMDL
MODEL       90
REMARK 921   NORMALIZED FREE ENERGY PREDICTED BY IDOCK:   -5.15 KCAL/MOL
REMARK 922        TOTAL FREE ENERGY PREDICTED BY IDOCK:   -6.50 KCAL/MOL
REMARK 923 INTER-LIGAND FREE ENERGY PREDICTED BY IDOCK:   -5.92 KCAL/MOL
REMARK 924 INTRA-LIGAND FREE ENERGY PREDICTED BY IDOCK:   -0.57 KCAL/MOL
REMARK 927      BINDING AFFINITY PREDICTED BY RF-SCORE:    0.00 PKD
ROOT
HETATM    1  C   UNL     1     -10.654   8.172  69.777  1.00  0.00    -0.231 C  
HETATM    2  N   UNL     1     -10.091   7.563  68.583  1.00  0.00    -0.179 NA 
HETATM    3  C   UNL     1      -9.365   6.327  68.799  1.00  0.00    -0.124 C  
HETATM    4  C   UNL     1      -8.812   5.676  67.550  1.00  0.00    -0.105 C  
HETATM    5  C   UNL     1      -8.923   6.431  66.246  1.00  0.00    -0.156 C  
HETATM    6  N   UNL     1      -9.614   7.703  66.278  1.00  0.00    -0.396 NA 
HETATM    7  H   UNL     1      -9.688   8.242  65.416  1.00  0.00     0.000 HD 
HETATM    8  C   UNL     1     -10.135   8.179  67.347  1.00  0.00    -0.233 C  
ENDROOT
BRANCH   8   9
HETATM    9  C   UNL     1     -10.837   9.572  67.221  1.00  0.00    -0.118 C  
BRANCH   9  10
HETATM   10  O   UNL     1     -10.059  10.684  66.788  1.00  0.00    -0.207 OA 
BRANCH  10  11
HETATM   11  C   UNL     1      -9.866  11.671  67.728  1.00  0.00    -0.179 C  
HETATM   12  C   UNL     1      -9.743  13.058  67.002  1.00  0.00    -0.235 C  
HETATM   13  O   UNL     1      -9.822  11.477  68.938  1.00  0.00    -0.173 OA 
HETATM   14  C   UNL     1      -8.704  13.924  67.753  1.00  0.00    -0.187 A  
HETATM   15  O   UNL     1      -9.224  12.862  65.679  1.00  0.00    -0.446 OA 
HETATM   16  C   UNL     1     -11.191  13.681  66.899  1.00  0.00    -0.326 C  
HETATM   17  C   UNL     1     -11.264  15.100  66.298  1.00  0.00    -0.273 C  
HETATM   18  C   UNL     1      -7.347  13.921  67.362  1.00  0.00    -0.129 A  
HETATM   19  H   UNL     1      -9.149  13.701  65.240  1.00  0.00     0.000 HD 
HETATM   20  C   UNL     1     -11.069  15.142  64.784  1.00  0.00    -0.395 C  
HETATM   21  C   UNL     1      -6.385  14.689  68.031  1.00  0.00    -0.165 A  
HETATM   22  C   UNL     1      -6.756  15.475  69.116  1.00  0.00    -0.145 A  
HETATM   23  C   UNL     1     -12.060  14.244  64.050  1.00  0.00    -0.350 C  
HETATM   24  C   UNL     1     -12.106  12.833  64.612  1.00  0.00    -0.483 C  
HETATM   25  C   UNL     1      -8.080  15.479  69.540  1.00  0.00    -0.202 A  
HETATM   26  C   UNL     1      -9.041  14.704  68.875  1.00  0.00    -0.148 A  
HETATM   27  C   UNL     1     -12.226  12.823  66.130  1.00  0.00    -0.340 C  
ENDBRANCH  10  11
ENDBRANCH   9  10
ENDBRANCH   8   9
TORSDOF 3
ENDMDL
MODEL       91
REMARK 921   NORMALIZED FREE ENERGY PREDICTED BY IDOCK:   -5.14 KCAL/MOL
REMARK 922        TOTAL FREE ENERGY PREDICTED BY IDOCK:   -6.49 KCAL/MOL
REMARK 923 INTER-LIGAND FREE ENERGY PREDICTED BY IDOCK:   -6.01 KCAL/MOL
REMARK 924 INTRA-LIGAND FREE ENERGY PREDICTED BY IDOCK:   -0.48 KCAL/MOL
REMARK 927      BINDING AFFINITY PREDICTED BY RF-SCORE:    0.00 PKD
ROOT
HETATM    1  C   UNL     1     -13.279  11.220  71.803  1.00  0.00    -0.375 C  
HETATM    2  N   UNL     1     -13.042  12.622  71.496  1.00  0.00    -0.342 NA 
HETATM    3  C   UNL     1     -13.700  13.569  72.375  1.00  0.00    -0.602 C  
HETATM    4  C   UNL     1     -13.423  15.026  72.078  1.00  0.00    -0.500 C  
HETATM    5  C   UNL     1     -12.638  15.360  70.831  1.00  0.00    -0.438 C  
HETATM    6  N   UNL     1     -12.150  14.248  70.041  1.00  0.00    -0.320 NA 
HETATM    7  H   UNL     1     -11.632  14.445  69.185  1.00  0.00     0.000 HD 
HETATM    8  C   UNL     1     -12.344  13.027  70.376  1.00  0.00    -0.277 C  
ENDROOT
BRANCH   8   9
HETATM    9  C   UNL     1     -11.765  11.939  69.411  1.00  0.00    -0.339 C  
BRANCH   9  10
HETATM   10  O   UNL     1     -10.379  11.623  69.503  1.00  0.00     0.067 OA 
BRANCH  10  11
HETATM   11  C   UNL     1     -10.090  10.294  69.717  1.00  0.00    -0.203 C  
HETATM   12  C   UNL     1      -9.213   9.760  68.528  1.00  0.00    -0.134 C  
HETATM   13  O   UNL     1     -10.452   9.655  70.698  1.00  0.00    -0.279 OA 
HETATM   14  C   UNL     1      -9.619   8.298  68.226  1.00  0.00    -0.158 A  
HETATM   15  O   UNL     1      -9.504  10.513  67.342  1.00  0.00    -0.152 OA 
HETATM   16  C   UNL     1      -7.695   9.973  68.913  1.00  0.00    -0.089 C  
HETATM   17  C   UNL     1      -6.669   9.416  67.904  1.00  0.00    -0.067 C  
HETATM   18  C   UNL     1     -10.602   8.010  67.254  1.00  0.00    -0.360 A  
HETATM   19  H   UNL     1      -8.974  10.190  66.623  1.00  0.00     0.000 HD 
HETATM   20  C   UNL     1      -6.531  10.254  66.635  1.00  0.00    -0.076 C  
HETATM   21  C   UNL     1     -10.994   6.696  66.968  1.00  0.00    -0.463 A  
HETATM   22  C   UNL     1     -10.417   5.634  67.655  1.00  0.00    -0.284 A  
HETATM   23  C   UNL     1      -6.185  11.708  66.938  1.00  0.00    -0.149 C  
HETATM   24  C   UNL     1      -7.107  12.330  67.973  1.00  0.00    -0.099 C  
HETATM   25  C   UNL     1      -9.464   5.888  68.636  1.00  0.00    -0.137 A  
HETATM   26  C   UNL     1      -9.078   7.205  68.928  1.00  0.00    -0.131 A  
HETATM   27  C   UNL     1      -7.284  11.438  69.195  1.00  0.00    -0.102 C  
ENDBRANCH  10  11
ENDBRANCH   9  10
ENDBRANCH   8   9
TORSDOF 3
ENDMDL
MODEL       92
REMARK 921   NORMALIZED FREE ENERGY PREDICTED BY IDOCK:   -5.12 KCAL/MOL
REMARK 922        TOTAL FREE ENERGY PREDICTED BY IDOCK:   -6.47 KCAL/MOL
REMARK 923 INTER-LIGAND FREE ENERGY PREDICTED BY IDOCK:   -5.52 KCAL/MOL
REMARK 924 INTRA-LIGAND FREE ENERGY PREDICTED BY IDOCK:   -0.95 KCAL/MOL
REMARK 927      BINDING AFFINITY PREDICTED BY RF-SCORE:    0.00 PKD
ROOT
HETATM    1  C   UNL     1     -13.445  14.121  65.221  1.00  0.00     0.688 C  
HETATM    2  N   UNL     1     -12.349  13.428  64.564  1.00  0.00    -0.550 NA 
HETATM    3  C   UNL     1     -12.622  12.056  64.181  1.00  0.00    -0.308 C  
HETATM    4  C   UNL     1     -11.494  11.349  63.464  1.00  0.00    -0.190 C  
HETATM    5  C   UNL     1     -10.165  12.060  63.355  1.00  0.00    -0.426 C  
HETATM    6  N   UNL     1     -10.089  13.402  63.894  1.00  0.00    -0.662 NA 
HETATM    7  H   UNL     1      -9.199  13.898  63.849  1.00  0.00     0.000 HD 
HETATM    8  C   UNL     1     -11.095  13.990  64.424  1.00  0.00    -0.286 C  
ENDROOT
BRANCH   8   9
HETATM    9  C   UNL     1     -10.849  15.436  64.971  1.00  0.00    -0.444 C  
BRANCH   9  10
HETATM   10  O   UNL     1     -10.117  15.583  66.185  1.00  0.00    -0.271 OA 
BRANCH  10  11
HETATM   11  C   UNL     1     -10.467  14.714  67.193  1.00  0.00    -0.268 C  
HETATM   12  C   UNL     1      -9.244  13.785  67.520  1.00  0.00    -0.216 C  
HETATM   13  O   UNL     1     -11.560  14.700  67.749  1.00  0.00    -0.330 OA 
HETATM   14  C   UNL     1      -9.769  12.371  67.866  1.00  0.00    -0.204 A  
HETATM   15  O   UNL     1      -8.428  13.637  66.349  1.00  0.00    -0.387 OA 
HETATM   16  C   UNL     1      -8.394  14.484  68.654  1.00  0.00    -0.164 C  
HETATM   17  C   UNL     1      -7.194  13.671  69.183  1.00  0.00     0.005 C  
HETATM   18  C   UNL     1      -9.887  11.382  66.865  1.00  0.00    -0.218 A  
HETATM   19  H   UNL     1      -7.688  13.074  66.547  1.00  0.00     0.000 HD 
HETATM   20  C   UNL     1      -6.004  13.630  68.227  1.00  0.00    -0.106 C  
HETATM   21  C   UNL     1     -10.369  10.099  67.150  1.00  0.00    -0.295 A  
HETATM   22  C   UNL     1     -10.752   9.772  68.446  1.00  0.00    -0.262 A  
HETATM   23  C   UNL     1      -5.523  15.026  67.845  1.00  0.00    -0.120 C  
HETATM   24  C   UNL     1      -6.649  15.927  67.366  1.00  0.00    -0.222 C  
HETATM   25  C   UNL     1     -10.671  10.733  69.448  1.00  0.00    -0.272 A  
HETATM   26  C   UNL     1     -10.197  12.021  69.160  1.00  0.00     0.127 A  
HETATM   27  C   UNL     1      -7.851  15.891  68.300  1.00  0.00    -0.138 C  
ENDBRANCH  10  11
ENDBRANCH   9  10
ENDBRANCH   8   9
TORSDOF 3
ENDMDL
MODEL       93
REMARK 921   NORMALIZED FREE ENERGY PREDICTED BY IDOCK:   -5.10 KCAL/MOL
REMARK 922        TOTAL FREE ENERGY PREDICTED BY IDOCK:   -6.45 KCAL/MOL
REMARK 923 INTER-LIGAND FREE ENERGY PREDICTED BY IDOCK:   -5.87 KCAL/MOL
REMARK 924 INTRA-LIGAND FREE ENERGY PREDICTED BY IDOCK:   -0.58 KCAL/MOL
REMARK 927      BINDING AFFINITY PREDICTED BY RF-SCORE:    0.00 PKD
ROOT
HETATM    1  C   UNL     1      -7.971  10.334  65.910  1.00  0.00    -0.137 C  
HETATM    2  N   UNL     1      -7.990   8.880  65.859  1.00  0.00    -0.104 NA 
HETATM    3  C   UNL     1      -8.219   8.308  64.546  1.00  0.00    -0.135 C  
HETATM    4  C   UNL     1      -8.202   6.796  64.489  1.00  0.00    -0.008 C  
HETATM    5  C   UNL     1      -8.110   6.037  65.792  1.00  0.00    -0.123 C  
HETATM    6  N   UNL     1      -7.979   6.819  67.004  1.00  0.00    -0.108 NA 
HETATM    7  H   UNL     1      -7.933   6.333  67.899  1.00  0.00     0.000 HD 
HETATM    8  C   UNL     1      -7.921   8.099  66.995  1.00  0.00    -0.104 C  
ENDROOT
BRANCH   8   9
HETATM    9  C   UNL     1      -7.793   8.800  68.389  1.00  0.00    -0.104 C  
BRANCH   9  10
HETATM   10  O   UNL     1      -8.986   9.094  69.110  1.00  0.00    -0.139 OA 
BRANCH  10  11
HETATM   11  C   UNL     1      -9.302  10.431  69.207  1.00  0.00    -0.187 C  
HETATM   12  C   UNL     1     -10.857  10.582  69.363  1.00  0.00    -0.249 C  
HETATM   13  O   UNL     1      -8.480  11.340  69.192  1.00  0.00    -0.051 OA 
HETATM   14  C   UNL     1     -11.314  11.848  68.599  1.00  0.00    -0.331 A  
HETATM   15  O   UNL     1     -11.512   9.472  68.734  1.00  0.00    -0.453 OA 
HETATM   16  C   UNL     1     -11.192  10.569  70.907  1.00  0.00    -0.067 C  
HETATM   17  C   UNL     1     -12.673  10.808  71.269  1.00  0.00    -0.546 C  
HETATM   18  C   UNL     1     -11.745  11.762  67.257  1.00  0.00    -0.293 A  
HETATM   19  H   UNL     1     -12.453   9.564  68.828  1.00  0.00     0.000 HD 
HETATM   20  C   UNL     1     -13.577   9.607  70.998  1.00  0.00    -0.161 C  
HETATM   21  C   UNL     1     -12.156  12.892  66.540  1.00  0.00    -0.375 A  
HETATM   22  C   UNL     1     -12.138  14.143  67.147  1.00  0.00    -0.432 A  
HETATM   23  C   UNL     1     -13.092   8.348  71.709  1.00  0.00    -0.373 C  
HETATM   24  C   UNL     1     -11.620   8.061  71.462  1.00  0.00    -0.313 C  
HETATM   25  C   UNL     1     -11.694  14.263  68.459  1.00  0.00    -0.376 A  
HETATM   26  C   UNL     1     -11.276  13.131  69.174  1.00  0.00    -0.303 A  
HETATM   27  C   UNL     1     -10.752   9.295  71.668  1.00  0.00    -0.393 C  
ENDBRANCH  10  11
ENDBRANCH   9  10
ENDBRANCH   8   9
TORSDOF 3
ENDMDL
MODEL       94
REMARK 921   NORMALIZED FREE ENERGY PREDICTED BY IDOCK:   -5.07 KCAL/MOL
REMARK 922        TOTAL FREE ENERGY PREDICTED BY IDOCK:   -6.41 KCAL/MOL
REMARK 923 INTER-LIGAND FREE ENERGY PREDICTED BY IDOCK:   -5.69 KCAL/MOL
REMARK 924 INTRA-LIGAND FREE ENERGY PREDICTED BY IDOCK:   -0.71 KCAL/MOL
REMARK 927      BINDING AFFINITY PREDICTED BY RF-SCORE:    0.00 PKD
ROOT
HETATM    1  C   UNL     1      -9.504   6.880  69.645  1.00  0.00    -0.147 C  
HETATM    2  N   UNL     1     -10.592   7.511  70.375  1.00  0.00    -0.224 NA 
HETATM    3  C   UNL     1     -11.773   6.690  70.562  1.00  0.00    -0.394 C  
HETATM    4  C   UNL     1     -12.889   7.335  71.354  1.00  0.00    -0.425 C  
HETATM    5  C   UNL     1     -12.742   8.791  71.731  1.00  0.00    -0.359 C  
HETATM    6  N   UNL     1     -11.507   9.448  71.359  1.00  0.00    -0.352 NA 
HETATM    7  H   UNL     1     -11.389  10.435  71.586  1.00  0.00     0.000 HD 
HETATM    8  C   UNL     1     -10.556   8.838  70.756  1.00  0.00    -0.220 C  
ENDROOT
BRANCH   8   9
HETATM    9  C   UNL     1      -9.289   9.690  70.411  1.00  0.00    -0.211 C  
BRANCH   9  10
HETATM   10  O   UNL     1      -9.368  10.610  69.326  1.00  0.00    -0.187 OA 
BRANCH  10  11
HETATM   11  C   UNL     1      -8.480  10.387  68.298  1.00  0.00    -0.123 C  
HETATM   12  C   UNL     1      -9.266  10.344  66.939  1.00  0.00    -0.150 C  
HETATM   13  O   UNL     1      -7.269  10.265  68.441  1.00  0.00    -0.077 OA 
HETATM   14  C   UNL     1      -8.614   9.285  66.018  1.00  0.00    -0.158 A  
HETATM   15  O   UNL     1     -10.609   9.901  67.175  1.00  0.00    -0.245 OA 
HETATM   16  C   UNL     1      -9.304  11.812  66.355  1.00  0.00    -0.229 C  
HETATM   17  C   UNL     1      -9.954  11.959  64.963  1.00  0.00    -0.276 C  
HETATM   18  C   UNL     1      -9.088   7.955  66.004  1.00  0.00    -0.181 A  
HETATM   19  H   UNL     1     -11.085   9.875  66.353  1.00  0.00     0.000 HD 
HETATM   20  C   UNL     1     -11.478  11.857  64.978  1.00  0.00    -0.306 C  
HETATM   21  C   UNL     1      -8.510   6.975  65.187  1.00  0.00    -0.023 A  
HETATM   22  C   UNL     1      -7.436   7.300  64.367  1.00  0.00    -0.097 A  
HETATM   23  C   UNL     1     -12.115  12.866  65.928  1.00  0.00    -0.503 C  
HETATM   24  C   UNL     1     -11.496  12.841  67.316  1.00  0.00    -0.393 C  
HETATM   25  C   UNL     1      -6.931   8.596  64.378  1.00  0.00    -0.081 A  
HETATM   26  C   UNL     1      -7.505   9.574  65.202  1.00  0.00    -0.109 A  
HETATM   27  C   UNL     1      -9.974  12.869  67.267  1.00  0.00    -0.224 C  
ENDBRANCH  10  11
ENDBRANCH   9  10
ENDBRANCH   8   9
TORSDOF 3
ENDMDL
MODEL       95
REMARK 921   NORMALIZED FREE ENERGY PREDICTED BY IDOCK:   -5.05 KCAL/MOL
REMARK 922        TOTAL FREE ENERGY PREDICTED BY IDOCK:   -6.38 KCAL/MOL
REMARK 923 INTER-LIGAND FREE ENERGY PREDICTED BY IDOCK:   -5.95 KCAL/MOL
REMARK 924 INTRA-LIGAND FREE ENERGY PREDICTED BY IDOCK:   -0.44 KCAL/MOL
REMARK 927      BINDING AFFINITY PREDICTED BY RF-SCORE:    0.00 PKD
ROOT
HETATM    1  C   UNL     1      -6.340  12.040  69.127  1.00  0.00    -0.093 C  
HETATM    2  N   UNL     1      -6.326  10.627  68.785  1.00  0.00    -0.046 NA 
HETATM    3  C   UNL     1      -5.648   9.765  69.735  1.00  0.00    -0.037 C  
HETATM    4  C   UNL     1      -5.666   8.291  69.396  1.00  0.00    -0.030 C  
HETATM    5  C   UNL     1      -6.232   7.876  68.058  1.00  0.00    -0.046 C  
HETATM    6  N   UNL     1      -6.778   8.923  67.219  1.00  0.00    -0.065 NA 
HETATM    7  H   UNL     1      -7.151   8.674  66.304  1.00  0.00     0.000 HD 
HETATM    8  C   UNL     1      -6.811  10.151  67.583  1.00  0.00    -0.076 C  
ENDROOT
BRANCH   8   9
HETATM    9  C   UNL     1      -7.421  11.165  66.558  1.00  0.00    -0.131 C  
BRANCH   9  10
HETATM   10  O   UNL     1      -8.822  11.110  66.306  1.00  0.00    -0.175 OA 
BRANCH  10  11
HETATM   11  C   UNL     1      -9.624  11.563  67.329  1.00  0.00    -0.172 C  
HETATM   12  C   UNL     1     -10.342  12.884  66.875  1.00  0.00    -0.243 C  
HETATM   13  O   UNL     1      -9.757  10.997  68.408  1.00  0.00    -0.166 OA 
HETATM   14  C   UNL     1     -10.451  13.836  68.090  1.00  0.00    -0.252 A  
HETATM   15  O   UNL     1      -9.532  13.560  65.903  1.00  0.00    -0.479 OA 
HETATM   16  C   UNL     1     -11.717  12.482  66.208  1.00  0.00    -0.462 C  
HETATM   17  C   UNL     1     -12.620  13.660  65.783  1.00  0.00    -0.511 C  
HETATM   18  C   UNL     1      -9.452  14.803  68.337  1.00  0.00    -0.213 A  
HETATM   19  H   UNL     1      -9.966  14.359  65.628  1.00  0.00     0.000 HD 
HETATM   20  C   UNL     1     -12.145  14.378  64.522  1.00  0.00    -0.498 C  
HETATM   21  C   UNL     1      -9.522  15.671  69.434  1.00  0.00    -0.279 A  
HETATM   22  C   UNL     1     -10.591  15.588  70.319  1.00  0.00    -0.324 A  
HETATM   23  C   UNL     1     -11.986  13.427  63.340  1.00  0.00    -0.406 C  
HETATM   24  C   UNL     1     -11.159  12.198  63.679  1.00  0.00    -0.528 C  
HETATM   25  C   UNL     1     -11.577  14.629  70.115  1.00  0.00    -0.336 A  
HETATM   26  C   UNL     1     -11.503  13.755  69.021  1.00  0.00    -0.349 A  
HETATM   27  C   UNL     1     -11.608  11.545  64.980  1.00  0.00    -0.032 C  
ENDBRANCH  10  11
ENDBRANCH   9  10
ENDBRANCH   8   9
TORSDOF 3
ENDMDL
MODEL       96
REMARK 921   NORMALIZED FREE ENERGY PREDICTED BY IDOCK:   -5.05 KCAL/MOL
REMARK 922        TOTAL FREE ENERGY PREDICTED BY IDOCK:   -6.38 KCAL/MOL
REMARK 923 INTER-LIGAND FREE ENERGY PREDICTED BY IDOCK:   -5.49 KCAL/MOL
REMARK 924 INTRA-LIGAND FREE ENERGY PREDICTED BY IDOCK:   -0.90 KCAL/MOL
REMARK 927      BINDING AFFINITY PREDICTED BY RF-SCORE:    0.00 PKD
ROOT
HETATM    1  C   UNL     1      -8.828  15.484  69.113  1.00  0.00    -0.253 C  
HETATM    2  N   UNL     1      -9.379  14.923  67.890  1.00  0.00    -0.189 NA 
HETATM    3  C   UNL     1     -10.714  15.373  67.546  1.00  0.00    -0.295 C  
HETATM    4  C   UNL     1     -11.271  14.817  66.255  1.00  0.00    -0.343 C  
HETATM    5  C   UNL     1     -10.475  13.750  65.539  1.00  0.00    -0.318 C  
HETATM    6  N   UNL     1      -9.199  13.382  66.115  1.00  0.00    -0.476 NA 
HETATM    7  H   UNL     1      -8.649  12.652  65.662  1.00  0.00     0.000 HD 
HETATM    8  C   UNL     1      -8.732  13.938  67.170  1.00  0.00    -0.221 C  
ENDROOT
BRANCH   8   9
HETATM    9  C   UNL     1      -7.343  13.420  67.675  1.00  0.00    -0.168 C  
BRANCH   9  10
HETATM   10  O   UNL     1      -7.088  12.019  67.633  1.00  0.00    -0.097 OA 
BRANCH  10  11
HETATM   11  C   UNL     1      -7.466  11.318  68.755  1.00  0.00    -0.123 C  
HETATM   12  C   UNL     1      -8.439  10.159  68.335  1.00  0.00    -0.118 C  
HETATM   13  O   UNL     1      -7.075  11.563  69.891  1.00  0.00     0.041 OA 
HETATM   14  C   UNL     1      -9.514   9.986  69.434  1.00  0.00    -0.237 A  
HETATM   15  O   UNL     1      -9.140  10.531  67.140  1.00  0.00    -0.143 OA 
HETATM   16  C   UNL     1      -7.565   8.876  68.039  1.00  0.00    -0.093 C  
HETATM   17  C   UNL     1      -8.356   7.594  67.703  1.00  0.00    -0.118 C  
HETATM   18  C   UNL     1     -10.748  10.667  69.347  1.00  0.00    -0.281 A  
HETATM   19  H   UNL     1      -9.729   9.830  66.886  1.00  0.00     0.000 HD 
HETATM   20  C   UNL     1      -8.955   7.588  66.299  1.00  0.00    -0.199 C  
HETATM   21  C   UNL     1     -11.734  10.535  70.333  1.00  0.00    -0.434 A  
HETATM   22  C   UNL     1     -11.507   9.722  71.438  1.00  0.00    -0.435 A  
HETATM   23  C   UNL     1      -7.901   7.813  65.220  1.00  0.00    -0.117 C  
HETATM   24  C   UNL     1      -7.025   9.024  65.495  1.00  0.00    -0.080 C  
HETATM   25  C   UNL     1     -10.291   9.058  71.564  1.00  0.00    -0.412 A  
HETATM   26  C   UNL     1      -9.301   9.197  70.580  1.00  0.00    -0.312 A  
HETATM   27  C   UNL     1      -6.502   9.042  66.925  1.00  0.00    -0.064 C  
ENDBRANCH  10  11
ENDBRANCH   9  10
ENDBRANCH   8   9
TORSDOF 3
ENDMDL
MODEL       97
REMARK 921   NORMALIZED FREE ENERGY PREDICTED BY IDOCK:   -5.04 KCAL/MOL
REMARK 922        TOTAL FREE ENERGY PREDICTED BY IDOCK:   -6.38 KCAL/MOL
REMARK 923 INTER-LIGAND FREE ENERGY PREDICTED BY IDOCK:   -5.88 KCAL/MOL
REMARK 924 INTRA-LIGAND FREE ENERGY PREDICTED BY IDOCK:   -0.49 KCAL/MOL
REMARK 927      BINDING AFFINITY PREDICTED BY RF-SCORE:    0.00 PKD
ROOT
HETATM    1  C   UNL     1      -7.676   7.415  69.084  1.00  0.00    -0.111 C  
HETATM    2  N   UNL     1      -8.862   7.921  69.757  1.00  0.00    -0.141 NA 
HETATM    3  C   UNL     1      -9.749   6.909  70.297  1.00  0.00    -0.172 C  
HETATM    4  C   UNL     1     -10.963   7.438  71.028  1.00  0.00    -0.268 C  
HETATM    5  C   UNL     1     -11.220   8.927  70.995  1.00  0.00    -0.281 C  
HETATM    6  N   UNL     1     -10.242   9.749  70.314  1.00  0.00    -0.277 NA 
HETATM    7  H   UNL     1     -10.400  10.755  70.261  1.00  0.00     0.000 HD 
HETATM    8  C   UNL     1      -9.187   9.263  69.774  1.00  0.00    -0.181 C  
ENDROOT
BRANCH   8   9
HETATM    9  C   UNL     1      -8.234  10.282  69.065  1.00  0.00    -0.139 C  
BRANCH   9  10
HETATM   10  O   UNL     1      -8.770  11.538  68.657  1.00  0.00    -0.158 OA 
BRANCH  10  11
HETATM   11  C   UNL     1      -8.908  11.706  67.297  1.00  0.00    -0.164 C  
HETATM   12  C   UNL     1      -9.588  13.093  67.016  1.00  0.00    -0.241 C  
HETATM   13  O   UNL     1      -8.531  10.897  66.457  1.00  0.00    -0.147 OA 
HETATM   14  C   UNL     1     -10.531  12.949  65.798  1.00  0.00    -0.293 A  
HETATM   15  O   UNL     1     -10.419  13.453  68.129  1.00  0.00    -0.231 OA 
HETATM   16  C   UNL     1      -8.444  14.171  66.859  1.00  0.00    -0.117 C  
HETATM   17  C   UNL     1      -8.914  15.591  66.478  1.00  0.00    -0.348 C  
HETATM   18  C   UNL     1     -11.897  12.637  65.978  1.00  0.00    -0.492 A  
HETATM   19  H   UNL     1     -10.831  14.292  67.959  1.00  0.00     0.000 HD 
HETATM   20  C   UNL     1      -9.565  16.356  67.628  1.00  0.00    -0.227 C  
HETATM   21  C   UNL     1     -12.769  12.492  64.892  1.00  0.00    -0.371 A  
HETATM   22  C   UNL     1     -12.295  12.647  63.594  1.00  0.00    -0.584 A  
HETATM   23  C   UNL     1      -8.654  16.449  68.848  1.00  0.00    -0.250 C  
HETATM   24  C   UNL     1      -8.087  15.102  69.265  1.00  0.00    -0.217 C  
HETATM   25  C   UNL     1     -10.949  12.929  63.384  1.00  0.00    -0.090 A  
HETATM   26  C   UNL     1     -10.074  13.066  64.472  1.00  0.00    -0.254 A  
HETATM   27  C   UNL     1      -7.512  14.330  68.085  1.00  0.00    -0.131 C  
ENDBRANCH  10  11
ENDBRANCH   9  10
ENDBRANCH   8   9
TORSDOF 3
ENDMDL
MODEL       98
REMARK 921   NORMALIZED FREE ENERGY PREDICTED BY IDOCK:   -5.04 KCAL/MOL
REMARK 922        TOTAL FREE ENERGY PREDICTED BY IDOCK:   -6.38 KCAL/MOL
REMARK 923 INTER-LIGAND FREE ENERGY PREDICTED BY IDOCK:   -5.77 KCAL/MOL
REMARK 924 INTRA-LIGAND FREE ENERGY PREDICTED BY IDOCK:   -0.61 KCAL/MOL
REMARK 927      BINDING AFFINITY PREDICTED BY RF-SCORE:    0.00 PKD
ROOT
HETATM    1  C   UNL     1     -10.837   6.778  72.689  1.00  0.00    -0.250 C  
HETATM    2  N   UNL     1     -11.668   7.877  72.224  1.00  0.00    -0.333 NA 
HETATM    3  C   UNL     1     -13.098   7.661  72.328  1.00  0.00     0.035 C  
HETATM    4  C   UNL     1     -13.961   8.820  71.878  1.00  0.00    -0.493 C  
HETATM    5  C   UNL     1     -13.279  10.003  71.230  1.00  0.00    -0.383 C  
HETATM    6  N   UNL     1     -11.834   9.967  71.146  1.00  0.00    -0.356 NA 
HETATM    7  H   UNL     1     -11.350  10.744  70.698  1.00  0.00     0.000 HD 
HETATM    8  C   UNL     1     -11.140   8.996  71.612  1.00  0.00    -0.363 C  
ENDROOT
BRANCH   8   9
HETATM    9  C   UNL     1      -9.589   9.099  71.431  1.00  0.00    -0.246 C  
BRANCH   9  10
HETATM   10  O   UNL     1      -9.008   8.555  70.250  1.00  0.00    -0.141 OA 
BRANCH  10  11
HETATM   11  C   UNL     1      -9.458   9.099  69.068  1.00  0.00    -0.152 C  
HETATM   12  C   UNL     1      -9.255   8.057  67.911  1.00  0.00    -0.131 C  
HETATM   13  O   UNL     1      -9.954  10.215  68.962  1.00  0.00    -0.186 OA 
HETATM   14  C   UNL     1      -8.863   8.814  66.620  1.00  0.00    -0.153 A  
HETATM   15  O   UNL     1      -8.150   7.199  68.227  1.00  0.00    -0.121 OA 
HETATM   16  C   UNL     1     -10.569   7.185  67.809  1.00  0.00    -0.293 C  
HETATM   17  C   UNL     1     -10.600   6.161  66.654  1.00  0.00    -0.296 C  
HETATM   18  C   UNL     1      -7.505   9.017  66.289  1.00  0.00    -0.092 A  
HETATM   19  H   UNL     1      -8.026   6.568  67.527  1.00  0.00     0.000 HD 
HETATM   20  C   UNL     1      -9.727   4.932  66.895  1.00  0.00    -0.193 C  
HETATM   21  C   UNL     1      -7.123   9.706  65.131  1.00  0.00    -0.114 A  
HETATM   22  C   UNL     1      -8.093  10.219  64.276  1.00  0.00    -0.143 A  
HETATM   23  C   UNL     1     -10.080   4.218  68.196  1.00  0.00     0.063 C  
HETATM   24  C   UNL     1     -10.135   5.159  69.388  1.00  0.00    -0.305 C  
HETATM   25  C   UNL     1      -9.438  10.057  64.590  1.00  0.00    -0.367 A  
HETATM   26  C   UNL     1      -9.820   9.374  65.753  1.00  0.00    -0.345 A  
HETATM   27  C   UNL     1     -10.951   6.411  69.094  1.00  0.00    -0.416 C  
ENDBRANCH  10  11
ENDBRANCH   9  10
ENDBRANCH   8   9
TORSDOF 3
ENDMDL
MODEL       99
REMARK 921   NORMALIZED FREE ENERGY PREDICTED BY IDOCK:   -5.03 KCAL/MOL
REMARK 922        TOTAL FREE ENERGY PREDICTED BY IDOCK:   -6.36 KCAL/MOL
REMARK 923 INTER-LIGAND FREE ENERGY PREDICTED BY IDOCK:   -5.42 KCAL/MOL
REMARK 924 INTRA-LIGAND FREE ENERGY PREDICTED BY IDOCK:   -0.94 KCAL/MOL
REMARK 927      BINDING AFFINITY PREDICTED BY RF-SCORE:    0.00 PKD
ROOT
HETATM    1  C   UNL     1      -6.043  15.997  69.703  1.00  0.00    -0.172 C  
HETATM    2  N   UNL     1      -6.913  16.086  68.541  1.00  0.00    -0.127 NA 
HETATM    3  C   UNL     1      -7.804  17.230  68.518  1.00  0.00    -0.266 C  
HETATM    4  C   UNL     1      -8.682  17.341  67.291  1.00  0.00    -0.221 C  
HETATM    5  C   UNL     1      -8.669  16.197  66.303  1.00  0.00    -0.337 C  
HETATM    6  N   UNL     1      -7.761  15.102  66.574  1.00  0.00    -0.196 NA 
HETATM    7  H   UNL     1      -7.745  14.310  65.932  1.00  0.00     0.000 HD 
HETATM    8  C   UNL     1      -6.979  15.089  67.588  1.00  0.00    -0.182 C  
ENDROOT
BRANCH   8   9
HETATM    9  C   UNL     1      -6.067  13.827  67.748  1.00  0.00    -0.132 C  
BRANCH   9  10
HETATM   10  O   UNL     1      -6.553  12.576  67.269  1.00  0.00    -0.157 OA 
BRANCH  10  11
HETATM   11  C   UNL     1      -7.415  11.917  68.116  1.00  0.00    -0.100 C  
HETATM   12  C   UNL     1      -8.717  11.532  67.327  1.00  0.00    -0.151 C  
HETATM   13  O   UNL     1      -7.174  11.661  69.290  1.00  0.00    -0.099 OA 
HETATM   14  C   UNL     1      -9.933  11.666  68.274  1.00  0.00    -0.201 A  
HETATM   15  O   UNL     1      -8.929  12.472  66.264  1.00  0.00    -0.396 OA 
HETATM   16  C   UNL     1      -8.502  10.095  66.707  1.00  0.00    -0.126 C  
HETATM   17  C   UNL     1      -9.720   9.497  65.971  1.00  0.00    -0.341 C  
HETATM   18  C   UNL     1     -10.669  12.870  68.335  1.00  0.00    -0.273 A  
HETATM   19  H   UNL     1      -9.717  12.240  65.787  1.00  0.00     0.000 HD 
HETATM   20  C   UNL     1      -9.980  10.119  64.601  1.00  0.00    -0.304 C  
HETATM   21  C   UNL     1     -11.767  13.021  69.191  1.00  0.00    -0.378 A  
HETATM   22  C   UNL     1     -12.154  11.971  70.016  1.00  0.00    -0.355 A  
HETATM   23  C   UNL     1      -8.761  10.034  63.687  1.00  0.00    -0.227 C  
HETATM   24  C   UNL     1      -7.492  10.544  64.348  1.00  0.00     0.084 C  
HETATM   25  C   UNL     1     -11.434  10.782  69.997  1.00  0.00    -0.412 A  
HETATM   26  C   UNL     1     -10.329  10.634  69.145  1.00  0.00    -0.242 A  
HETATM   27  C   UNL     1      -7.297   9.965  65.743  1.00  0.00    -0.111 C  
ENDBRANCH  10  11
ENDBRANCH   9  10
ENDBRANCH   8   9
TORSDOF 3
ENDMDL
MODEL      100
REMARK 921   NORMALIZED FREE ENERGY PREDICTED BY IDOCK:   -5.01 KCAL/MOL
REMARK 922        TOTAL FREE ENERGY PREDICTED BY IDOCK:   -6.33 KCAL/MOL
REMARK 923 INTER-LIGAND FREE ENERGY PREDICTED BY IDOCK:   -5.92 KCAL/MOL
REMARK 924 INTRA-LIGAND FREE ENERGY PREDICTED BY IDOCK:   -0.41 KCAL/MOL
REMARK 927      BINDING AFFINITY PREDICTED BY RF-SCORE:    0.00 PKD
ROOT
HETATM    1  C   UNL     1     -10.835  13.945  68.478  1.00  0.00    -0.259 C  
HETATM    2  N   UNL     1     -11.092  13.504  67.117  1.00  0.00    -0.287 NA 
HETATM    3  C   UNL     1     -11.315  14.563  66.152  1.00  0.00    -0.348 C  
HETATM    4  C   UNL     1     -11.544  14.103  64.729  1.00  0.00    -0.400 C  
HETATM    5  C   UNL     1     -11.677  12.619  64.475  1.00  0.00    -0.359 C  
HETATM    6  N   UNL     1     -11.509  11.738  65.611  1.00  0.00    -0.249 NA 
HETATM    7  H   UNL     1     -11.610  10.733  65.471  1.00  0.00     0.000 HD 
HETATM    8  C   UNL     1     -11.238  12.171  66.786  1.00  0.00    -0.322 C  
ENDROOT
BRANCH   8   9
HETATM    9  C   UNL     1     -11.099  11.092  67.912  1.00  0.00    -0.273 C  
BRANCH   9  10
HETATM   10  O   UNL     1     -10.117  10.072  67.753  1.00  0.00    -0.166 OA 
BRANCH  10  11
HETATM   11  C   UNL     1      -9.723   9.447  68.914  1.00  0.00    -0.164 C  
HETATM   12  C   UNL     1      -9.864   7.893  68.736  1.00  0.00    -0.167 C  
HETATM   13  O   UNL     1      -9.311  10.030  69.910  1.00  0.00    -0.220 OA 
HETATM   14  C   UNL     1     -10.326   7.276  70.078  1.00  0.00    -0.222 A  
HETATM   15  O   UNL     1     -10.899   7.611  67.785  1.00  0.00    -0.449 OA 
HETATM   16  C   UNL     1      -8.491   7.343  68.179  1.00  0.00    -0.124 C  
HETATM   17  C   UNL     1      -8.399   5.810  68.030  1.00  0.00    -0.103 C  
HETATM   18  C   UNL     1     -11.699   7.082  70.345  1.00  0.00    -0.326 A  
HETATM   19  H   UNL     1     -10.985   6.671  67.677  1.00  0.00     0.000 HD 
HETATM   20  C   UNL     1      -9.177   5.257  66.838  1.00  0.00    -0.121 C  
HETATM   21  C   UNL     1     -12.144   6.535  71.555  1.00  0.00    -0.363 A  
HETATM   22  C   UNL     1     -11.225   6.174  72.534  1.00  0.00    -0.327 A  
HETATM   23  C   UNL     1      -8.757   5.906  65.523  1.00  0.00    -0.133 C  
HETATM   24  C   UNL     1      -8.756   7.424  65.589  1.00  0.00    -0.099 C  
HETATM   25  C   UNL     1      -9.868   6.377  72.310  1.00  0.00    -0.168 A  
HETATM   26  C   UNL     1      -9.423   6.933  71.101  1.00  0.00    -0.166 A  
HETATM   27  C   UNL     1      -8.037   7.945  66.827  1.00  0.00    -0.108 C  
ENDBRANCH  10  11
ENDBRANCH   9  10
ENDBRANCH   8   9
TORSDOF 3
ENDMDL
MODEL      101
REMARK 921   NORMALIZED FREE ENERGY PREDICTED BY IDOCK:   -4.98 KCAL/MOL
REMARK 922        TOTAL FREE ENERGY PREDICTED BY IDOCK:   -6.30 KCAL/MOL
REMARK 923 INTER-LIGAND FREE ENERGY PREDICTED BY IDOCK:   -5.78 KCAL/MOL
REMARK 924 INTRA-LIGAND FREE ENERGY PREDICTED BY IDOCK:   -0.52 KCAL/MOL
REMARK 927      BINDING AFFINITY PREDICTED BY RF-SCORE:    0.00 PKD
ROOT
HETATM    1  C   UNL     1     -10.081  18.122  68.670  1.00  0.00    -0.392 C  
HETATM    2  N   UNL     1      -9.017  18.290  67.693  1.00  0.00    -0.264 NA 
HETATM    3  C   UNL     1      -9.063  19.522  66.930  1.00  0.00    -0.331 C  
HETATM    4  C   UNL     1      -7.934  19.712  65.941  1.00  0.00    -0.265 C  
HETATM    5  C   UNL     1      -6.976  18.563  65.727  1.00  0.00    -0.252 C  
HETATM    6  N   UNL     1      -7.173  17.380  66.538  1.00  0.00    -0.240 NA 
HETATM    7  H   UNL     1      -6.552  16.584  66.402  1.00  0.00     0.000 HD 
HETATM    8  C   UNL     1      -8.098  17.295  67.420  1.00  0.00    -0.190 C  
ENDROOT
BRANCH   8   9
HETATM    9  C   UNL     1      -8.189  15.945  68.206  1.00  0.00    -0.152 C  
BRANCH   9  10
HETATM   10  O   UNL     1      -9.165  14.990  67.799  1.00  0.00    -0.179 OA 
BRANCH  10  11
HETATM   11  C   UNL     1      -8.663  13.796  67.334  1.00  0.00    -0.207 C  
HETATM   12  C   UNL     1      -9.821  12.979  66.657  1.00  0.00    -0.252 C  
HETATM   13  O   UNL     1      -7.489  13.454  67.424  1.00  0.00    -0.165 OA 
HETATM   14  C   UNL     1      -9.612  11.475  66.956  1.00  0.00    -0.199 A  
HETATM   15  O   UNL     1     -11.074  13.338  67.255  1.00  0.00    -0.267 OA 
HETATM   16  C   UNL     1      -9.854  13.363  65.125  1.00  0.00    -0.094 C  
HETATM   17  C   UNL     1     -10.871  12.583  64.264  1.00  0.00    -0.400 C  
HETATM   18  C   UNL     1     -10.226  10.871  68.076  1.00  0.00    -0.202 A  
HETATM   19  H   UNL     1     -11.775  12.844  66.847  1.00  0.00     0.000 HD 
HETATM   20  C   UNL     1     -12.319  13.020  64.471  1.00  0.00    -0.461 C  
HETATM   21  C   UNL     1     -10.045   9.515  68.374  1.00  0.00    -0.199 A  
HETATM   22  C   UNL     1      -9.237   8.727  67.562  1.00  0.00    -0.154 A  
HETATM   23  C   UNL     1     -12.512  14.513  64.228  1.00  0.00    -0.293 C  
HETATM   24  C   UNL     1     -11.511  15.368  64.989  1.00  0.00    -0.263 C  
HETATM   25  C   UNL     1      -8.599   9.299  66.467  1.00  0.00    -0.139 A  
HETATM   26  C   UNL     1      -8.773  10.660  66.174  1.00  0.00    -0.178 A  
HETATM   27  C   UNL     1     -10.084  14.864  64.825  1.00  0.00    -0.040 C  
ENDBRANCH  10  11
ENDBRANCH   9  10
ENDBRANCH   8   9
TORSDOF 3
ENDMDL
MODEL      102
REMARK 921   NORMALIZED FREE ENERGY PREDICTED BY IDOCK:   -4.96 KCAL/MOL
REMARK 922        TOTAL FREE ENERGY PREDICTED BY IDOCK:   -6.28 KCAL/MOL
REMARK 923 INTER-LIGAND FREE ENERGY PREDICTED BY IDOCK:   -5.86 KCAL/MOL
REMARK 924 INTRA-LIGAND FREE ENERGY PREDICTED BY IDOCK:   -0.42 KCAL/MOL
REMARK 927      BINDING AFFINITY PREDICTED BY RF-SCORE:    0.00 PKD
ROOT
HETATM    1  C   UNL     1      -6.950  17.279  66.486  1.00  0.00    -0.263 C  
HETATM    2  N   UNL     1      -8.314  17.625  66.852  1.00  0.00    -0.227 NA 
HETATM    3  C   UNL     1      -8.550  19.033  67.110  1.00  0.00    -0.281 C  
HETATM    4  C   UNL     1      -9.977  19.397  67.454  1.00  0.00    -0.476 C  
HETATM    5  C   UNL     1     -10.968  18.274  67.651  1.00  0.00    -0.103 C  
HETATM    6  N   UNL     1     -10.490  16.925  67.430  1.00  0.00    -0.317 NA 
HETATM    7  H   UNL     1     -11.134  16.147  67.572  1.00  0.00     0.000 HD 
HETATM    8  C   UNL     1      -9.289  16.671  67.063  1.00  0.00    -0.224 C  
ENDROOT
BRANCH   8   9
HETATM    9  C   UNL     1      -8.922  15.160  66.877  1.00  0.00    -0.252 C  
BRANCH   9  10
HETATM   10  O   UNL     1      -9.781  14.180  67.454  1.00  0.00    -0.225 OA 
BRANCH  10  11
HETATM   11  C   UNL     1      -9.814  12.968  66.802  1.00  0.00    -0.243 C  
HETATM   12  C   UNL     1      -9.923  11.816  67.863  1.00  0.00    -0.181 C  
HETATM   13  O   UNL     1      -9.783  12.835  65.584  1.00  0.00    -0.223 OA 
HETATM   14  C   UNL     1      -9.096  10.604  67.371  1.00  0.00    -0.146 A  
HETATM   15  O   UNL     1      -9.325  12.240  69.095  1.00  0.00    -0.296 OA 
HETATM   16  C   UNL     1     -11.458  11.528  68.109  1.00  0.00    -0.385 C  
HETATM   17  C   UNL     1     -11.771  10.350  69.055  1.00  0.00    -0.167 C  
HETATM   18  C   UNL     1      -7.748  10.448  67.762  1.00  0.00    -0.089 A  
HETATM   19  H   UNL     1      -9.390  11.543  69.737  1.00  0.00     0.000 HD 
HETATM   20  C   UNL     1     -11.526  10.660  70.530  1.00  0.00    -0.407 C  
HETATM   21  C   UNL     1      -6.974   9.366  67.323  1.00  0.00    -0.085 A  
HETATM   22  C   UNL     1      -7.528   8.414  66.475  1.00  0.00    -0.081 A  
HETATM   23  C   UNL     1     -12.301  11.887  70.999  1.00  0.00    -0.362 C  
HETATM   24  C   UNL     1     -12.106  13.090  70.091  1.00  0.00    -0.377 C  
HETATM   25  C   UNL     1      -8.846   8.555  66.052  1.00  0.00    -0.208 A  
HETATM   26  C   UNL     1      -9.617   9.644  66.485  1.00  0.00    -0.252 A  
HETATM   27  C   UNL     1     -12.282  12.735  68.620  1.00  0.00     0.011 C  
ENDBRANCH  10  11
ENDBRANCH   9  10
ENDBRANCH   8   9
TORSDOF 3
ENDMDL
MODEL      103
REMARK 921   NORMALIZED FREE ENERGY PREDICTED BY IDOCK:   -4.94 KCAL/MOL
REMARK 922        TOTAL FREE ENERGY PREDICTED BY IDOCK:   -6.26 KCAL/MOL
REMARK 923 INTER-LIGAND FREE ENERGY PREDICTED BY IDOCK:   -5.79 KCAL/MOL
REMARK 924 INTRA-LIGAND FREE ENERGY PREDICTED BY IDOCK:   -0.47 KCAL/MOL
REMARK 927      BINDING AFFINITY PREDICTED BY RF-SCORE:    0.00 PKD
ROOT
HETATM    1  C   UNL     1     -13.190  10.347  72.014  1.00  0.00    -0.392 C  
HETATM    2  N   UNL     1     -12.710  11.607  71.470  1.00  0.00    -0.354 NA 
HETATM    3  C   UNL     1     -13.176  12.797  72.155  1.00  0.00    -0.441 C  
HETATM    4  C   UNL     1     -12.647  14.105  71.611  1.00  0.00    -0.420 C  
HETATM    5  C   UNL     1     -11.831  14.068  70.340  1.00  0.00    -0.286 C  
HETATM    6  N   UNL     1     -11.560  12.765  69.768  1.00  0.00    -0.480 NA 
HETATM    7  H   UNL     1     -11.026  12.712  68.901  1.00  0.00     0.000 HD 
HETATM    8  C   UNL     1     -11.965  11.677  70.309  1.00  0.00    -0.358 C  
ENDROOT
BRANCH   8   9
HETATM    9  C   UNL     1     -11.603  10.350  69.562  1.00  0.00    -0.219 C  
BRANCH   9  10
HETATM   10  O   UNL     1     -10.762  10.429  68.414  1.00  0.00    -0.196 OA 
BRANCH  10  11
HETATM   11  C   UNL     1      -9.552   9.782  68.523  1.00  0.00    -0.149 C  
HETATM   12  C   UNL     1      -9.203   9.106  67.150  1.00  0.00    -0.133 C  
HETATM   13  O   UNL     1      -8.863   9.767  69.537  1.00  0.00    -0.163 OA 
HETATM   14  C   UNL     1      -8.492   7.759  67.422  1.00  0.00    -0.119 A  
HETATM   15  O   UNL     1     -10.414   8.789  66.450  1.00  0.00    -0.278 OA 
HETATM   16  C   UNL     1      -8.373  10.146  66.296  1.00  0.00    -0.130 C  
HETATM   17  C   UNL     1      -7.849   9.626  64.940  1.00  0.00    -0.123 C  
HETATM   18  C   UNL     1      -9.232   6.558  67.499  1.00  0.00    -0.113 A  
HETATM   19  H   UNL     1     -10.203   8.380  65.618  1.00  0.00     0.000 HD 
HETATM   20  C   UNL     1      -8.927   9.508  63.866  1.00  0.00    -0.217 C  
HETATM   21  C   UNL     1      -8.614   5.327  67.753  1.00  0.00    -0.104 A  
HETATM   22  C   UNL     1      -7.239   5.267  67.945  1.00  0.00    -0.071 A  
HETATM   23  C   UNL     1      -9.663  10.824  63.638  1.00  0.00    -0.376 C  
HETATM   24  C   UNL     1     -10.167  11.449  64.928  1.00  0.00    -0.330 C  
HETATM   25  C   UNL     1      -6.487   6.436  67.901  1.00  0.00    -0.049 A  
HETATM   26  C   UNL     1      -7.108   7.670  67.654  1.00  0.00    -0.085 A  
HETATM   27  C   UNL     1      -9.092  11.486  66.006  1.00  0.00    -0.206 C  
ENDBRANCH  10  11
ENDBRANCH   9  10
ENDBRANCH   8   9
TORSDOF 3
ENDMDL
MODEL      104
REMARK 921   NORMALIZED FREE ENERGY PREDICTED BY IDOCK:   -4.93 KCAL/MOL
REMARK 922        TOTAL FREE ENERGY PREDICTED BY IDOCK:   -6.24 KCAL/MOL
REMARK 923 INTER-LIGAND FREE ENERGY PREDICTED BY IDOCK:   -5.86 KCAL/MOL
REMARK 924 INTRA-LIGAND FREE ENERGY PREDICTED BY IDOCK:   -0.39 KCAL/MOL
REMARK 927      BINDING AFFINITY PREDICTED BY RF-SCORE:    0.00 PKD
ROOT
HETATM    1  C   UNL     1      -6.627  16.444  69.436  1.00  0.00    -0.210 C  
HETATM    2  N   UNL     1      -6.413  15.116  68.883  1.00  0.00    -0.095 NA 
HETATM    3  C   UNL     1      -5.449  14.296  69.590  1.00  0.00    -0.093 C  
HETATM    4  C   UNL     1      -5.255  12.902  69.036  1.00  0.00    -0.068 C  
HETATM    5  C   UNL     1      -5.944  12.553  67.737  1.00  0.00    -0.119 C  
HETATM    6  N   UNL     1      -6.797  13.565  67.149  1.00  0.00    -0.430 NA 
HETATM    7  H   UNL     1      -7.260  13.361  66.264  1.00  0.00     0.000 HD 
HETATM    8  C   UNL     1      -6.991  14.706  67.698  1.00  0.00    -0.184 C  
ENDROOT
BRANCH   8   9
HETATM    9  C   UNL     1      -7.931  15.696  66.931  1.00  0.00    -0.243 C  
BRANCH   9  10
HETATM   10  O   UNL     1      -9.323  15.676  67.231  1.00  0.00    -0.210 OA 
BRANCH  10  11
HETATM   11  C   UNL     1      -9.981  14.514  66.896  1.00  0.00    -0.259 C  
HETATM   12  C   UNL     1     -10.416  13.770  68.209  1.00  0.00    -0.248 C  
HETATM   13  O   UNL     1     -10.201  14.148  65.747  1.00  0.00    -0.305 OA 
HETATM   14  C   UNL     1     -10.286  12.245  67.986  1.00  0.00    -0.206 A  
HETATM   15  O   UNL     1      -9.509  14.102  69.270  1.00  0.00    -0.401 OA 
HETATM   16  C   UNL     1     -11.863  14.274  68.594  1.00  0.00    -0.379 C  
HETATM   17  C   UNL     1     -12.508  13.580  69.813  1.00  0.00    -0.155 C  
HETATM   18  C   UNL     1      -9.098  11.565  68.335  1.00  0.00    -0.185 A  
HETATM   19  H   UNL     1      -9.772  13.652  70.065  1.00  0.00     0.000 HD 
HETATM   20  C   UNL     1     -11.927  14.022  71.154  1.00  0.00    -0.257 C  
HETATM   21  C   UNL     1      -8.951  10.187  68.135  1.00  0.00    -0.122 A  
HETATM   22  C   UNL     1      -9.989   9.453  67.571  1.00  0.00    -0.250 A  
HETATM   23  C   UNL     1     -12.007  15.533  71.349  1.00  0.00    -0.455 C  
HETATM   24  C   UNL     1     -11.451  16.310  70.167  1.00  0.00    -0.228 C  
HETATM   25  C   UNL     1     -11.161  10.099  67.194  1.00  0.00    -0.122 A  
HETATM   26  C   UNL     1     -11.304  11.480  67.387  1.00  0.00    -0.367 A  
HETATM   27  C   UNL     1     -11.990  15.798  68.838  1.00  0.00    -0.268 C  
ENDBRANCH  10  11
ENDBRANCH   9  10
ENDBRANCH   8   9
TORSDOF 3
ENDMDL
MODEL      105
REMARK 921   NORMALIZED FREE ENERGY PREDICTED BY IDOCK:   -4.93 KCAL/MOL
REMARK 922        TOTAL FREE ENERGY PREDICTED BY IDOCK:   -6.24 KCAL/MOL
REMARK 923 INTER-LIGAND FREE ENERGY PREDICTED BY IDOCK:   -5.89 KCAL/MOL
REMARK 924 INTRA-LIGAND FREE ENERGY PREDICTED BY IDOCK:   -0.35 KCAL/MOL
REMARK 927      BINDING AFFINITY PREDICTED BY RF-SCORE:    0.00 PKD
ROOT
HETATM    1  C   UNL     1     -13.527  10.182  72.061  1.00  0.00    -0.316 C  
HETATM    2  N   UNL     1     -13.018  11.457  71.583  1.00  0.00    -0.453 NA 
HETATM    3  C   UNL     1     -13.627  12.631  72.178  1.00  0.00    -0.413 C  
HETATM    4  C   UNL     1     -13.071  13.957  71.708  1.00  0.00    -0.458 C  
HETATM    5  C   UNL     1     -12.070  13.945  70.575  1.00  0.00    -0.356 C  
HETATM    6  N   UNL     1     -11.667  12.652  70.064  1.00  0.00    -0.516 NA 
HETATM    7  H   UNL     1     -11.006  12.616  69.289  1.00  0.00     0.000 HD 
HETATM    8  C   UNL     1     -12.109  11.551  70.548  1.00  0.00    -0.378 C  
ENDROOT
BRANCH   8   9
HETATM    9  C   UNL     1     -11.587  10.236  69.878  1.00  0.00    -0.256 C  
BRANCH   9  10
HETATM   10  O   UNL     1     -10.290  10.247  69.288  1.00  0.00    -0.203 OA 
BRANCH  10  11
HETATM   11  C   UNL     1     -10.264  10.095  67.920  1.00  0.00    -0.180 C  
HETATM   12  C   UNL     1      -9.262   8.944  67.549  1.00  0.00    -0.136 C  
HETATM   13  O   UNL     1     -10.940  10.751  67.136  1.00  0.00    -0.280 OA 
HETATM   14  C   UNL     1      -8.538   9.316  66.234  1.00  0.00    -0.139 A  
HETATM   15  O   UNL     1      -8.246   8.850  68.557  1.00  0.00    -0.114 OA 
HETATM   16  C   UNL     1     -10.074   7.589  67.510  1.00  0.00    -0.261 C  
HETATM   17  C   UNL     1      -9.275   6.346  67.064  1.00  0.00    -0.136 C  
HETATM   18  C   UNL     1      -7.300   9.996  66.261  1.00  0.00    -0.106 A  
HETATM   19  H   UNL     1      -7.639   8.153  68.332  1.00  0.00     0.000 HD 
HETATM   20  C   UNL     1      -8.315   5.814  68.125  1.00  0.00    -0.107 C  
HETATM   21  C   UNL     1      -6.629  10.353  65.086  1.00  0.00    -0.090 A  
HETATM   22  C   UNL     1      -7.183  10.046  63.848  1.00  0.00    -0.125 A  
HETATM   23  C   UNL     1      -9.023   5.499  69.439  1.00  0.00    -0.120 C  
HETATM   24  C   UNL     1      -9.889   6.646  69.932  1.00  0.00    -0.180 C  
HETATM   25  C   UNL     1      -8.413   9.400  63.789  1.00  0.00    -0.200 A  
HETATM   26  C   UNL     1      -9.089   9.050  64.967  1.00  0.00    -0.171 A  
HETATM   27  C   UNL     1     -10.783   7.205  68.833  1.00  0.00    -0.199 C  
ENDBRANCH  10  11
ENDBRANCH   9  10
ENDBRANCH   8   9
TORSDOF 3
ENDMDL
MODEL      106
REMARK 921   NORMALIZED FREE ENERGY PREDICTED BY IDOCK:   -4.89 KCAL/MOL
REMARK 922        TOTAL FREE ENERGY PREDICTED BY IDOCK:   -6.20 KCAL/MOL
REMARK 923 INTER-LIGAND FREE ENERGY PREDICTED BY IDOCK:   -5.88 KCAL/MOL
REMARK 924 INTRA-LIGAND FREE ENERGY PREDICTED BY IDOCK:   -0.32 KCAL/MOL
REMARK 927      BINDING AFFINITY PREDICTED BY RF-SCORE:    0.00 PKD
ROOT
HETATM    1  C   UNL     1     -11.906  14.413  69.206  1.00  0.00    -0.325 C  
HETATM    2  N   UNL     1     -12.309  14.550  70.597  1.00  0.00    -0.316 NA 
HETATM    3  C   UNL     1     -12.108  15.864  71.175  1.00  0.00    -0.418 C  
HETATM    4  C   UNL     1     -12.562  16.015  72.610  1.00  0.00    -0.551 C  
HETATM    5  C   UNL     1     -13.024  14.777  73.343  1.00  0.00    -0.429 C  
HETATM    6  N   UNL     1     -13.058  13.540  72.591  1.00  0.00    -0.383 NA 
HETATM    7  H   UNL     1     -13.349  12.685  73.066  1.00  0.00     0.000 HD 
HETATM    8  C   UNL     1     -12.736  13.476  71.352  1.00  0.00    -0.336 C  
ENDROOT
BRANCH   8   9
HETATM    9  C   UNL     1     -12.813  12.063  70.684  1.00  0.00     0.048 C  
BRANCH   9  10
HETATM   10  O   UNL     1     -11.606  11.473  70.209  1.00  0.00    -0.304 OA 
BRANCH  10  11
HETATM   11  C   UNL     1     -11.630  11.059  68.896  1.00  0.00    -0.314 C  
HETATM   12  C   UNL     1     -10.155  10.886  68.385  1.00  0.00    -0.183 C  
HETATM   13  O   UNL     1     -12.652  10.846  68.254  1.00  0.00     0.166 OA 
HETATM   14  C   UNL     1     -10.085  11.325  66.903  1.00  0.00    -0.246 A  
HETATM   15  O   UNL     1      -9.289  11.770  69.109  1.00  0.00    -0.392 OA 
HETATM   16  C   UNL     1      -9.718   9.393  68.667  1.00  0.00    -0.160 C  
HETATM   17  C   UNL     1      -8.321   8.998  68.141  1.00  0.00    -0.121 C  
HETATM   18  C   UNL     1      -9.744  12.652  66.561  1.00  0.00    -0.256 A  
HETATM   19  H   UNL     1      -8.397  11.665  68.800  1.00  0.00     0.000 HD 
HETATM   20  C   UNL     1      -7.168   9.560  68.968  1.00  0.00    -0.071 C  
HETATM   21  C   UNL     1      -9.682  13.078  65.229  1.00  0.00     0.003 A  
HETATM   22  C   UNL     1      -9.969  12.187  64.201  1.00  0.00    -0.279 A  
HETATM   23  C   UNL     1      -7.268   9.170  70.439  1.00  0.00    -0.084 C  
HETATM   24  C   UNL     1      -8.635   9.465  71.035  1.00  0.00    -0.047 C  
HETATM   25  C   UNL     1     -10.334  10.880  64.507  1.00  0.00    -0.417 A  
HETATM   26  C   UNL     1     -10.403  10.457  65.843  1.00  0.00    -0.261 A  
HETATM   27  C   UNL     1      -9.768   8.959  70.152  1.00  0.00    -0.199 C  
ENDBRANCH  10  11
ENDBRANCH   9  10
ENDBRANCH   8   9
TORSDOF 3
ENDMDL
MODEL      107
REMARK 921   NORMALIZED FREE ENERGY PREDICTED BY IDOCK:   -4.89 KCAL/MOL
REMARK 922        TOTAL FREE ENERGY PREDICTED BY IDOCK:   -6.19 KCAL/MOL
REMARK 923 INTER-LIGAND FREE ENERGY PREDICTED BY IDOCK:   -5.68 KCAL/MOL
REMARK 924 INTRA-LIGAND FREE ENERGY PREDICTED BY IDOCK:   -0.51 KCAL/MOL
REMARK 927      BINDING AFFINITY PREDICTED BY RF-SCORE:    0.00 PKD
ROOT
HETATM    1  C   UNL     1     -13.251  10.665  71.820  1.00  0.00    -0.421 C  
HETATM    2  N   UNL     1     -12.788  11.944  71.305  1.00  0.00    -0.351 NA 
HETATM    3  C   UNL     1     -13.391  13.114  71.915  1.00  0.00    -0.455 C  
HETATM    4  C   UNL     1     -12.881  14.443  71.405  1.00  0.00    -0.410 C  
HETATM    5  C   UNL     1     -11.932  14.436  70.228  1.00  0.00    -0.321 C  
HETATM    6  N   UNL     1     -11.529  13.144  69.713  1.00  0.00    -0.488 NA 
HETATM    7  H   UNL     1     -10.904  13.111  68.909  1.00  0.00     0.000 HD 
HETATM    8  C   UNL     1     -11.928  12.042  70.229  1.00  0.00    -0.314 C  
ENDROOT
BRANCH   8   9
HETATM    9  C   UNL     1     -11.413  10.728  69.550  1.00  0.00    -0.294 C  
BRANCH   9  10
HETATM   10  O   UNL     1     -10.041  10.378  69.710  1.00  0.00    -0.227 OA 
BRANCH  10  11
HETATM   11  C   UNL     1      -9.800   9.300  70.531  1.00  0.00    -0.253 C  
HETATM   12  C   UNL     1      -8.705   8.387  69.874  1.00  0.00    -0.136 C  
HETATM   13  O   UNL     1     -10.350   9.113  71.611  1.00  0.00    -0.334 OA 
HETATM   14  C   UNL     1      -9.041   6.907  70.175  1.00  0.00    -0.152 A  
HETATM   15  O   UNL     1      -8.754   8.530  68.448  1.00  0.00    -0.140 OA 
HETATM   16  C   UNL     1      -7.293   8.875  70.390  1.00  0.00    -0.070 C  
HETATM   17  C   UNL     1      -6.086   8.031  69.928  1.00  0.00    -0.026 C  
HETATM   18  C   UNL     1      -9.812   6.145  69.269  1.00  0.00    -0.182 A  
HETATM   19  H   UNL     1      -8.092   7.977  68.049  1.00  0.00     0.000 HD 
HETATM   20  C   UNL     1      -5.700   8.254  68.468  1.00  0.00    -0.037 C  
HETATM   21  C   UNL     1     -10.138   4.807  69.521  1.00  0.00    -0.260 A  
HETATM   22  C   UNL     1      -9.708   4.197  70.694  1.00  0.00    -0.273 A  
HETATM   23  C   UNL     1      -5.421   9.722  68.161  1.00  0.00    -0.039 C  
HETATM   24  C   UNL     1      -6.531  10.644  68.637  1.00  0.00    -0.051 C  
HETATM   25  C   UNL     1      -8.970   4.929  71.618  1.00  0.00    -0.161 A  
HETATM   26  C   UNL     1      -8.650   6.272  71.368  1.00  0.00    -0.131 A  
HETATM   27  C   UNL     1      -6.947  10.350  70.072  1.00  0.00    -0.159 C  
ENDBRANCH  10  11
ENDBRANCH   9  10
ENDBRANCH   8   9
TORSDOF 3
ENDMDL
MODEL      108
REMARK 921   NORMALIZED FREE ENERGY PREDICTED BY IDOCK:   -4.88 KCAL/MOL
REMARK 922        TOTAL FREE ENERGY PREDICTED BY IDOCK:   -6.19 KCAL/MOL
REMARK 923 INTER-LIGAND FREE ENERGY PREDICTED BY IDOCK:   -5.06 KCAL/MOL
REMARK 924 INTRA-LIGAND FREE ENERGY PREDICTED BY IDOCK:   -1.13 KCAL/MOL
REMARK 927      BINDING AFFINITY PREDICTED BY RF-SCORE:    0.00 PKD
ROOT
HETATM    1  C   UNL     1      -7.162   8.631  69.803  1.00  0.00    -0.051 C  
HETATM    2  N   UNL     1      -8.431   8.038  69.413  1.00  0.00    -0.131 NA 
HETATM    3  C   UNL     1      -8.379   6.631  69.066  1.00  0.00    -0.120 C  
HETATM    4  C   UNL     1      -9.706   6.007  68.696  1.00  0.00    -0.149 C  
HETATM    5  C   UNL     1     -10.907   6.915  68.570  1.00  0.00    -0.180 C  
HETATM    6  N   UNL     1     -10.710   8.317  68.876  1.00  0.00    -0.404 NA 
HETATM    7  H   UNL     1     -11.500   8.955  68.782  1.00  0.00     0.000 HD 
HETATM    8  C   UNL     1      -9.582   8.786  69.261  1.00  0.00    -0.162 C  
ENDROOT
BRANCH   8   9
HETATM    9  C   UNL     1      -9.527  10.325  69.542  1.00  0.00    -0.185 C  
BRANCH   9  10
HETATM   10  O   UNL     1      -9.659  11.218  68.440  1.00  0.00    -0.182 OA 
BRANCH  10  11
HETATM   11  C   UNL     1      -8.717  11.071  67.446  1.00  0.00    -0.132 C  
HETATM   12  C   UNL     1      -9.446  10.797  66.083  1.00  0.00    -0.187 C  
HETATM   13  O   UNL     1      -7.507  11.165  67.618  1.00  0.00    -0.094 OA 
HETATM   14  C   UNL     1      -8.603   9.797  65.257  1.00  0.00    -0.168 A  
HETATM   15  O   UNL     1     -10.704  10.154  66.332  1.00  0.00    -0.125 OA 
HETATM   16  C   UNL     1      -9.711  12.191  65.386  1.00  0.00    -0.178 C  
HETATM   17  C   UNL     1     -10.337  12.123  63.977  1.00  0.00    -0.412 C  
HETATM   18  C   UNL     1      -8.848   8.409  65.339  1.00  0.00    -0.146 A  
HETATM   19  H   UNL     1     -11.145   9.988  65.507  1.00  0.00     0.000 HD 
HETATM   20  C   UNL     1     -11.822  11.769  63.977  1.00  0.00    -0.402 C  
HETATM   21  C   UNL     1      -8.093   7.482  64.610  1.00  0.00    -0.101 A  
HETATM   22  C   UNL     1      -7.065   7.920  63.784  1.00  0.00    -0.077 A  
HETATM   23  C   UNL     1     -12.644  12.725  64.835  1.00  0.00    -0.541 C  
HETATM   24  C   UNL     1     -12.069  12.907  66.230  1.00  0.00    -0.433 C  
HETATM   25  C   UNL     1      -6.783   9.280  63.702  1.00  0.00    -0.092 A  
HETATM   26  C   UNL     1      -7.534  10.207  64.439  1.00  0.00    -0.123 A  
HETATM   27  C   UNL     1     -10.572  13.185  66.203  1.00  0.00    -0.288 C  
ENDBRANCH  10  11
ENDBRANCH   9  10
ENDBRANCH   8   9
TORSDOF 3
ENDMDL
MODEL      109
REMARK 921   NORMALIZED FREE ENERGY PREDICTED BY IDOCK:   -4.84 KCAL/MOL
REMARK 922        TOTAL FREE ENERGY PREDICTED BY IDOCK:   -6.14 KCAL/MOL
REMARK 923 INTER-LIGAND FREE ENERGY PREDICTED BY IDOCK:   -5.36 KCAL/MOL
REMARK 924 INTRA-LIGAND FREE ENERGY PREDICTED BY IDOCK:   -0.77 KCAL/MOL
REMARK 927      BINDING AFFINITY PREDICTED BY RF-SCORE:    0.00 PKD
ROOT
HETATM    1  C   UNL     1      -8.255  14.407  67.835  1.00  0.00    -0.156 C  
HETATM    2  N   UNL     1      -9.431  13.678  67.388  1.00  0.00    -0.217 NA 
HETATM    3  C   UNL     1     -10.603  14.491  67.125  1.00  0.00    -0.274 C  
HETATM    4  C   UNL     1     -11.814  13.735  66.624  1.00  0.00    -0.445 C  
HETATM    5  C   UNL     1     -11.747  12.226  66.595  1.00  0.00    -0.349 C  
HETATM    6  N   UNL     1     -10.497  11.613  66.991  1.00  0.00    -0.216 NA 
HETATM    7  H   UNL     1     -10.430  10.595  66.997  1.00  0.00     0.000 HD 
HETATM    8  C   UNL     1      -9.471  12.299  67.335  1.00  0.00    -0.181 C  
ENDROOT
BRANCH   8   9
HETATM    9  C   UNL     1      -8.197  11.488  67.749  1.00  0.00    -0.135 C  
BRANCH   9  10
HETATM   10  O   UNL     1      -8.280  10.066  67.774  1.00  0.00    -0.113 OA 
BRANCH  10  11
HETATM   11  C   UNL     1      -8.406   9.505  69.025  1.00  0.00    -0.126 C  
HETATM   12  C   UNL     1      -9.406   8.298  68.951  1.00  0.00    -0.147 C  
HETATM   13  O   UNL     1      -7.804   9.891  70.022  1.00  0.00    -0.159 OA 
HETATM   14  C   UNL     1     -10.235   8.254  70.256  1.00  0.00    -0.199 A  
HETATM   15  O   UNL     1     -10.342   8.516  67.886  1.00  0.00    -0.211 OA 
HETATM   16  C   UNL     1      -8.569   6.994  68.640  1.00  0.00    -0.120 C  
HETATM   17  C   UNL     1      -9.372   5.675  68.625  1.00  0.00    -0.142 C  
HETATM   18  C   UNL     1     -11.482   8.912  70.339  1.00  0.00    -0.182 A  
HETATM   19  H   UNL     1     -10.948   7.785  67.840  1.00  0.00     0.000 HD 
HETATM   20  C   UNL     1     -10.238   5.493  67.381  1.00  0.00    -0.253 C  
HETATM   21  C   UNL     1     -12.248   8.896  71.512  1.00  0.00    -0.388 A  
HETATM   22  C   UNL     1     -11.781   8.227  72.637  1.00  0.00    -0.406 A  
HETATM   23  C   UNL     1      -9.427   5.590  66.093  1.00  0.00    -0.166 C  
HETATM   24  C   UNL     1      -8.551   6.831  66.040  1.00  0.00    -0.149 C  
HETATM   25  C   UNL     1     -10.544   7.591  72.594  1.00  0.00    -0.338 A  
HETATM   26  C   UNL     1      -9.775   7.614  71.422  1.00  0.00    -0.183 A  
HETATM   27  C   UNL     1      -7.755   7.028  67.323  1.00  0.00    -0.109 C  
ENDBRANCH  10  11
ENDBRANCH   9  10
ENDBRANCH   8   9
TORSDOF 3
ENDMDL
MODEL      110
REMARK 921   NORMALIZED FREE ENERGY PREDICTED BY IDOCK:   -4.81 KCAL/MOL
REMARK 922        TOTAL FREE ENERGY PREDICTED BY IDOCK:   -6.10 KCAL/MOL
REMARK 923 INTER-LIGAND FREE ENERGY PREDICTED BY IDOCK:   -5.71 KCAL/MOL
REMARK 924 INTRA-LIGAND FREE ENERGY PREDICTED BY IDOCK:   -0.39 KCAL/MOL
REMARK 927      BINDING AFFINITY PREDICTED BY RF-SCORE:    0.00 PKD
ROOT
HETATM    1  C   UNL     1      -9.376  10.060  63.306  1.00  0.00    -0.256 C  
HETATM    2  N   UNL     1     -10.137  10.925  64.193  1.00  0.00    -0.329 NA 
HETATM    3  C   UNL     1     -10.518  12.208  63.635  1.00  0.00    -0.460 C  
HETATM    4  C   UNL     1     -11.341  13.091  64.546  1.00  0.00    -0.377 C  
HETATM    5  C   UNL     1     -11.552  12.639  65.972  1.00  0.00    -0.393 C  
HETATM    6  N   UNL     1     -11.000  11.353  66.345  1.00  0.00    -0.282 NA 
HETATM    7  H   UNL     1     -11.113  11.032  67.306  1.00  0.00     0.000 HD 
HETATM    8  C   UNL     1     -10.376  10.604  65.515  1.00  0.00    -0.227 C  
ENDROOT
BRANCH   8   9
HETATM    9  C   UNL     1      -9.828   9.249  66.075  1.00  0.00    -0.293 C  
BRANCH   9  10
HETATM   10  O   UNL     1     -10.358   8.762  67.304  1.00  0.00    -0.248 OA 
BRANCH  10  11
HETATM   11  C   UNL     1     -10.559   7.401  67.362  1.00  0.00    -0.301 C  
HETATM   12  C   UNL     1      -9.720   6.806  68.549  1.00  0.00    -0.133 C  
HETATM   13  O   UNL     1     -11.297   6.776  66.608  1.00  0.00    -0.102 OA 
HETATM   14  C   UNL     1      -9.185   5.415  68.134  1.00  0.00    -0.122 A  
HETATM   15  O   UNL     1      -8.569   7.629  68.781  1.00  0.00    -0.128 OA 
HETATM   16  C   UNL     1     -10.631   6.820  69.840  1.00  0.00    -0.257 C  
HETATM   17  C   UNL     1     -10.011   6.178  71.099  1.00  0.00    -0.218 C  
HETATM   18  C   UNL     1      -7.909   5.282  67.543  1.00  0.00    -0.096 A  
HETATM   19  H   UNL     1      -8.061   7.270  69.499  1.00  0.00     0.000 HD 
HETATM   20  C   UNL     1      -8.940   7.038  71.767  1.00  0.00    -0.135 C  
HETATM   21  C   UNL     1      -7.405   4.036  67.150  1.00  0.00    -0.068 A  
HETATM   22  C   UNL     1      -8.169   2.889  67.332  1.00  0.00    -0.085 A  
HETATM   23  C   UNL     1      -9.455   8.428  72.126  1.00  0.00    -0.360 C  
HETATM   24  C   UNL     1     -10.142   9.121  70.960  1.00  0.00    -0.373 C  
HETATM   25  C   UNL     1      -9.439   2.992  67.888  1.00  0.00    -0.210 A  
HETATM   26  C   UNL     1      -9.947   4.241  68.274  1.00  0.00    -0.034 A  
HETATM   27  C   UNL     1     -11.151   8.215  70.267  1.00  0.00    -0.221 C  
ENDBRANCH  10  11
ENDBRANCH   9  10
ENDBRANCH   8   9
TORSDOF 3
ENDMDL
MODEL      111
REMARK 921   NORMALIZED FREE ENERGY PREDICTED BY IDOCK:   -4.78 KCAL/MOL
REMARK 922        TOTAL FREE ENERGY PREDICTED BY IDOCK:   -6.07 KCAL/MOL
REMARK 923 INTER-LIGAND FREE ENERGY PREDICTED BY IDOCK:   -5.42 KCAL/MOL
REMARK 924 INTRA-LIGAND FREE ENERGY PREDICTED BY IDOCK:   -0.65 KCAL/MOL
REMARK 927      BINDING AFFINITY PREDICTED BY RF-SCORE:    0.00 PKD
ROOT
HETATM    1  C   UNL     1      -9.406   6.564  70.515  1.00  0.00    -0.162 C  
HETATM    2  N   UNL     1      -9.778   6.155  69.170  1.00  0.00    -0.137 NA 
HETATM    3  C   UNL     1      -9.300   4.847  68.765  1.00  0.00    -0.135 C  
HETATM    4  C   UNL     1      -9.719   4.406  67.380  1.00  0.00    -0.217 C  
HETATM    5  C   UNL     1     -10.442   5.405  66.505  1.00  0.00    -0.294 C  
HETATM    6  N   UNL     1     -10.739   6.697  67.087  1.00  0.00    -0.326 NA 
HETATM    7  H   UNL     1     -11.210   7.396  66.513  1.00  0.00     0.000 HD 
HETATM    8  C   UNL     1     -10.432   6.998  68.293  1.00  0.00    -0.202 C  
ENDROOT
BRANCH   8   9
HETATM    9  C   UNL     1     -10.809   8.440  68.770  1.00  0.00     0.052 C  
BRANCH   9  10
HETATM   10  O   UNL     1      -9.848   9.479  68.606  1.00  0.00    -0.155 OA 
BRANCH  10  11
HETATM   11  C   UNL     1      -9.940  10.186  67.428  1.00  0.00    -0.195 C  
HETATM   12  C   UNL     1      -9.384  11.637  67.653  1.00  0.00    -0.178 C  
HETATM   13  O   UNL     1     -10.370   9.727  66.376  1.00  0.00    -0.233 OA 
HETATM   14  C   UNL     1     -10.227  12.630  66.818  1.00  0.00    -0.246 A  
HETATM   15  O   UNL     1      -9.562  12.011  69.026  1.00  0.00    -0.412 OA 
HETATM   16  C   UNL     1      -7.839  11.620  67.321  1.00  0.00    -0.157 C  
HETATM   17  C   UNL     1      -7.128  12.989  67.389  1.00  0.00    -0.124 C  
HETATM   18  C   UNL     1     -11.346  13.278  67.386  1.00  0.00    -0.337 A  
HETATM   19  H   UNL     1      -9.226  12.889  69.162  1.00  0.00     0.000 HD 
HETATM   20  C   UNL     1      -6.883  13.488  68.811  1.00  0.00    -0.108 C  
HETATM   21  C   UNL     1     -12.131  14.174  66.650  1.00  0.00    -0.480 A  
HETATM   22  C   UNL     1     -11.822  14.439  65.321  1.00  0.00    -0.373 A  
HETATM   23  C   UNL     1      -6.098  12.483  69.648  1.00  0.00    -0.133 C  
HETATM   24  C   UNL     1      -6.687  11.083  69.595  1.00  0.00    -0.137 C  
HETATM   25  C   UNL     1     -10.741  13.796  64.726  1.00  0.00    -0.429 A  
HETATM   26  C   UNL     1      -9.960  12.893  65.462  1.00  0.00    -0.226 A  
HETATM   27  C   UNL     1      -6.991  10.642  68.170  1.00  0.00    -0.073 C  
ENDBRANCH  10  11
ENDBRANCH   9  10
ENDBRANCH   8   9
TORSDOF 3
ENDMDL
MODEL      112
REMARK 921   NORMALIZED FREE ENERGY PREDICTED BY IDOCK:   -4.78 KCAL/MOL
REMARK 922        TOTAL FREE ENERGY PREDICTED BY IDOCK:   -6.07 KCAL/MOL
REMARK 923 INTER-LIGAND FREE ENERGY PREDICTED BY IDOCK:   -5.56 KCAL/MOL
REMARK 924 INTRA-LIGAND FREE ENERGY PREDICTED BY IDOCK:   -0.51 KCAL/MOL
REMARK 927      BINDING AFFINITY PREDICTED BY RF-SCORE:    0.00 PKD
ROOT
HETATM    1  C   UNL     1      -8.302   5.709  71.230  1.00  0.00    -0.127 C  
HETATM    2  N   UNL     1      -7.366   5.788  70.120  1.00  0.00    -0.072 NA 
HETATM    3  C   UNL     1      -6.689   4.549  69.789  1.00  0.00    -0.037 C  
HETATM    4  C   UNL     1      -5.744   4.623  68.610  1.00  0.00    -0.020 C  
HETATM    5  C   UNL     1      -5.475   5.980  68.000  1.00  0.00    -0.004 C  
HETATM    6  N   UNL     1      -6.197   7.106  68.553  1.00  0.00    -0.033 NA 
HETATM    7  H   UNL     1      -6.022   8.036  68.172  1.00  0.00     0.000 HD 
HETATM    8  C   UNL     1      -7.048   6.981  69.503  1.00  0.00    -0.071 C  
ENDROOT
BRANCH   8   9
HETATM    9  C   UNL     1      -7.737   8.297  69.999  1.00  0.00    -0.095 C  
BRANCH   9  10
HETATM   10  O   UNL     1      -8.946   8.707  69.367  1.00  0.00    -0.142 OA 
BRANCH  10  11
HETATM   11  C   UNL     1      -9.200  10.059  69.402  1.00  0.00    -0.216 C  
HETATM   12  C   UNL     1     -10.753  10.291  69.424  1.00  0.00    -0.241 C  
HETATM   13  O   UNL     1      -8.335  10.927  69.433  1.00  0.00    -0.075 OA 
HETATM   14  C   UNL     1     -11.081  11.553  68.593  1.00  0.00    -0.291 A  
HETATM   15  O   UNL     1     -11.410   9.196  68.772  1.00  0.00    -0.409 OA 
HETATM   16  C   UNL     1     -11.214  10.341  70.935  1.00  0.00    -0.311 C  
HETATM   17  C   UNL     1     -12.706  10.661  71.166  1.00  0.00    -0.522 C  
HETATM   18  C   UNL     1     -11.405  11.448  67.222  1.00  0.00    -0.347 A  
HETATM   19  H   UNL     1     -12.350   9.336  68.785  1.00  0.00     0.000 HD 
HETATM   20  C   UNL     1     -13.644   9.498  70.852  1.00  0.00    -0.049 C  
HETATM   21  C   UNL     1     -11.697  12.576  66.444  1.00  0.00    -0.458 A  
HETATM   22  C   UNL     1     -11.665  13.842  67.018  1.00  0.00    -0.420 A  
HETATM   23  C   UNL     1     -13.284   8.239  71.633  1.00  0.00    -0.349 C  
HETATM   24  C   UNL     1     -11.813   7.873  71.518  1.00  0.00    -0.322 C  
HETATM   25  C   UNL     1     -11.325  13.979  68.359  1.00  0.00    -0.321 A  
HETATM   26  C   UNL     1     -11.025  12.850  69.135  1.00  0.00    -0.184 A  
HETATM   27  C   UNL     1     -10.903   9.070  71.763  1.00  0.00    -0.437 C  
ENDBRANCH  10  11
ENDBRANCH   9  10
ENDBRANCH   8   9
TORSDOF 3
ENDMDL
MODEL      113
REMARK 921   NORMALIZED FREE ENERGY PREDICTED BY IDOCK:   -4.78 KCAL/MOL
REMARK 922        TOTAL FREE ENERGY PREDICTED BY IDOCK:   -6.07 KCAL/MOL
REMARK 923 INTER-LIGAND FREE ENERGY PREDICTED BY IDOCK:   -5.39 KCAL/MOL
REMARK 924 INTRA-LIGAND FREE ENERGY PREDICTED BY IDOCK:   -0.68 KCAL/MOL
REMARK 927      BINDING AFFINITY PREDICTED BY RF-SCORE:    0.00 PKD
ROOT
HETATM    1  C   UNL     1      -6.906  17.306  68.973  1.00  0.00    -0.245 C  
HETATM    2  N   UNL     1      -8.161  17.836  68.464  1.00  0.00    -0.293 NA 
HETATM    3  C   UNL     1      -8.130  19.230  68.065  1.00  0.00    -0.306 C  
HETATM    4  C   UNL     1      -9.426  19.770  67.502  1.00  0.00    -0.456 C  
HETATM    5  C   UNL     1     -10.647  18.880  67.551  1.00  0.00    -0.451 C  
HETATM    6  N   UNL     1     -10.468  17.544  68.080  1.00  0.00    -0.375 NA 
HETATM    7  H   UNL     1     -11.279  16.929  68.141  1.00  0.00     0.000 HD 
HETATM    8  C   UNL     1      -9.332  17.105  68.475  1.00  0.00    -0.274 C  
ENDROOT
BRANCH   8   9
HETATM    9  C   UNL     1      -9.305  15.642  69.032  1.00  0.00    -0.243 C  
BRANCH   9  10
HETATM   10  O   UNL     1      -9.129  14.570  68.110  1.00  0.00    -0.178 OA 
BRANCH  10  11
HETATM   11  C   UNL     1     -10.289  14.056  67.576  1.00  0.00    -0.245 C  
HETATM   12  C   UNL     1      -9.950  12.755  66.765  1.00  0.00    -0.237 C  
HETATM   13  O   UNL     1     -11.402  14.543  67.738  1.00  0.00    -0.288 OA 
HETATM   14  C   UNL     1     -10.865  12.689  65.520  1.00  0.00    -0.310 A  
HETATM   15  O   UNL     1      -8.605  12.833  66.274  1.00  0.00    -0.409 OA 
HETATM   16  C   UNL     1     -10.065  11.526  67.752  1.00  0.00    -0.198 C  
HETATM   17  C   UNL     1      -9.863  10.136  67.112  1.00  0.00    -0.231 C  
HETATM   18  C   UNL     1     -10.440  13.225  64.285  1.00  0.00    -0.372 A  
HETATM   19  H   UNL     1      -8.399  12.046  65.783  1.00  0.00     0.000 HD 
HETATM   20  C   UNL     1      -8.407   9.815  66.781  1.00  0.00    -0.124 C  
HETATM   21  C   UNL     1     -11.252  13.187  63.145  1.00  0.00     0.504 A  
HETATM   22  C   UNL     1     -12.518  12.617  63.213  1.00  0.00    -0.377 A  
HETATM   23  C   UNL     1      -7.498   9.933  67.999  1.00  0.00    -0.085 C  
HETATM   24  C   UNL     1      -7.670  11.250  68.737  1.00  0.00    -0.138 C  
HETATM   25  C   UNL     1     -12.975  12.104  64.423  1.00  0.00    -0.087 A  
HETATM   26  C   UNL     1     -12.164  12.150  65.566  1.00  0.00    -0.096 A  
HETATM   27  C   UNL     1      -9.135  11.581  68.989  1.00  0.00     0.125 C  
ENDBRANCH  10  11
ENDBRANCH   9  10
ENDBRANCH   8   9
TORSDOF 3
ENDMDL
MODEL      114
REMARK 921   NORMALIZED FREE ENERGY PREDICTED BY IDOCK:   -4.77 KCAL/MOL
REMARK 922        TOTAL FREE ENERGY PREDICTED BY IDOCK:   -6.06 KCAL/MOL
REMARK 923 INTER-LIGAND FREE ENERGY PREDICTED BY IDOCK:   -5.60 KCAL/MOL
REMARK 924 INTRA-LIGAND FREE ENERGY PREDICTED BY IDOCK:   -0.46 KCAL/MOL
REMARK 927      BINDING AFFINITY PREDICTED BY RF-SCORE:    0.00 PKD
ROOT
HETATM    1  C   UNL     1      -6.891   6.355  66.744  1.00  0.00    -0.066 C  
HETATM    2  N   UNL     1      -7.632   5.124  66.522  1.00  0.00    -0.087 NA 
HETATM    3  C   UNL     1      -6.909   4.082  65.819  1.00  0.00    -0.057 C  
HETATM    4  C   UNL     1      -7.668   2.788  65.622  1.00  0.00    -0.077 C  
HETATM    5  C   UNL     1      -9.125   2.752  66.021  1.00  0.00    -0.119 C  
HETATM    6  N   UNL     1      -9.673   3.947  66.627  1.00  0.00    -0.322 NA 
HETATM    7  H   UNL     1     -10.658   3.956  66.890  1.00  0.00     0.000 HD 
HETATM    8  C   UNL     1      -8.968   4.995  66.845  1.00  0.00    -0.112 C  
ENDROOT
BRANCH   8   9
HETATM    9  C   UNL     1      -9.710   6.210  67.495  1.00  0.00    -0.117 C  
BRANCH   9  10
HETATM   10  O   UNL     1      -9.754   6.293  68.917  1.00  0.00    -0.128 OA 
BRANCH  10  11
HETATM   11  C   UNL     1     -10.358   7.422  69.423  1.00  0.00    -0.210 C  
HETATM   12  C   UNL     1     -10.573   7.242  70.968  1.00  0.00    -0.221 C  
HETATM   13  O   UNL     1     -10.652   8.409  68.758  1.00  0.00    -0.203 OA 
HETATM   14  C   UNL     1     -11.911   7.908  71.367  1.00  0.00    -0.331 A  
HETATM   15  O   UNL     1     -10.710   5.847  71.274  1.00  0.00    -0.244 OA 
HETATM   16  C   UNL     1      -9.294   7.806  71.705  1.00  0.00    -0.174 C  
HETATM   17  C   UNL     1      -9.359   7.806  73.247  1.00  0.00    -0.331 C  
HETATM   18  C   UNL     1     -13.107   7.157  71.402  1.00  0.00    -0.408 A  
HETATM   19  H   UNL     1     -10.841   5.737  72.209  1.00  0.00     0.000 HD 
HETATM   20  C   UNL     1      -9.189   6.424  73.873  1.00  0.00    -0.154 C  
HETATM   21  C   UNL     1     -14.333   7.738  71.751  1.00  0.00    -0.594 A  
HETATM   22  C   UNL     1     -14.396   9.090  72.066  1.00  0.00    -0.327 A  
HETATM   23  C   UNL     1      -7.895   5.747  73.436  1.00  0.00    -0.109 C  
HETATM   24  C   UNL     1      -7.708   5.751  71.928  1.00  0.00    -0.105 C  
HETATM   25  C   UNL     1     -13.239   9.861  72.015  1.00  0.00    -0.555 A  
HETATM   26  C   UNL     1     -12.013   9.281  71.659  1.00  0.00    -0.448 A  
HETATM   27  C   UNL     1      -7.957   7.126  71.321  1.00  0.00    -0.102 C  
ENDBRANCH  10  11
ENDBRANCH   9  10
ENDBRANCH   8   9
TORSDOF 3
ENDMDL
MODEL      115
REMARK 921   NORMALIZED FREE ENERGY PREDICTED BY IDOCK:   -4.77 KCAL/MOL
REMARK 922        TOTAL FREE ENERGY PREDICTED BY IDOCK:   -6.05 KCAL/MOL
REMARK 923 INTER-LIGAND FREE ENERGY PREDICTED BY IDOCK:   -5.43 KCAL/MOL
REMARK 924 INTRA-LIGAND FREE ENERGY PREDICTED BY IDOCK:   -0.62 KCAL/MOL
REMARK 927      BINDING AFFINITY PREDICTED BY RF-SCORE:    0.00 PKD
ROOT
HETATM    1  C   UNL     1      -7.398   9.790  70.115  1.00  0.00    -0.155 C  
HETATM    2  N   UNL     1      -7.821   9.375  68.787  1.00  0.00    -0.083 NA 
HETATM    3  C   UNL     1      -8.332   8.021  68.692  1.00  0.00    -0.127 C  
HETATM    4  C   UNL     1      -8.806   7.604  67.318  1.00  0.00    -0.122 C  
HETATM    5  C   UNL     1      -8.563   8.551  66.165  1.00  0.00    -0.138 C  
HETATM    6  N   UNL     1      -7.948   9.824  66.476  1.00  0.00    -0.112 NA 
HETATM    7  H   UNL     1      -7.757  10.475  65.715  1.00  0.00     0.000 HD 
HETATM    8  C   UNL     1      -7.634  10.165  67.670  1.00  0.00    -0.090 C  
ENDROOT
BRANCH   8   9
HETATM    9  C   UNL     1      -6.965  11.571  67.841  1.00  0.00    -0.075 C  
BRANCH   9  10
HETATM   10  O   UNL     1      -7.498  12.667  67.103  1.00  0.00    -0.134 OA 
BRANCH  10  11
HETATM   11  C   UNL     1      -7.704  13.820  67.827  1.00  0.00    -0.168 C  
HETATM   12  C   UNL     1      -8.975  14.556  67.273  1.00  0.00    -0.210 C  
HETATM   13  O   UNL     1      -7.005  14.183  68.766  1.00  0.00    -0.093 OA 
HETATM   14  C   UNL     1      -8.737  16.083  67.341  1.00  0.00    -0.195 A  
HETATM   15  O   UNL     1      -9.147  14.237  65.885  1.00  0.00    -0.498 OA 
HETATM   16  C   UNL     1     -10.229  14.033  68.080  1.00  0.00    -0.238 C  
HETATM   17  C   UNL     1     -11.571  14.717  67.743  1.00  0.00    -0.378 C  
HETATM   18  C   UNL     1      -8.203  16.779  66.234  1.00  0.00    -0.359 A  
HETATM   19  H   UNL     1      -9.916  14.682  65.549  1.00  0.00     0.000 HD 
HETATM   20  C   UNL     1     -12.168  14.282  66.407  1.00  0.00    -0.426 C  
HETATM   21  C   UNL     1      -7.969  18.159  66.274  1.00  0.00    -0.271 A  
HETATM   22  C   UNL     1      -8.257  18.880  67.427  1.00  0.00    -0.289 A  
HETATM   23  C   UNL     1     -12.352  12.770  66.321  1.00  0.00    -0.120 C  
HETATM   24  C   UNL     1     -11.095  12.002  66.697  1.00  0.00    -0.358 C  
HETATM   25  C   UNL     1      -8.760  18.218  68.542  1.00  0.00    -0.325 A  
HETATM   26  C   UNL     1      -8.986  16.834  68.505  1.00  0.00    -0.244 A  
HETATM   27  C   UNL     1     -10.480  12.507  67.995  1.00  0.00    -0.227 C  
ENDBRANCH  10  11
ENDBRANCH   9  10
ENDBRANCH   8   9
TORSDOF 3
ENDMDL
MODEL      116
REMARK 921   NORMALIZED FREE ENERGY PREDICTED BY IDOCK:   -4.76 KCAL/MOL
REMARK 922        TOTAL FREE ENERGY PREDICTED BY IDOCK:   -6.04 KCAL/MOL
REMARK 923 INTER-LIGAND FREE ENERGY PREDICTED BY IDOCK:   -5.22 KCAL/MOL
REMARK 924 INTRA-LIGAND FREE ENERGY PREDICTED BY IDOCK:   -0.82 KCAL/MOL
REMARK 927      BINDING AFFINITY PREDICTED BY RF-SCORE:    0.00 PKD
ROOT
HETATM    1  C   UNL     1      -6.333   5.398  68.041  1.00  0.00    -0.039 C  
HETATM    2  N   UNL     1      -6.456   6.818  67.752  1.00  0.00    -0.047 NA 
HETATM    3  C   UNL     1      -5.216   7.570  67.792  1.00  0.00    -0.029 C  
HETATM    4  C   UNL     1      -5.340   9.039  67.454  1.00  0.00    -0.037 C  
HETATM    5  C   UNL     1      -6.726   9.610  67.266  1.00  0.00    -0.071 C  
HETATM    6  N   UNL     1      -7.838   8.688  67.361  1.00  0.00    -0.098 NA 
HETATM    7  H   UNL     1      -8.785   9.050  67.255  1.00  0.00     0.000 HD 
HETATM    8  C   UNL     1      -7.678   7.435  67.573  1.00  0.00    -0.111 C  
ENDROOT
BRANCH   8   9
HETATM    9  C   UNL     1      -8.981   6.571  67.661  1.00  0.00    -0.114 C  
BRANCH   9  10
HETATM   10  O   UNL     1      -9.585   6.389  68.939  1.00  0.00    -0.128 OA 
BRANCH  10  11
HETATM   11  C   UNL     1     -10.262   7.481  69.432  1.00  0.00    -0.204 C  
HETATM   12  C   UNL     1     -10.436   7.321  70.984  1.00  0.00    -0.215 C  
HETATM   13  O   UNL     1     -10.639   8.429  68.752  1.00  0.00    -0.203 OA 
HETATM   14  C   UNL     1     -11.813   7.896  71.394  1.00  0.00    -0.328 A  
HETATM   15  O   UNL     1     -10.465   5.927  71.322  1.00  0.00    -0.215 OA 
HETATM   16  C   UNL     1      -9.189   7.994  71.684  1.00  0.00    -0.196 C  
HETATM   17  C   UNL     1      -9.228   8.025  73.227  1.00  0.00    -0.347 C  
HETATM   18  C   UNL     1     -12.949   7.060  71.468  1.00  0.00    -0.411 A  
HETATM   19  H   UNL     1     -10.571   5.830  72.261  1.00  0.00     0.000 HD 
HETATM   20  C   UNL     1      -8.946   6.674  73.879  1.00  0.00    -0.170 C  
HETATM   21  C   UNL     1     -14.208   7.557  71.827  1.00  0.00    -0.548 A  
HETATM   22  C   UNL     1     -14.365   8.909  72.115  1.00  0.00    -0.418 A  
HETATM   23  C   UNL     1      -7.612   6.084  73.432  1.00  0.00    -0.097 C  
HETATM   24  C   UNL     1      -7.453   6.067  71.921  1.00  0.00    -0.095 C  
HETATM   25  C   UNL     1     -13.270   9.761  72.026  1.00  0.00    -0.557 A  
HETATM   26  C   UNL     1     -12.011   9.264  71.658  1.00  0.00    -0.448 A  
HETATM   27  C   UNL     1      -7.813   7.406  71.290  1.00  0.00    -0.095 C  
ENDBRANCH  10  11
ENDBRANCH   9  10
ENDBRANCH   8   9
TORSDOF 3
ENDMDL
MODEL      117
REMARK 921   NORMALIZED FREE ENERGY PREDICTED BY IDOCK:   -4.75 KCAL/MOL
REMARK 922        TOTAL FREE ENERGY PREDICTED BY IDOCK:   -6.03 KCAL/MOL
REMARK 923 INTER-LIGAND FREE ENERGY PREDICTED BY IDOCK:   -5.88 KCAL/MOL
REMARK 924 INTRA-LIGAND FREE ENERGY PREDICTED BY IDOCK:   -0.15 KCAL/MOL
REMARK 927      BINDING AFFINITY PREDICTED BY RF-SCORE:    0.00 PKD
ROOT
HETATM    1  C   UNL     1     -13.647  10.210  72.510  1.00  0.00     0.159 C  
HETATM    2  N   UNL     1     -13.046  11.294  71.750  1.00  0.00    -0.468 NA 
HETATM    3  C   UNL     1     -13.525  12.623  72.079  1.00  0.00    -0.418 C  
HETATM    4  C   UNL     1     -12.872  13.753  71.314  1.00  0.00    -0.434 C  
HETATM    5  C   UNL     1     -11.920  13.396  70.195  1.00  0.00    -0.326 C  
HETATM    6  N   UNL     1     -11.654  11.990  69.979  1.00  0.00    -0.510 NA 
HETATM    7  H   UNL     1     -11.029  11.721  69.220  1.00  0.00     0.000 HD 
HETATM    8  C   UNL     1     -12.172  11.070  70.705  1.00  0.00    -0.385 C  
ENDROOT
BRANCH   8   9
HETATM    9  C   UNL     1     -11.795   9.596  70.336  1.00  0.00    -0.155 C  
BRANCH   9  10
HETATM   10  O   UNL     1     -10.479   9.335  69.857  1.00  0.00    -0.205 OA 
BRANCH  10  11
HETATM   11  C   UNL     1     -10.412   8.674  68.651  1.00  0.00    -0.177 C  
HETATM   12  C   UNL     1      -9.660   7.310  68.853  1.00  0.00    -0.143 C  
HETATM   13  O   UNL     1     -10.889   9.093  67.603  1.00  0.00    -0.234 OA 
HETATM   14  C   UNL     1      -8.803   7.021  67.598  1.00  0.00    -0.119 A  
HETATM   15  O   UNL     1      -8.744   7.425  69.950  1.00  0.00    -0.139 OA 
HETATM   16  C   UNL     1     -10.740   6.209  69.200  1.00  0.00    -0.381 C  
HETATM   17  C   UNL     1     -10.201   4.769  69.338  1.00  0.00    -0.166 C  
HETATM   18  C   UNL     1      -7.452   7.429  67.540  1.00  0.00    -0.100 A  
HETATM   19  H   UNL     1      -8.289   6.600  70.073  1.00  0.00     0.000 HD 
HETATM   20  C   UNL     1      -9.436   4.517  70.635  1.00  0.00    -0.240 C  
HETATM   21  C   UNL     1      -6.657   7.188  66.413  1.00  0.00    -0.052 A  
HETATM   22  C   UNL     1      -7.196   6.539  65.308  1.00  0.00    -0.073 A  
HETATM   23  C   UNL     1     -10.265   4.854  71.870  1.00  0.00    -0.267 C  
HETATM   24  C   UNL     1     -10.892   6.237  71.800  1.00  0.00    -0.294 C  
HETATM   25  C   UNL     1      -8.531   6.148  65.326  1.00  0.00    -0.121 A  
HETATM   26  C   UNL     1      -9.329   6.397  66.452  1.00  0.00    -0.176 A  
HETATM   27  C   UNL     1     -11.585   6.487  70.467  1.00  0.00    -0.455 C  
ENDBRANCH  10  11
ENDBRANCH   9  10
ENDBRANCH   8   9
TORSDOF 3
ENDMDL
MODEL      118
REMARK 921   NORMALIZED FREE ENERGY PREDICTED BY IDOCK:   -4.69 KCAL/MOL
REMARK 922        TOTAL FREE ENERGY PREDICTED BY IDOCK:   -5.96 KCAL/MOL
REMARK 923 INTER-LIGAND FREE ENERGY PREDICTED BY IDOCK:   -5.03 KCAL/MOL
REMARK 924 INTRA-LIGAND FREE ENERGY PREDICTED BY IDOCK:   -0.93 KCAL/MOL
REMARK 927      BINDING AFFINITY PREDICTED BY RF-SCORE:    0.00 PKD
ROOT
HETATM    1  C   UNL     1      -6.110  11.575  66.582  1.00  0.00    -0.126 C  
HETATM    2  N   UNL     1      -6.060  12.144  67.919  1.00  0.00    -0.066 NA 
HETATM    3  C   UNL     1      -5.216  11.438  68.864  1.00  0.00    -0.040 C  
HETATM    4  C   UNL     1      -5.136  12.054  70.243  1.00  0.00    -0.094 C  
HETATM    5  C   UNL     1      -6.040  13.224  70.553  1.00  0.00    -0.039 C  
HETATM    6  N   UNL     1      -6.877  13.714  69.477  1.00  0.00    -0.292 NA 
HETATM    7  H   UNL     1      -7.509  14.492  69.664  1.00  0.00     0.000 HD 
HETATM    8  C   UNL     1      -6.853  13.208  68.301  1.00  0.00    -0.103 C  
ENDROOT
BRANCH   8   9
HETATM    9  C   UNL     1      -7.827  13.841  67.250  1.00  0.00    -0.097 C  
BRANCH   9  10
HETATM   10  O   UNL     1      -9.219  13.562  67.366  1.00  0.00    -0.204 OA 
BRANCH  10  11
HETATM   11  C   UNL     1      -9.612  12.325  66.909  1.00  0.00    -0.213 C  
HETATM   12  C   UNL     1     -10.159  11.481  68.115  1.00  0.00    -0.193 C  
HETATM   13  O   UNL     1      -9.555  11.967  65.738  1.00  0.00    -0.241 OA 
HETATM   14  C   UNL     1      -9.751  10.002  67.915  1.00  0.00    -0.168 A  
HETATM   15  O   UNL     1      -9.528  11.913  69.328  1.00  0.00    -0.301 OA 
HETATM   16  C   UNL     1     -11.714  11.742  68.224  1.00  0.00    -0.377 C  
HETATM   17  C   UNL     1     -12.454  10.917  69.298  1.00  0.00     0.052 C  
HETATM   18  C   UNL     1      -8.556   9.502  68.479  1.00  0.00    -0.119 A  
HETATM   19  H   UNL     1      -9.858  11.402  70.058  1.00  0.00     0.000 HD 
HETATM   20  C   UNL     1     -12.209  11.400  70.726  1.00  0.00    -0.475 C  
HETATM   21  C   UNL     1      -8.160   8.170  68.305  1.00  0.00    -0.128 A  
HETATM   22  C   UNL     1      -8.946   7.303  67.555  1.00  0.00    -0.122 A  
HETATM   23  C   UNL     1     -12.561  12.873  70.906  1.00  0.00    -0.355 C  
HETATM   24  C   UNL     1     -11.925  13.764  69.852  1.00  0.00    -0.412 C  
HETATM   25  C   UNL     1     -10.115   7.773  66.967  1.00  0.00    -0.343 A  
HETATM   26  C   UNL     1     -10.508   9.109  67.134  1.00  0.00    -0.325 A  
HETATM   27  C   UNL     1     -12.122  13.219  68.444  1.00  0.00    -0.244 C  
ENDBRANCH  10  11
ENDBRANCH   9  10
ENDBRANCH   8   9
TORSDOF 3
ENDMDL
MODEL      119
REMARK 921   NORMALIZED FREE ENERGY PREDICTED BY IDOCK:   -4.66 KCAL/MOL
REMARK 922        TOTAL FREE ENERGY PREDICTED BY IDOCK:   -5.93 KCAL/MOL
REMARK 923 INTER-LIGAND FREE ENERGY PREDICTED BY IDOCK:   -5.48 KCAL/MOL
REMARK 924 INTRA-LIGAND FREE ENERGY PREDICTED BY IDOCK:   -0.45 KCAL/MOL
REMARK 927      BINDING AFFINITY PREDICTED BY RF-SCORE:    0.00 PKD
ROOT
HETATM    1  C   UNL     1     -13.257  11.335  71.860  1.00  0.00    -0.386 C  
HETATM    2  N   UNL     1     -12.749  12.445  71.070  1.00  0.00    -0.291 NA 
HETATM    3  C   UNL     1     -13.076  13.766  71.572  1.00  0.00    -0.357 C  
HETATM    4  C   UNL     1     -12.515  14.919  70.770  1.00  0.00    -0.401 C  
HETATM    5  C   UNL     1     -11.820  14.605  69.466  1.00  0.00    -0.330 C  
HETATM    6  N   UNL     1     -11.684  13.208  69.110  1.00  0.00    -0.307 NA 
HETATM    7  H   UNL     1     -11.234  12.968  68.227  1.00  0.00     0.000 HD 
HETATM    8  C   UNL     1     -12.108  12.261  69.861  1.00  0.00    -0.249 C  
ENDROOT
BRANCH   8   9
HETATM    9  C   UNL     1     -11.898  10.803  69.331  1.00  0.00    -0.298 C  
BRANCH   9  10
HETATM   10  O   UNL     1     -10.602  10.432  68.870  1.00  0.00    -0.190 OA 
BRANCH  10  11
HETATM   11  C   UNL     1      -9.856   9.681  69.751  1.00  0.00    -0.229 C  
HETATM   12  C   UNL     1      -9.613   8.257  69.136  1.00  0.00    -0.160 C  
HETATM   13  O   UNL     1      -9.440  10.088  70.830  1.00  0.00     0.096 OA 
HETATM   14  C   UNL     1      -9.649   7.209  70.274  1.00  0.00    -0.169 A  
HETATM   15  O   UNL     1     -10.691   7.927  68.249  1.00  0.00    -0.384 OA 
HETATM   16  C   UNL     1      -8.266   8.309  68.311  1.00  0.00    -0.128 C  
HETATM   17  C   UNL     1      -7.803   6.966  67.707  1.00  0.00    -0.113 C  
HETATM   18  C   UNL     1     -10.852   6.547  70.605  1.00  0.00    -0.317 A  
HETATM   19  H   UNL     1     -10.544   7.065  67.877  1.00  0.00     0.000 HD 
HETATM   20  C   UNL     1      -8.609   6.527  66.487  1.00  0.00    -0.123 C  
HETATM   21  C   UNL     1     -10.914   5.601  71.636  1.00  0.00    -0.277 A  
HETATM   22  C   UNL     1      -9.773   5.299  72.370  1.00  0.00    -0.183 A  
HETATM   23  C   UNL     1      -8.616   7.584  65.388  1.00  0.00    -0.069 C  
HETATM   24  C   UNL     1      -9.002   8.962  65.899  1.00  0.00    -0.244 C  
HETATM   25  C   UNL     1      -8.579   5.953  72.084  1.00  0.00    -0.129 A  
HETATM   26  C   UNL     1      -8.520   6.906  71.057  1.00  0.00    -0.131 A  
HETATM   27  C   UNL     1      -8.237   9.343  67.159  1.00  0.00    -0.113 C  
ENDBRANCH  10  11
ENDBRANCH   9  10
ENDBRANCH   8   9
TORSDOF 3
ENDMDL
MODEL      120
REMARK 921   NORMALIZED FREE ENERGY PREDICTED BY IDOCK:   -4.65 KCAL/MOL
REMARK 922        TOTAL FREE ENERGY PREDICTED BY IDOCK:   -5.92 KCAL/MOL
REMARK 923 INTER-LIGAND FREE ENERGY PREDICTED BY IDOCK:   -5.13 KCAL/MOL
REMARK 924 INTRA-LIGAND FREE ENERGY PREDICTED BY IDOCK:   -0.78 KCAL/MOL
REMARK 927      BINDING AFFINITY PREDICTED BY RF-SCORE:    0.00 PKD
ROOT
HETATM    1  C   UNL     1      -9.588  17.119  67.466  1.00  0.00    -0.254 C  
HETATM    2  N   UNL     1      -8.402  16.302  67.672  1.00  0.00    -0.159 NA 
HETATM    3  C   UNL     1      -7.300  16.966  68.342  1.00  0.00    -0.202 C  
HETATM    4  C   UNL     1      -6.082  16.104  68.589  1.00  0.00    -0.112 C  
HETATM    5  C   UNL     1      -6.060  14.717  67.991  1.00  0.00    -0.156 C  
HETATM    6  N   UNL     1      -7.243  14.288  67.274  1.00  0.00    -0.317 NA 
HETATM    7  H   UNL     1      -7.248  13.363  66.846  1.00  0.00     0.000 HD 
HETATM    8  C   UNL     1      -8.283  15.026  67.158  1.00  0.00    -0.222 C  
ENDROOT
BRANCH   8   9
HETATM    9  C   UNL     1      -9.477  14.425  66.342  1.00  0.00    -0.285 C  
BRANCH   9  10
HETATM   10  O   UNL     1     -10.171  13.306  66.886  1.00  0.00    -0.245 OA 
BRANCH  10  11
HETATM   11  C   UNL     1      -9.751  12.075  66.433  1.00  0.00    -0.225 C  
HETATM   12  C   UNL     1      -9.487  11.136  67.663  1.00  0.00    -0.166 C  
HETATM   13  O   UNL     1      -9.631  11.776  65.250  1.00  0.00    -0.229 OA 
HETATM   14  C   UNL     1      -8.269  10.235  67.350  1.00  0.00    -0.114 A  
HETATM   15  O   UNL     1      -9.121  11.928  68.801  1.00  0.00    -0.362 OA 
HETATM   16  C   UNL     1     -10.830  10.367  67.983  1.00  0.00    -0.319 C  
HETATM   17  C   UNL     1     -10.743   9.315  69.109  1.00  0.00    -0.202 C  
HETATM   18  C   UNL     1      -6.967  10.626  67.733  1.00  0.00    -0.078 A  
HETATM   19  H   UNL     1      -8.960  11.360  69.546  1.00  0.00     0.000 HD 
HETATM   20  C   UNL     1     -10.677   9.914  70.511  1.00  0.00    -0.382 C  
HETATM   21  C   UNL     1      -5.847   9.833  67.454  1.00  0.00    -0.050 A  
HETATM   22  C   UNL     1      -6.000   8.629  66.776  1.00  0.00    -0.056 A  
HETATM   23  C   UNL     1     -11.850  10.845  70.798  1.00  0.00    -0.424 C  
HETATM   24  C   UNL     1     -12.057  11.885  69.709  1.00  0.00    -0.321 C  
HETATM   25  C   UNL     1      -7.267   8.229  66.364  1.00  0.00    -0.075 A  
HETATM   26  C   UNL     1      -8.387   9.027  66.637  1.00  0.00    -0.118 A  
HETATM   27  C   UNL     1     -12.044  11.268  68.316  1.00  0.00    -0.058 C  
ENDBRANCH  10  11
ENDBRANCH   9  10
ENDBRANCH   8   9
TORSDOF 3
ENDMDL
MODEL      121
REMARK 921   NORMALIZED FREE ENERGY PREDICTED BY IDOCK:   -4.62 KCAL/MOL
REMARK 922        TOTAL FREE ENERGY PREDICTED BY IDOCK:   -5.88 KCAL/MOL
REMARK 923 INTER-LIGAND FREE ENERGY PREDICTED BY IDOCK:   -5.33 KCAL/MOL
REMARK 924 INTRA-LIGAND FREE ENERGY PREDICTED BY IDOCK:   -0.55 KCAL/MOL
REMARK 927      BINDING AFFINITY PREDICTED BY RF-SCORE:    0.00 PKD
ROOT
HETATM    1  C   UNL     1      -9.579   4.575  68.569  1.00  0.00    -0.149 C  
HETATM    2  N   UNL     1      -9.214   4.980  69.917  1.00  0.00    -0.118 NA 
HETATM    3  C   UNL     1      -9.651   4.087  70.973  1.00  0.00    -0.179 C  
HETATM    4  C   UNL     1      -9.238   4.489  72.372  1.00  0.00    -0.151 C  
HETATM    5  C   UNL     1      -8.564   5.829  72.556  1.00  0.00    -0.120 C  
HETATM    6  N   UNL     1      -8.305   6.606  71.362  1.00  0.00    -0.120 NA 
HETATM    7  H   UNL     1      -7.867   7.522  71.459  1.00  0.00     0.000 HD 
HETATM    8  C   UNL     1      -8.604   6.188  70.188  1.00  0.00    -0.133 C  
ENDROOT
BRANCH   8   9
HETATM    9  C   UNL     1      -8.271   7.151  69.000  1.00  0.00    -0.125 C  
BRANCH   9  10
HETATM   10  O   UNL     1      -9.333   7.905  68.423  1.00  0.00    -0.141 OA 
BRANCH  10  11
HETATM   11  C   UNL     1      -9.035   9.218  68.134  1.00  0.00    -0.128 C  
HETATM   12  C   UNL     1     -10.332  10.088  68.295  1.00  0.00    -0.193 C  
HETATM   13  O   UNL     1      -7.921   9.624  67.824  1.00  0.00    -0.104 OA 
HETATM   14  C   UNL     1     -10.331  11.191  67.210  1.00  0.00    -0.243 A  
HETATM   15  O   UNL     1     -11.488   9.277  68.044  1.00  0.00    -0.259 OA 
HETATM   16  C   UNL     1     -10.384  10.609  69.786  1.00  0.00    -0.146 C  
HETATM   17  C   UNL     1     -11.546  11.571  70.115  1.00  0.00    -0.336 C  
HETATM   18  C   UNL     1     -10.972  10.981  65.969  1.00  0.00    -0.136 A  
HETATM   19  H   UNL     1     -12.273   9.803  68.141  1.00  0.00     0.000 HD 
HETATM   20  C   UNL     1     -12.902  10.882  70.242  1.00  0.00    -0.209 C  
HETATM   21  C   UNL     1     -10.977  11.959  64.967  1.00  0.00    -0.365 A  
HETATM   22  C   UNL     1     -10.335  13.174  65.178  1.00  0.00    -0.326 A  
HETATM   23  C   UNL     1     -12.886   9.758  71.273  1.00  0.00    -0.472 C  
HETATM   24  C   UNL     1     -11.734   8.788  71.069  1.00  0.00    -0.329 C  
HETATM   25  C   UNL     1      -9.674  13.400  66.381  1.00  0.00    -0.282 A  
HETATM   26  C   UNL     1      -9.662  12.417  67.381  1.00  0.00    -0.193 A  
HETATM   27  C   UNL     1     -10.406   9.505  70.872  1.00  0.00    -0.372 C  
ENDBRANCH  10  11
ENDBRANCH   9  10
ENDBRANCH   8   9
TORSDOF 3
ENDMDL
MODEL      122
REMARK 921   NORMALIZED FREE ENERGY PREDICTED BY IDOCK:   -4.61 KCAL/MOL
REMARK 922        TOTAL FREE ENERGY PREDICTED BY IDOCK:   -5.86 KCAL/MOL
REMARK 923 INTER-LIGAND FREE ENERGY PREDICTED BY IDOCK:   -5.22 KCAL/MOL
REMARK 924 INTRA-LIGAND FREE ENERGY PREDICTED BY IDOCK:   -0.65 KCAL/MOL
REMARK 927      BINDING AFFINITY PREDICTED BY RF-SCORE:    0.00 PKD
ROOT
HETATM    1  C   UNL     1      -6.930   5.296  64.602  1.00  0.00    -0.049 C  
HETATM    2  N   UNL     1      -8.297   4.808  64.505  1.00  0.00    -0.121 NA 
HETATM    3  C   UNL     1      -8.672   4.264  63.214  1.00  0.00    -0.117 C  
HETATM    4  C   UNL     1     -10.082   3.723  63.127  1.00  0.00    -0.176 C  
HETATM    5  C   UNL     1     -11.000   3.936  64.308  1.00  0.00    -0.032 C  
HETATM    6  N   UNL     1     -10.437   4.591  65.471  1.00  0.00    -0.494 NA 
HETATM    7  H   UNL     1     -11.039   4.763  66.275  1.00  0.00     0.000 HD 
HETATM    8  C   UNL     1      -9.213   4.963  65.527  1.00  0.00    -0.157 C  
ENDROOT
BRANCH   8   9
HETATM    9  C   UNL     1      -8.759   5.669  66.849  1.00  0.00    -0.113 C  
BRANCH   9  10
HETATM   10  O   UNL     1      -9.142   7.025  67.056  1.00  0.00    -0.129 OA 
BRANCH  10  11
HETATM   11  C   UNL     1     -10.138   7.221  67.987  1.00  0.00    -0.172 C  
HETATM   12  C   UNL     1      -9.922   8.609  68.689  1.00  0.00    -0.183 C  
HETATM   13  O   UNL     1     -11.052   6.432  68.201  1.00  0.00    -0.311 OA 
HETATM   14  C   UNL     1     -10.325   8.484  70.177  1.00  0.00    -0.214 A  
HETATM   15  O   UNL     1      -8.526   8.941  68.675  1.00  0.00    -0.126 OA 
HETATM   16  C   UNL     1     -10.717   9.698  67.864  1.00  0.00    -0.302 C  
HETATM   17  C   UNL     1     -10.707  11.122  68.459  1.00  0.00    -0.235 C  
HETATM   18  C   UNL     1      -9.362   8.159  71.159  1.00  0.00    -0.187 A  
HETATM   19  H   UNL     1      -8.395   9.780  69.100  1.00  0.00     0.000 HD 
HETATM   20  C   UNL     1      -9.382  11.858  68.276  1.00  0.00    -0.193 C  
HETATM   21  C   UNL     1      -9.703   8.031  72.511  1.00  0.00    -0.325 A  
HETATM   22  C   UNL     1     -11.019   8.216  72.917  1.00  0.00    -0.307 A  
HETATM   23  C   UNL     1      -8.959  11.933  66.813  1.00  0.00    -0.196 C  
HETATM   24  C   UNL     1      -8.997  10.581  66.119  1.00  0.00    -0.178 C  
HETATM   25  C   UNL     1     -11.994   8.511  71.969  1.00  0.00    -0.427 A  
HETATM   26  C   UNL     1     -11.654   8.632  70.614  1.00  0.00    -0.225 A  
HETATM   27  C   UNL     1     -10.300   9.838  66.380  1.00  0.00    -0.247 C  
ENDBRANCH  10  11
ENDBRANCH   9  10
ENDBRANCH   8   9
TORSDOF 3
ENDMDL
MODEL      123
REMARK 921   NORMALIZED FREE ENERGY PREDICTED BY IDOCK:   -4.60 KCAL/MOL
REMARK 922        TOTAL FREE ENERGY PREDICTED BY IDOCK:   -5.85 KCAL/MOL
REMARK 923 INTER-LIGAND FREE ENERGY PREDICTED BY IDOCK:   -5.58 KCAL/MOL
REMARK 924 INTRA-LIGAND FREE ENERGY PREDICTED BY IDOCK:   -0.27 KCAL/MOL
REMARK 927      BINDING AFFINITY PREDICTED BY RF-SCORE:    0.00 PKD
ROOT
HETATM    1  C   UNL     1     -12.139  12.381  64.006  1.00  0.00    -0.475 C  
HETATM    2  N   UNL     1     -11.808  12.834  65.348  1.00  0.00    -0.390 NA 
HETATM    3  C   UNL     1     -12.393  14.102  65.738  1.00  0.00    -0.461 C  
HETATM    4  C   UNL     1     -12.079  14.553  67.147  1.00  0.00    -0.301 C  
HETATM    5  C   UNL     1     -11.083  13.744  67.946  1.00  0.00    -0.264 C  
HETATM    6  N   UNL     1     -10.548  12.553  67.321  1.00  0.00    -0.226 NA 
HETATM    7  H   UNL     1      -9.861  11.998  67.831  1.00  0.00     0.000 HD 
HETATM    8  C   UNL     1     -10.904  12.168  66.152  1.00  0.00    -0.282 C  
ENDROOT
BRANCH   8   9
HETATM    9  C   UNL     1     -10.225  10.866  65.610  1.00  0.00    -0.263 C  
BRANCH   9  10
HETATM   10  O   UNL     1     -10.637   9.614  66.151  1.00  0.00    -0.101 OA 
BRANCH  10  11
HETATM   11  C   UNL     1     -10.046   9.265  67.345  1.00  0.00    -0.223 C  
HETATM   12  C   UNL     1      -9.432   7.826  67.215  1.00  0.00    -0.148 C  
HETATM   13  O   UNL     1      -9.999   9.989  68.333  1.00  0.00    -0.153 OA 
HETATM   14  C   UNL     1      -9.608   7.085  68.562  1.00  0.00    -0.137 A  
HETATM   15  O   UNL     1     -10.172   7.075  66.242  1.00  0.00    -0.451 OA 
HETATM   16  C   UNL     1      -7.939   7.978  66.720  1.00  0.00    -0.103 C  
HETATM   17  C   UNL     1      -7.132   6.666  66.625  1.00  0.00    -0.068 C  
HETATM   18  C   UNL     1     -10.739   6.271  68.793  1.00  0.00    -0.352 A  
HETATM   19  H   UNL     1      -9.801   6.204  66.163  1.00  0.00     0.000 HD 
HETATM   20  C   UNL     1      -7.507   5.795  65.429  1.00  0.00    -0.078 C  
HETATM   21  C   UNL     1     -10.927   5.597  70.006  1.00  0.00    -0.311 A  
HETATM   22  C   UNL     1      -9.990   5.726  71.025  1.00  0.00    -0.243 A  
HETATM   23  C   UNL     1      -7.385   6.545  64.107  1.00  0.00    -0.077 C  
HETATM   24  C   UNL     1      -8.099   7.886  64.121  1.00  0.00    -0.093 C  
HETATM   25  C   UNL     1      -8.878   6.541  70.836  1.00  0.00    -0.147 A  
HETATM   26  C   UNL     1      -8.695   7.222  69.624  1.00  0.00    -0.141 A  
HETATM   27  C   UNL     1      -7.764   8.702  65.362  1.00  0.00    -0.094 C  
ENDBRANCH  10  11
ENDBRANCH   9  10
ENDBRANCH   8   9
TORSDOF 3
ENDMDL
MODEL      124
REMARK 921   NORMALIZED FREE ENERGY PREDICTED BY IDOCK:   -4.58 KCAL/MOL
REMARK 922        TOTAL FREE ENERGY PREDICTED BY IDOCK:   -5.84 KCAL/MOL
REMARK 923 INTER-LIGAND FREE ENERGY PREDICTED BY IDOCK:   -6.43 KCAL/MOL
REMARK 924 INTRA-LIGAND FREE ENERGY PREDICTED BY IDOCK:    0.59 KCAL/MOL
REMARK 927      BINDING AFFINITY PREDICTED BY RF-SCORE:    0.00 PKD
ROOT
HETATM    1  C   UNL     1     -11.099  14.604  69.458  1.00  0.00    -0.266 C  
HETATM    2  N   UNL     1     -12.166  14.316  70.403  1.00  0.00    -0.320 NA 
HETATM    3  C   UNL     1     -12.908  15.470  70.873  1.00  0.00    -0.477 C  
HETATM    4  C   UNL     1     -14.042  15.165  71.827  1.00  0.00    -0.645 C  
HETATM    5  C   UNL     1     -14.194  13.744  72.317  1.00  0.00    -0.467 C  
HETATM    6  N   UNL     1     -13.276  12.760  71.783  1.00  0.00    -0.420 NA 
HETATM    7  H   UNL     1     -13.346  11.797  72.110  1.00  0.00     0.000 HD 
HETATM    8  C   UNL     1     -12.380  13.052  70.916  1.00  0.00    -0.288 C  
ENDROOT
BRANCH   8   9
HETATM    9  C   UNL     1     -11.456  11.879  70.446  1.00  0.00     0.227 C  
BRANCH   9  10
HETATM   10  O   UNL     1     -10.685  12.059  69.261  1.00  0.00    -0.146 OA 
BRANCH  10  11
HETATM   11  C   UNL     1     -11.324  11.730  68.087  1.00  0.00    -0.284 C  
HETATM   12  C   UNL     1     -10.286  11.760  66.909  1.00  0.00    -0.209 C  
HETATM   13  O   UNL     1     -12.513  11.442  68.001  1.00  0.00    -0.159 OA 
HETATM   14  C   UNL     1     -10.986  12.299  65.639  1.00  0.00    -0.338 A  
HETATM   15  O   UNL     1      -9.238  12.689  67.218  1.00  0.00    -0.182 OA 
HETATM   16  C   UNL     1      -9.665  10.313  66.774  1.00  0.00    -0.231 C  
HETATM   17  C   UNL     1      -8.687  10.115  65.597  1.00  0.00    -0.173 C  
HETATM   18  C   UNL     1     -10.949  13.676  65.327  1.00  0.00    -0.314 A  
HETATM   19  H   UNL     1      -8.609  12.708  66.506  1.00  0.00     0.000 HD 
HETATM   20  C   UNL     1      -7.316  10.751  65.820  1.00  0.00    -0.061 C  
HETATM   21  C   UNL     1     -11.582  14.191  64.189  1.00  0.00    -0.252 A  
HETATM   22  C   UNL     1     -12.277  13.341  63.336  1.00  0.00    -0.476 A  
HETATM   23  C   UNL     1      -6.652  10.259  67.101  1.00  0.00    -0.073 C  
HETATM   24  C   UNL     1      -7.564  10.356  68.313  1.00  0.00    -0.095 C  
HETATM   25  C   UNL     1     -12.352  11.984  63.631  1.00  0.00    -0.648 A  
HETATM   26  C   UNL     1     -11.725  11.470  64.775  1.00  0.00    -0.013 A  
HETATM   27  C   UNL     1      -8.947   9.781  68.038  1.00  0.00    -0.118 C  
ENDBRANCH  10  11
ENDBRANCH   9  10
ENDBRANCH   8   9
TORSDOF 3
ENDMDL
MODEL      125
REMARK 921   NORMALIZED FREE ENERGY PREDICTED BY IDOCK:   -4.54 KCAL/MOL
REMARK 922        TOTAL FREE ENERGY PREDICTED BY IDOCK:   -5.78 KCAL/MOL
REMARK 923 INTER-LIGAND FREE ENERGY PREDICTED BY IDOCK:   -5.29 KCAL/MOL
REMARK 924 INTRA-LIGAND FREE ENERGY PREDICTED BY IDOCK:   -0.49 KCAL/MOL
REMARK 927      BINDING AFFINITY PREDICTED BY RF-SCORE:    0.00 PKD
ROOT
HETATM    1  C   UNL     1     -10.743   4.634  72.968  1.00  0.00    -0.233 C  
HETATM    2  N   UNL     1     -10.223   3.995  71.770  1.00  0.00    -0.120 NA 
HETATM    3  C   UNL     1      -9.900   2.587  71.908  1.00  0.00    -0.158 C  
HETATM    4  C   UNL     1      -9.395   1.914  70.651  1.00  0.00    -0.187 C  
HETATM    5  C   UNL     1      -9.128   2.779  69.441  1.00  0.00    -0.124 C  
HETATM    6  N   UNL     1      -9.438   4.189  69.556  1.00  0.00    -0.170 NA 
HETATM    7  H   UNL     1      -9.251   4.798  68.760  1.00  0.00     0.000 HD 
HETATM    8  C   UNL     1      -9.939   4.700  70.618  1.00  0.00    -0.223 C  
ENDROOT
BRANCH   8   9
HETATM    9  C   UNL     1     -10.206   6.242  70.590  1.00  0.00    -0.194 C  
BRANCH   9  10
HETATM   10  O   UNL     1     -10.427   6.867  69.328  1.00  0.00    -0.197 OA 
BRANCH  10  11
HETATM   11  C   UNL     1      -9.348   7.548  68.811  1.00  0.00    -0.147 C  
HETATM   12  C   UNL     1      -9.819   8.965  68.325  1.00  0.00    -0.167 C  
HETATM   13  O   UNL     1      -8.206   7.106  68.767  1.00  0.00    -0.120 OA 
HETATM   14  C   UNL     1      -9.036   9.339  67.044  1.00  0.00    -0.153 A  
HETATM   15  O   UNL     1     -11.202   8.908  67.951  1.00  0.00    -0.450 OA 
HETATM   16  C   UNL     1      -9.654   9.971  69.533  1.00  0.00    -0.249 C  
HETATM   17  C   UNL     1      -9.975  11.447  69.218  1.00  0.00     0.086 C  
HETATM   18  C   UNL     1      -9.562   9.042  65.767  1.00  0.00    -0.287 A  
HETATM   19  H   UNL     1     -11.487   9.766  67.656  1.00  0.00     0.000 HD 
HETATM   20  C   UNL     1     -11.468  11.741  69.094  1.00  0.00    -0.358 C  
HETATM   21  C   UNL     1      -8.870   9.361  64.592  1.00  0.00    -0.238 A  
HETATM   22  C   UNL     1      -7.627   9.980  64.664  1.00  0.00    -0.143 A  
HETATM   23  C   UNL     1     -12.246  11.322  70.337  1.00  0.00    -0.453 C  
HETATM   24  C   UNL     1     -11.948   9.895  70.765  1.00  0.00    -0.410 C  
HETATM   25  C   UNL     1      -7.072  10.262  65.908  1.00  0.00    -0.131 A  
HETATM   26  C   UNL     1      -7.762   9.934  67.085  1.00  0.00    -0.092 A  
HETATM   27  C   UNL     1     -10.453   9.608  70.809  1.00  0.00    -0.375 C  
ENDBRANCH  10  11
ENDBRANCH   9  10
ENDBRANCH   8   9
TORSDOF 3
ENDMDL
MODEL      126
REMARK 921   NORMALIZED FREE ENERGY PREDICTED BY IDOCK:   -4.53 KCAL/MOL
REMARK 922        TOTAL FREE ENERGY PREDICTED BY IDOCK:   -5.77 KCAL/MOL
REMARK 923 INTER-LIGAND FREE ENERGY PREDICTED BY IDOCK:   -5.07 KCAL/MOL
REMARK 924 INTRA-LIGAND FREE ENERGY PREDICTED BY IDOCK:   -0.70 KCAL/MOL
REMARK 927      BINDING AFFINITY PREDICTED BY RF-SCORE:    0.00 PKD
ROOT
HETATM    1  C   UNL     1      -7.877   5.120  65.121  1.00  0.00    -0.091 C  
HETATM    2  N   UNL     1      -8.345   4.238  66.178  1.00  0.00    -0.109 NA 
HETATM    3  C   UNL     1      -7.537   3.054  66.403  1.00  0.00    -0.076 C  
HETATM    4  C   UNL     1      -8.004   2.157  67.527  1.00  0.00    -0.064 C  
HETATM    5  C   UNL     1      -9.322   2.480  68.193  1.00  0.00    -0.207 C  
HETATM    6  N   UNL     1     -10.013   3.670  67.744  1.00  0.00    -0.063 NA 
HETATM    7  H   UNL     1     -10.913   3.902  68.164  1.00  0.00     0.000 HD 
HETATM    8  C   UNL     1      -9.539   4.443  66.840  1.00  0.00    -0.199 C  
ENDROOT
BRANCH   8   9
HETATM    9  C   UNL     1     -10.413   5.684  66.456  1.00  0.00    -0.249 C  
BRANCH   9  10
HETATM   10  O   UNL     1     -10.672   6.664  67.457  1.00  0.00    -0.236 OA 
BRANCH  10  11
HETATM   11  C   UNL     1      -9.968   7.840  67.328  1.00  0.00    -0.212 C  
HETATM   12  C   UNL     1     -10.020   8.624  68.687  1.00  0.00    -0.183 C  
HETATM   13  O   UNL     1      -9.382   8.189  66.309  1.00  0.00    -0.195 OA 
HETATM   14  C   UNL     1     -10.103  10.139  68.387  1.00  0.00    -0.184 A  
HETATM   15  O   UNL     1     -11.223   8.285  69.390  1.00  0.00    -0.440 OA 
HETATM   16  C   UNL     1      -8.776   8.175  69.553  1.00  0.00    -0.142 C  
HETATM   17  C   UNL     1      -8.598   8.915  70.896  1.00  0.00    -0.242 C  
HETATM   18  C   UNL     1     -11.355  10.787  68.295  1.00  0.00    -0.376 A  
HETATM   19  H   UNL     1     -11.255   8.759  70.213  1.00  0.00     0.000 HD 
HETATM   20  C   UNL     1      -9.586   8.482  71.976  1.00  0.00    -0.371 C  
HETATM   21  C   UNL     1     -11.458  12.155  68.015  1.00  0.00    -0.380 A  
HETATM   22  C   UNL     1     -10.310  12.911  67.812  1.00  0.00    -0.223 A  
HETATM   23  C   UNL     1      -9.540   6.979  72.231  1.00  0.00    -0.165 C  
HETATM   24  C   UNL     1      -9.647   6.160  70.955  1.00  0.00    -0.194 C  
HETATM   25  C   UNL     1      -9.064  12.296  67.871  1.00  0.00    -0.190 A  
HETATM   26  C   UNL     1      -8.961  10.924  68.144  1.00  0.00    -0.144 A  
HETATM   27  C   UNL     1      -8.702   6.662  69.871  1.00  0.00    -0.141 C  
ENDBRANCH  10  11
ENDBRANCH   9  10
ENDBRANCH   8   9
TORSDOF 3
ENDMDL
MODEL      127
REMARK 921   NORMALIZED FREE ENERGY PREDICTED BY IDOCK:   -4.50 KCAL/MOL
REMARK 922        TOTAL FREE ENERGY PREDICTED BY IDOCK:   -5.74 KCAL/MOL
REMARK 923 INTER-LIGAND FREE ENERGY PREDICTED BY IDOCK:   -5.27 KCAL/MOL
REMARK 924 INTRA-LIGAND FREE ENERGY PREDICTED BY IDOCK:   -0.47 KCAL/MOL
REMARK 927      BINDING AFFINITY PREDICTED BY RF-SCORE:    0.00 PKD
ROOT
HETATM    1  C   UNL     1     -12.077  13.504  68.072  1.00  0.00    -0.262 C  
HETATM    2  N   UNL     1     -11.854  13.255  66.656  1.00  0.00    -0.380 NA 
HETATM    3  C   UNL     1     -12.293  14.311  65.764  1.00  0.00    -0.405 C  
HETATM    4  C   UNL     1     -12.027  14.067  64.295  1.00  0.00    -0.463 C  
HETATM    5  C   UNL     1     -11.489  12.715  63.885  1.00  0.00    -0.442 C  
HETATM    6  N   UNL     1     -11.205  11.770  64.945  1.00  0.00    -0.294 NA 
HETATM    7  H   UNL     1     -10.857  10.844  64.695  1.00  0.00     0.000 HD 
HETATM    8  C   UNL     1     -11.374  12.050  66.183  1.00  0.00    -0.351 C  
ENDROOT
BRANCH   8   9
HETATM    9  C   UNL     1     -11.034  10.916  67.207  1.00  0.00    -0.294 C  
BRANCH   9  10
HETATM   10  O   UNL     1     -10.477   9.702  66.711  1.00  0.00    -0.230 OA 
BRANCH  10  11
HETATM   11  C   UNL     1      -9.982   8.846  67.669  1.00  0.00    -0.196 C  
HETATM   12  C   UNL     1      -8.771   8.047  67.070  1.00  0.00    -0.128 C  
HETATM   13  O   UNL     1     -10.421   8.754  68.810  1.00  0.00    -0.214 OA 
HETATM   14  C   UNL     1      -8.794   6.607  67.633  1.00  0.00    -0.116 A  
HETATM   15  O   UNL     1      -8.931   7.928  65.649  1.00  0.00    -0.323 OA 
HETATM   16  C   UNL     1      -7.454   8.867  67.371  1.00  0.00    -0.085 C  
HETATM   17  C   UNL     1      -6.135   8.190  66.943  1.00  0.00    -0.054 C  
HETATM   18  C   UNL     1      -9.453   5.571  66.934  1.00  0.00    -0.140 A  
HETATM   19  H   UNL     1      -8.197   7.444  65.286  1.00  0.00     0.000 HD 
HETATM   20  C   UNL     1      -5.885   8.220  65.437  1.00  0.00    -0.044 C  
HETATM   21  C   UNL     1      -9.498   4.261  67.426  1.00  0.00    -0.213 A  
HETATM   22  C   UNL     1      -8.889   3.953  68.638  1.00  0.00    -0.150 A  
HETATM   23  C   UNL     1      -5.916   9.638  64.875  1.00  0.00    -0.081 C  
HETATM   24  C   UNL     1      -7.155  10.412  65.295  1.00  0.00    -0.098 C  
HETATM   25  C   UNL     1      -8.255   4.957  69.362  1.00  0.00    -0.081 A  
HETATM   26  C   UNL     1      -8.218   6.271  68.872  1.00  0.00    -0.113 A  
HETATM   27  C   UNL     1      -7.420  10.302  66.791  1.00  0.00    -0.107 C  
ENDBRANCH  10  11
ENDBRANCH   9  10
ENDBRANCH   8   9
TORSDOF 3
ENDMDL
MODEL      128
REMARK 921   NORMALIZED FREE ENERGY PREDICTED BY IDOCK:   -4.49 KCAL/MOL
REMARK 922        TOTAL FREE ENERGY PREDICTED BY IDOCK:   -5.73 KCAL/MOL
REMARK 923 INTER-LIGAND FREE ENERGY PREDICTED BY IDOCK:   -5.43 KCAL/MOL
REMARK 924 INTRA-LIGAND FREE ENERGY PREDICTED BY IDOCK:   -0.30 KCAL/MOL
REMARK 927      BINDING AFFINITY PREDICTED BY RF-SCORE:    0.00 PKD
ROOT
HETATM    1  C   UNL     1     -10.038  10.833  65.623  1.00  0.00    -0.267 C  
HETATM    2  N   UNL     1     -10.774  12.026  65.235  1.00  0.00    -0.278 NA 
HETATM    3  C   UNL     1     -11.284  12.027  63.877  1.00  0.00    -0.417 C  
HETATM    4  C   UNL     1     -12.082  13.251  63.487  1.00  0.00    -0.550 C  
HETATM    5  C   UNL     1     -12.139  14.402  64.464  1.00  0.00    -0.481 C  
HETATM    6  N   UNL     1     -11.475  14.220  65.738  1.00  0.00    -0.329 NA 
HETATM    7  H   UNL     1     -11.483  14.987  66.409  1.00  0.00     0.000 HD 
HETATM    8  C   UNL     1     -10.876  13.132  66.054  1.00  0.00    -0.272 C  
ENDROOT
BRANCH   8   9
HETATM    9  C   UNL     1     -10.195  13.096  67.463  1.00  0.00    -0.225 C  
BRANCH   9  10
HETATM   10  O   UNL     1     -11.004  13.337  68.611  1.00  0.00    -0.248 OA 
BRANCH  10  11
HETATM   11  C   UNL     1     -11.895  12.337  68.925  1.00  0.00    -0.303 C  
HETATM   12  C   UNL     1     -12.179  12.365  70.469  1.00  0.00    -0.295 C  
HETATM   13  O   UNL     1     -12.393  11.570  68.108  1.00  0.00    -0.473 OA 
HETATM   14  C   UNL     1     -12.347  10.912  70.973  1.00  0.00    -0.498 A  
HETATM   15  O   UNL     1     -11.040  12.902  71.156  1.00  0.00     1.636 OA 
HETATM   16  C   UNL     1     -13.421  13.311  70.715  1.00  0.00     0.418 C  
HETATM   17  C   UNL     1     -13.918  13.390  72.175  1.00  0.00    -0.531 C  
HETATM   18  C   UNL     1     -11.241  10.194  71.479  1.00  0.00     0.171 A  
HETATM   19  H   UNL     1     -11.212  12.919  72.090  1.00  0.00     0.000 HD 
HETATM   20  C   UNL     1     -13.022  14.222  73.088  1.00  0.00    -0.426 C  
HETATM   21  C   UNL     1     -11.363   8.875  71.933  1.00  0.00    -0.446 A  
HETATM   22  C   UNL     1     -12.597   8.235  71.884  1.00  0.00    -0.379 A  
HETATM   23  C   UNL     1     -12.814  15.638  72.561  1.00  0.00    -0.526 C  
HETATM   24  C   UNL     1     -12.381  15.667  71.105  1.00  0.00    -0.482 C  
HETATM   25  C   UNL     1     -13.699   8.908  71.367  1.00  0.00    -0.323 A  
HETATM   26  C   UNL     1     -13.574  10.226  70.905  1.00  0.00     0.057 A  
HETATM   27  C   UNL     1     -13.247  14.771  70.230  1.00  0.00     0.040 C  
ENDBRANCH  10  11
ENDBRANCH   9  10
ENDBRANCH   8   9
TORSDOF 3
ENDMDL
MODEL      129
REMARK 921   NORMALIZED FREE ENERGY PREDICTED BY IDOCK:   -4.48 KCAL/MOL
REMARK 922        TOTAL FREE ENERGY PREDICTED BY IDOCK:   -5.71 KCAL/MOL
REMARK 923 INTER-LIGAND FREE ENERGY PREDICTED BY IDOCK:   -5.38 KCAL/MOL
REMARK 924 INTRA-LIGAND FREE ENERGY PREDICTED BY IDOCK:   -0.33 KCAL/MOL
REMARK 927      BINDING AFFINITY PREDICTED BY RF-SCORE:    0.00 PKD
ROOT
HETATM    1  C   UNL     1      -5.840  16.758  70.111  1.00  0.00    -0.178 C  
HETATM    2  N   UNL     1      -5.846  17.177  68.719  1.00  0.00    -0.144 NA 
HETATM    3  C   UNL     1      -5.971  18.605  68.501  1.00  0.00    -0.206 C  
HETATM    4  C   UNL     1      -5.940  19.043  67.053  1.00  0.00    -0.172 C  
HETATM    5  C   UNL     1      -5.942  17.972  65.987  1.00  0.00    -0.210 C  
HETATM    6  N   UNL     1      -5.908  16.595  66.435  1.00  0.00    -0.212 NA 
HETATM    7  H   UNL     1      -5.926  15.852  65.737  1.00  0.00     0.000 HD 
HETATM    8  C   UNL     1      -5.857  16.274  67.674  1.00  0.00    -0.147 C  
ENDROOT
BRANCH   8   9
HETATM    9  C   UNL     1      -5.839  14.742  67.997  1.00  0.00    -0.146 C  
BRANCH   9  10
HETATM   10  O   UNL     1      -6.693  13.884  67.246  1.00  0.00    -0.237 OA 
BRANCH  10  11
HETATM   11  C   UNL     1      -8.042  14.077  67.440  1.00  0.00    -0.185 C  
HETATM   12  C   UNL     1      -8.811  12.762  67.059  1.00  0.00    -0.213 C  
HETATM   13  O   UNL     1      -8.540  15.114  67.863  1.00  0.00    -0.148 OA 
HETATM   14  C   UNL     1     -10.157  13.144  66.398  1.00  0.00    -0.281 A  
HETATM   15  O   UNL     1      -8.065  12.040  66.069  1.00  0.00    -0.331 OA 
HETATM   16  C   UNL     1      -8.928  11.876  68.363  1.00  0.00    -0.163 C  
HETATM   17  C   UNL     1      -9.745  10.575  68.212  1.00  0.00    -0.163 C  
HETATM   18  C   UNL     1     -10.259  13.269  64.995  1.00  0.00    -0.313 A  
HETATM   19  H   UNL     1      -8.531  11.244  65.839  1.00  0.00     0.000 HD 
HETATM   20  C   UNL     1      -9.016   9.472  67.449  1.00  0.00    -0.141 C  
HETATM   21  C   UNL     1     -11.463  13.622  64.372  1.00  0.00    -0.410 A  
HETATM   22  C   UNL     1     -12.596  13.868  65.140  1.00  0.00    -0.466 A  
HETATM   23  C   UNL     1      -7.665   9.135  68.072  1.00  0.00    -0.092 C  
HETATM   24  C   UNL     1      -6.806  10.365  68.318  1.00  0.00    -0.065 C  
HETATM   25  C   UNL     1     -12.519  13.777  66.525  1.00  0.00    -0.356 A  
HETATM   26  C   UNL     1     -11.312  13.431  67.149  1.00  0.00    -0.344 A  
HETATM   27  C   UNL     1      -7.581  11.476  69.013  1.00  0.00    -0.058 C  
ENDBRANCH  10  11
ENDBRANCH   9  10
ENDBRANCH   8   9
TORSDOF 3
ENDMDL
MODEL      130
REMARK 921   NORMALIZED FREE ENERGY PREDICTED BY IDOCK:   -4.47 KCAL/MOL
REMARK 922        TOTAL FREE ENERGY PREDICTED BY IDOCK:   -5.70 KCAL/MOL
REMARK 923 INTER-LIGAND FREE ENERGY PREDICTED BY IDOCK:   -4.92 KCAL/MOL
REMARK 924 INTRA-LIGAND FREE ENERGY PREDICTED BY IDOCK:   -0.78 KCAL/MOL
REMARK 927      BINDING AFFINITY PREDICTED BY RF-SCORE:    0.00 PKD
ROOT
HETATM    1  C   UNL     1     -10.348  11.947  65.279  1.00  0.00    -0.276 C  
HETATM    2  N   UNL     1     -10.861  12.056  66.636  1.00  0.00    -0.260 NA 
HETATM    3  C   UNL     1     -11.432  13.343  66.982  1.00  0.00    -0.337 C  
HETATM    4  C   UNL     1     -11.999  13.443  68.381  1.00  0.00    -0.359 C  
HETATM    5  C   UNL     1     -11.783  12.279  69.320  1.00  0.00    -0.330 C  
HETATM    6  N   UNL     1     -11.101  11.119  68.786  1.00  0.00    -0.214 NA 
HETATM    7  H   UNL     1     -10.927  10.326  69.403  1.00  0.00     0.000 HD 
HETATM    8  C   UNL     1     -10.706  11.050  67.569  1.00  0.00    -0.244 C  
ENDROOT
BRANCH   8   9
HETATM    9  C   UNL     1      -9.972   9.733  67.148  1.00  0.00    -0.198 C  
BRANCH   9  10
HETATM   10  O   UNL     1     -10.219   8.551  67.903  1.00  0.00    -0.197 OA 
BRANCH  10  11
HETATM   11  C   UNL     1      -9.096   7.900  68.363  1.00  0.00    -0.135 C  
HETATM   12  C   UNL     1      -9.174   7.781  69.927  1.00  0.00    -0.146 C  
HETATM   13  O   UNL     1      -8.200   7.471  67.645  1.00  0.00    -0.116 OA 
HETATM   14  C   UNL     1      -7.751   7.943  70.512  1.00  0.00    -0.086 A  
HETATM   15  O   UNL     1      -9.952   8.866  70.452  1.00  0.00    -0.177 OA 
HETATM   16  C   UNL     1      -9.895   6.418  70.274  1.00  0.00    -0.192 C  
HETATM   17  C   UNL     1      -9.979   6.073  71.776  1.00  0.00    -0.199 C  
HETATM   18  C   UNL     1      -7.280   9.211  70.918  1.00  0.00    -0.118 A  
HETATM   19  H   UNL     1      -9.999   8.795  71.398  1.00  0.00     0.000 HD 
HETATM   20  C   UNL     1     -11.017   6.890  72.540  1.00  0.00    -0.294 C  
HETATM   21  C   UNL     1      -5.993   9.386  71.441  1.00  0.00    -0.069 A  
HETATM   22  C   UNL     1      -5.139   8.296  71.566  1.00  0.00    -0.033 A  
HETATM   23  C   UNL     1     -12.410   6.772  71.929  1.00  0.00    -0.369 C  
HETATM   24  C   UNL     1     -12.421   7.035  70.432  1.00  0.00     0.027 C  
HETATM   25  C   UNL     1      -5.566   7.039  71.151  1.00  0.00    -0.028 A  
HETATM   26  C   UNL     1      -6.852   6.866  70.619  1.00  0.00    -0.058 A  
HETATM   27  C   UNL     1     -11.327   6.264  69.706  1.00  0.00    -0.506 C  
ENDBRANCH  10  11
ENDBRANCH   9  10
ENDBRANCH   8   9
TORSDOF 3
ENDMDL
MODEL      131
REMARK 921   NORMALIZED FREE ENERGY PREDICTED BY IDOCK:   -4.46 KCAL/MOL
REMARK 922        TOTAL FREE ENERGY PREDICTED BY IDOCK:   -5.70 KCAL/MOL
REMARK 923 INTER-LIGAND FREE ENERGY PREDICTED BY IDOCK:   -5.32 KCAL/MOL
REMARK 924 INTRA-LIGAND FREE ENERGY PREDICTED BY IDOCK:   -0.38 KCAL/MOL
REMARK 927      BINDING AFFINITY PREDICTED BY RF-SCORE:    0.00 PKD
ROOT
HETATM    1  C   UNL     1      -6.047  14.175  67.845  1.00  0.00    -0.146 C  
HETATM    2  N   UNL     1      -6.865  15.373  67.953  1.00  0.00    -0.134 NA 
HETATM    3  C   UNL     1      -6.228  16.504  68.599  1.00  0.00    -0.136 C  
HETATM    4  C   UNL     1      -7.066  17.760  68.677  1.00  0.00    -0.257 C  
HETATM    5  C   UNL     1      -8.508  17.680  68.232  1.00  0.00    -0.271 C  
HETATM    6  N   UNL     1      -8.965  16.413  67.700  1.00  0.00    -0.196 NA 
HETATM    7  H   UNL     1      -9.938  16.327  67.408  1.00  0.00     0.000 HD 
HETATM    8  C   UNL     1      -8.194  15.397  67.581  1.00  0.00    -0.157 C  
ENDROOT
BRANCH   8   9
HETATM    9  C   UNL     1      -8.841  14.096  66.999  1.00  0.00    -0.221 C  
BRANCH   9  10
HETATM   10  O   UNL     1      -9.064  12.999  67.881  1.00  0.00    -0.190 OA 
BRANCH  10  11
HETATM   11  C   UNL     1      -9.553  11.856  67.290  1.00  0.00    -0.177 C  
HETATM   12  C   UNL     1     -10.223  10.955  68.386  1.00  0.00    -0.178 C  
HETATM   13  O   UNL     1      -9.483  11.612  66.090  1.00  0.00    -0.213 OA 
HETATM   14  C   UNL     1      -9.949   9.470  68.049  1.00  0.00    -0.198 A  
HETATM   15  O   UNL     1      -9.603  11.202  69.656  1.00  0.00    -0.359 OA 
HETATM   16  C   UNL     1     -11.750  11.354  68.474  1.00  0.00    -0.386 C  
HETATM   17  C   UNL     1     -12.606  10.504  69.436  1.00  0.00     0.310 C  
HETATM   18  C   UNL     1      -8.829   8.804  68.594  1.00  0.00    -0.138 A  
HETATM   19  H   UNL     1     -10.008  10.657  70.319  1.00  0.00     0.000 HD 
HETATM   20  C   UNL     1     -12.374  10.817  70.912  1.00  0.00    -0.497 C  
HETATM   21  C   UNL     1      -8.552   7.463  68.298  1.00  0.00    -0.124 A  
HETATM   22  C   UNL     1      -9.386   6.755  67.440  1.00  0.00    -0.140 A  
HETATM   23  C   UNL     1     -12.592  12.292  71.231  1.00  0.00    -0.336 C  
HETATM   24  C   UNL     1     -11.835  13.217  70.293  1.00  0.00    -0.307 C  
HETATM   25  C   UNL     1     -10.482   7.392  66.868  1.00  0.00    -0.379 A  
HETATM   26  C   UNL     1     -10.754   8.737  67.159  1.00  0.00    -0.204 A  
HETATM   27  C   UNL     1     -12.026  12.835  68.832  1.00  0.00    -0.286 C  
ENDBRANCH  10  11
ENDBRANCH   9  10
ENDBRANCH   8   9
TORSDOF 3
ENDMDL
MODEL      132
REMARK 921   NORMALIZED FREE ENERGY PREDICTED BY IDOCK:   -4.45 KCAL/MOL
REMARK 922        TOTAL FREE ENERGY PREDICTED BY IDOCK:   -5.68 KCAL/MOL
REMARK 923 INTER-LIGAND FREE ENERGY PREDICTED BY IDOCK:   -5.15 KCAL/MOL
REMARK 924 INTRA-LIGAND FREE ENERGY PREDICTED BY IDOCK:   -0.54 KCAL/MOL
REMARK 927      BINDING AFFINITY PREDICTED BY RF-SCORE:    0.00 PKD
ROOT
HETATM    1  C   UNL     1      -6.955   3.546  65.857  1.00  0.00    -0.061 C  
HETATM    2  N   UNL     1      -8.291   3.653  65.292  1.00  0.00    -0.100 NA 
HETATM    3  C   UNL     1      -8.423   3.205  63.919  1.00  0.00    -0.090 C  
HETATM    4  C   UNL     1      -9.820   3.283  63.346  1.00  0.00    -0.128 C  
HETATM    5  C   UNL     1     -10.893   3.950  64.176  1.00  0.00    -0.149 C  
HETATM    6  N   UNL     1     -10.514   4.411  65.495  1.00  0.00    -0.484 NA 
HETATM    7  H   UNL     1     -11.214   4.881  66.069  1.00  0.00     0.000 HD 
HETATM    8  C   UNL     1      -9.335   4.254  65.968  1.00  0.00    -0.163 C  
ENDROOT
BRANCH   8   9
HETATM    9  C   UNL     1      -9.079   4.819  67.406  1.00  0.00    -0.117 C  
BRANCH   9  10
HETATM   10  O   UNL     1      -9.810   5.971  67.819  1.00  0.00    -0.112 OA 
BRANCH  10  11
HETATM   11  C   UNL     1      -9.110   7.155  67.787  1.00  0.00    -0.127 C  
HETATM   12  C   UNL     1      -9.845   8.212  68.687  1.00  0.00    -0.183 C  
HETATM   13  O   UNL     1      -8.068   7.329  67.166  1.00  0.00    -0.111 OA 
HETATM   14  C   UNL     1      -9.717   9.605  68.028  1.00  0.00    -0.167 A  
HETATM   15  O   UNL     1     -11.247   7.913  68.730  1.00  0.00    -0.377 OA 
HETATM   16  C   UNL     1      -9.251   8.100  70.148  1.00  0.00    -0.155 C  
HETATM   17  C   UNL     1      -9.783   9.135  71.163  1.00  0.00    -0.360 C  
HETATM   18  C   UNL     1     -10.716  10.081  67.150  1.00  0.00    -0.279 A  
HETATM   19  H   UNL     1     -11.692   8.552  69.274  1.00  0.00     0.000 HD 
HETATM   20  C   UNL     1     -11.202   8.850  71.649  1.00  0.00    -0.415 C  
HETATM   21  C   UNL     1     -10.620  11.334  66.533  1.00  0.00    -0.315 A  
HETATM   22  C   UNL     1      -9.515  12.143  66.772  1.00  0.00    -0.213 A  
HETATM   23  C   UNL     1     -11.338   7.455  72.250  1.00  0.00    -0.323 C  
HETATM   24  C   UNL     1     -10.783   6.367  71.346  1.00  0.00    -0.290 C  
HETATM   25  C   UNL     1      -8.502  11.691  67.611  1.00  0.00    -0.142 A  
HETATM   26  C   UNL     1      -8.595  10.432  68.223  1.00  0.00    -0.128 A  
HETATM   27  C   UNL     1      -9.397   6.712  70.816  1.00  0.00    -0.159 C  
ENDBRANCH  10  11
ENDBRANCH   9  10
ENDBRANCH   8   9
TORSDOF 3
ENDMDL
MODEL      133
REMARK 921   NORMALIZED FREE ENERGY PREDICTED BY IDOCK:   -4.43 KCAL/MOL
REMARK 922        TOTAL FREE ENERGY PREDICTED BY IDOCK:   -5.66 KCAL/MOL
REMARK 923 INTER-LIGAND FREE ENERGY PREDICTED BY IDOCK:   -5.34 KCAL/MOL
REMARK 924 INTRA-LIGAND FREE ENERGY PREDICTED BY IDOCK:   -0.33 KCAL/MOL
REMARK 927      BINDING AFFINITY PREDICTED BY RF-SCORE:    0.00 PKD
ROOT
HETATM    1  C   UNL     1     -12.718   8.127  71.280  1.00  0.00    -0.206 C  
HETATM    2  N   UNL     1     -11.320   8.048  71.672  1.00  0.00    -0.253 NA 
HETATM    3  C   UNL     1     -11.083   7.710  73.063  1.00  0.00    -0.381 C  
HETATM    4  C   UNL     1      -9.628   7.592  73.460  1.00  0.00    -0.339 C  
HETATM    5  C   UNL     1      -8.580   7.982  72.443  1.00  0.00    -0.163 C  
HETATM    6  N   UNL     1      -9.049   8.382  71.133  1.00  0.00    -0.160 NA 
HETATM    7  H   UNL     1      -8.364   8.667  70.433  1.00  0.00     0.000 HD 
HETATM    8  C   UNL     1     -10.291   8.392  70.818  1.00  0.00    -0.195 C  
ENDROOT
BRANCH   8   9
HETATM    9  C   UNL     1     -10.638   8.861  69.365  1.00  0.00    -0.217 C  
BRANCH   9  10
HETATM   10  O   UNL     1     -10.514  10.246  69.055  1.00  0.00    -0.191 OA 
BRANCH  10  11
HETATM   11  C   UNL     1      -9.232  10.683  68.809  1.00  0.00    -0.180 C  
HETATM   12  C   UNL     1      -9.202  11.442  67.435  1.00  0.00    -0.164 C  
HETATM   13  O   UNL     1      -8.284  10.513  69.567  1.00  0.00    -0.151 OA 
HETATM   14  C   UNL     1      -7.861  11.138  66.725  1.00  0.00    -0.153 A  
HETATM   15  O   UNL     1     -10.235  10.930  66.581  1.00  0.00    -0.218 OA 
HETATM   16  C   UNL     1      -9.483  12.971  67.720  1.00  0.00    -0.209 C  
HETATM   17  C   UNL     1      -9.396  13.904  66.493  1.00  0.00    -0.264 C  
HETATM   18  C   UNL     1      -7.757  10.067  65.811  1.00  0.00    -0.122 A  
HETATM   19  H   UNL     1     -10.217  11.389  65.749  1.00  0.00     0.000 HD 
HETATM   20  C   UNL     1     -10.590  13.795  65.548  1.00  0.00    -0.312 C  
HETATM   21  C   UNL     1      -6.553   9.765  65.163  1.00  0.00    -0.100 A  
HETATM   22  C   UNL     1      -5.417  10.524  65.419  1.00  0.00    -0.127 A  
HETATM   23  C   UNL     1     -11.915  14.042  66.261  1.00  0.00    -0.454 C  
HETATM   24  C   UNL     1     -12.069  13.209  67.523  1.00  0.00    -0.300 C  
HETATM   25  C   UNL     1      -5.482  11.569  66.335  1.00  0.00    -0.078 A  
HETATM   26  C   UNL     1      -6.686  11.866  66.990  1.00  0.00    -0.119 A  
HETATM   27  C   UNL     1     -10.834  13.278  68.411  1.00  0.00    -0.279 C  
ENDBRANCH  10  11
ENDBRANCH   9  10
ENDBRANCH   8   9
TORSDOF 3
ENDMDL
MODEL      134
REMARK 921   NORMALIZED FREE ENERGY PREDICTED BY IDOCK:   -4.43 KCAL/MOL
REMARK 922        TOTAL FREE ENERGY PREDICTED BY IDOCK:   -5.65 KCAL/MOL
REMARK 923 INTER-LIGAND FREE ENERGY PREDICTED BY IDOCK:   -5.27 KCAL/MOL
REMARK 924 INTRA-LIGAND FREE ENERGY PREDICTED BY IDOCK:   -0.38 KCAL/MOL
REMARK 927      BINDING AFFINITY PREDICTED BY RF-SCORE:    0.00 PKD
ROOT
HETATM    1  C   UNL     1      -7.148   3.874  65.419  1.00  0.00    -0.063 C  
HETATM    2  N   UNL     1      -8.415   3.511  64.805  1.00  0.00    -0.100 NA 
HETATM    3  C   UNL     1      -8.351   2.429  63.840  1.00  0.00    -0.082 C  
HETATM    4  C   UNL     1      -9.675   2.028  63.230  1.00  0.00    -0.104 C  
HETATM    5  C   UNL     1     -10.889   2.869  63.550  1.00  0.00    -0.194 C  
HETATM    6  N   UNL     1     -10.705   3.968  64.475  1.00  0.00    -0.582 NA 
HETATM    7  H   UNL     1     -11.503   4.563  64.694  1.00  0.00     0.000 HD 
HETATM    8  C   UNL     1      -9.577   4.223  65.027  1.00  0.00    -0.177 C  
ENDROOT
BRANCH   8   9
HETATM    9  C   UNL     1      -9.537   5.453  65.995  1.00  0.00    -0.131 C  
BRANCH   9  10
HETATM   10  O   UNL     1     -10.297   5.391  67.198  1.00  0.00    -0.205 OA 
BRANCH  10  11
HETATM   11  C   UNL     1     -10.435   6.585  67.870  1.00  0.00    -0.222 C  
HETATM   12  C   UNL     1     -10.056   6.373  69.379  1.00  0.00    -0.173 C  
HETATM   13  O   UNL     1     -10.780   7.639  67.348  1.00  0.00    -0.281 OA 
HETATM   14  C   UNL     1     -10.984   7.249  70.255  1.00  0.00    -0.281 A  
HETATM   15  O   UNL     1     -10.316   5.013  69.753  1.00  0.00    -0.277 OA 
HETATM   16  C   UNL     1      -8.511   6.663  69.536  1.00  0.00    -0.132 C  
HETATM   17  C   UNL     1      -7.965   6.602  70.979  1.00  0.00    -0.107 C  
HETATM   18  C   UNL     1     -12.186   6.724  70.779  1.00  0.00    -0.353 A  
HETATM   19  H   UNL     1     -10.087   4.884  70.666  1.00  0.00     0.000 HD 
HETATM   20  C   UNL     1      -7.819   5.184  71.525  1.00  0.00    -0.111 C  
HETATM   21  C   UNL     1     -13.047   7.498  71.566  1.00  0.00    -0.402 A  
HETATM   22  C   UNL     1     -12.732   8.823  71.843  1.00  0.00    -0.427 A  
HETATM   23  C   UNL     1      -6.949   4.307  70.632  1.00  0.00    -0.037 C  
HETATM   24  C   UNL     1      -7.371   4.349  69.173  1.00  0.00    -0.055 C  
HETATM   25  C   UNL     1     -11.568   9.376  71.319  1.00  0.00    -0.434 A  
HETATM   26  C   UNL     1     -10.710   8.602  70.525  1.00  0.00    -0.252 A  
HETATM   27  C   UNL     1      -7.581   5.773  68.676  1.00  0.00    -0.089 C  
ENDBRANCH  10  11
ENDBRANCH   9  10
ENDBRANCH   8   9
TORSDOF 3
ENDMDL
MODEL      135
REMARK 921   NORMALIZED FREE ENERGY PREDICTED BY IDOCK:   -4.42 KCAL/MOL
REMARK 922        TOTAL FREE ENERGY PREDICTED BY IDOCK:   -5.64 KCAL/MOL
REMARK 923 INTER-LIGAND FREE ENERGY PREDICTED BY IDOCK:   -5.18 KCAL/MOL
REMARK 924 INTRA-LIGAND FREE ENERGY PREDICTED BY IDOCK:   -0.46 KCAL/MOL
REMARK 927      BINDING AFFINITY PREDICTED BY RF-SCORE:    0.00 PKD
ROOT
HETATM    1  C   UNL     1     -12.144   7.403  71.973  1.00  0.00    -0.289 C  
HETATM    2  N   UNL     1     -11.318   6.211  71.866  1.00  0.00    -0.286 NA 
HETATM    3  C   UNL     1     -10.935   5.605  73.127  1.00  0.00    -0.285 C  
HETATM    4  C   UNL     1     -10.107   4.344  73.013  1.00  0.00    -0.206 C  
HETATM    5  C   UNL     1      -9.631   3.929  71.640  1.00  0.00    -0.162 C  
HETATM    6  N   UNL     1     -10.060   4.739  70.520  1.00  0.00    -0.235 NA 
HETATM    7  H   UNL     1      -9.739   4.491  69.584  1.00  0.00     0.000 HD 
HETATM    8  C   UNL     1     -10.827   5.756  70.658  1.00  0.00    -0.267 C  
ENDROOT
BRANCH   8   9
HETATM    9  C   UNL     1     -11.191   6.537  69.351  1.00  0.00    -0.356 C  
BRANCH   9  10
HETATM   10  O   UNL     1     -10.500   7.752  69.075  1.00  0.00    -0.216 OA 
BRANCH  10  11
HETATM   11  C   UNL     1      -9.233   7.605  68.557  1.00  0.00    -0.143 C  
HETATM   12  C   UNL     1      -9.209   8.162  67.090  1.00  0.00    -0.145 C  
HETATM   13  O   UNL     1      -8.284   7.130  69.171  1.00  0.00    -0.119 OA 
HETATM   14  C   UNL     1      -8.270   7.277  66.235  1.00  0.00    -0.123 A  
HETATM   15  O   UNL     1     -10.515   8.043  66.510  1.00  0.00    -0.455 OA 
HETATM   16  C   UNL     1      -8.815   9.691  67.159  1.00  0.00    -0.141 C  
HETATM   17  C   UNL     1      -8.641  10.396  65.797  1.00  0.00    -0.172 C  
HETATM   18  C   UNL     1      -8.782   6.182  65.505  1.00  0.00    -0.105 A  
HETATM   19  H   UNL     1     -10.500   8.380  65.621  1.00  0.00     0.000 HD 
HETATM   20  C   UNL     1      -9.958  10.702  65.087  1.00  0.00    -0.366 C  
HETATM   21  C   UNL     1      -7.953   5.360  64.732  1.00  0.00    -0.110 A  
HETATM   22  C   UNL     1      -6.587   5.608  64.674  1.00  0.00    -0.045 A  
HETATM   23  C   UNL     1     -10.903  11.529  65.952  1.00  0.00    -0.316 C  
HETATM   24  C   UNL     1     -11.091  10.945  67.343  1.00  0.00    -0.373 C  
HETATM   25  C   UNL     1      -6.050   6.665  65.402  1.00  0.00    -0.038 A  
HETATM   26  C   UNL     1      -6.879   7.483  66.183  1.00  0.00    -0.061 A  
HETATM   27  C   UNL     1      -9.764  10.581  67.997  1.00  0.00    -0.162 C  
ENDBRANCH  10  11
ENDBRANCH   9  10
ENDBRANCH   8   9
TORSDOF 3
ENDMDL
MODEL      136
REMARK 921   NORMALIZED FREE ENERGY PREDICTED BY IDOCK:   -4.39 KCAL/MOL
REMARK 922        TOTAL FREE ENERGY PREDICTED BY IDOCK:   -5.60 KCAL/MOL
REMARK 923 INTER-LIGAND FREE ENERGY PREDICTED BY IDOCK:   -4.68 KCAL/MOL
REMARK 924 INTRA-LIGAND FREE ENERGY PREDICTED BY IDOCK:   -0.93 KCAL/MOL
REMARK 927      BINDING AFFINITY PREDICTED BY RF-SCORE:    0.00 PKD
ROOT
HETATM    1  C   UNL     1      -5.971  12.667  69.504  1.00  0.00    -0.113 C  
HETATM    2  N   UNL     1      -5.794  11.227  69.591  1.00  0.00    -0.069 NA 
HETATM    3  C   UNL     1      -5.292  10.738  70.861  1.00  0.00    -0.107 C  
HETATM    4  C   UNL     1      -5.143   9.236  70.963  1.00  0.00    -0.030 C  
HETATM    5  C   UNL     1      -5.372   8.414  69.716  1.00  0.00    -0.029 C  
HETATM    6  N   UNL     1      -5.782   9.125  68.523  1.00  0.00    -0.041 NA 
HETATM    7  H   UNL     1      -5.926   8.597  67.663  1.00  0.00     0.000 HD 
HETATM    8  C   UNL     1      -5.970  10.392  68.506  1.00  0.00    -0.043 C  
ENDROOT
BRANCH   8   9
HETATM    9  C   UNL     1      -6.401  11.014  67.135  1.00  0.00    -0.076 C  
BRANCH   9  10
HETATM   10  O   UNL     1      -7.792  11.119  66.848  1.00  0.00    -0.137 OA 
BRANCH  10  11
HETATM   11  C   UNL     1      -8.570  10.084  67.315  1.00  0.00    -0.125 C  
HETATM   12  C   UNL     1      -9.558  10.634  68.405  1.00  0.00    -0.168 C  
HETATM   13  O   UNL     1      -8.500   8.928  66.913  1.00  0.00    -0.111 OA 
HETATM   14  C   UNL     1      -9.734   9.561  69.505  1.00  0.00    -0.201 A  
HETATM   15  O   UNL     1      -8.977  11.778  69.045  1.00  0.00    -0.380 OA 
HETATM   16  C   UNL     1     -10.889  11.074  67.674  1.00  0.00    -0.306 C  
HETATM   17  C   UNL     1     -12.028  11.554  68.598  1.00  0.00    -0.312 C  
HETATM   18  C   UNL     1      -8.915   9.569  70.655  1.00  0.00    -0.226 A  
HETATM   19  H   UNL     1      -9.575  12.111  69.705  1.00  0.00     0.000 HD 
HETATM   20  C   UNL     1     -11.808  12.950  69.177  1.00  0.00    -0.353 C  
HETATM   21  C   UNL     1      -9.047   8.604  71.662  1.00  0.00    -0.318 A  
HETATM   22  C   UNL     1     -10.000   7.600  71.540  1.00  0.00    -0.200 A  
HETATM   23  C   UNL     1     -11.580  13.997  68.091  1.00  0.00    -0.369 C  
HETATM   24  C   UNL     1     -10.513  13.585  67.090  1.00  0.00    -0.256 C  
HETATM   25  C   UNL     1     -10.805   7.551  70.407  1.00  0.00    -0.255 A  
HETATM   26  C   UNL     1     -10.666   8.513  69.395  1.00  0.00    -0.166 A  
HETATM   27  C   UNL     1     -10.716  12.163  66.586  1.00  0.00    -0.281 C  
ENDBRANCH  10  11
ENDBRANCH   9  10
ENDBRANCH   8   9
TORSDOF 3
ENDMDL
MODEL      137
REMARK 921   NORMALIZED FREE ENERGY PREDICTED BY IDOCK:   -4.38 KCAL/MOL
REMARK 922        TOTAL FREE ENERGY PREDICTED BY IDOCK:   -5.59 KCAL/MOL
REMARK 923 INTER-LIGAND FREE ENERGY PREDICTED BY IDOCK:   -5.22 KCAL/MOL
REMARK 924 INTRA-LIGAND FREE ENERGY PREDICTED BY IDOCK:   -0.37 KCAL/MOL
REMARK 927      BINDING AFFINITY PREDICTED BY RF-SCORE:    0.00 PKD
ROOT
HETATM    1  C   UNL     1      -5.570   9.283  67.705  1.00  0.00    -0.038 C  
HETATM    2  N   UNL     1      -5.935   9.288  66.297  1.00  0.00    -0.058 NA 
HETATM    3  C   UNL     1      -5.184   8.374  65.458  1.00  0.00    -0.031 C  
HETATM    4  C   UNL     1      -5.590   8.352  64.001  1.00  0.00    -0.061 C  
HETATM    5  C   UNL     1      -6.603   9.370  63.531  1.00  0.00    -0.095 C  
HETATM    6  N   UNL     1      -7.161  10.255  64.531  1.00  0.00    -0.262 NA 
HETATM    7  H   UNL     1      -7.834  10.963  64.238  1.00  0.00     0.000 HD 
HETATM    8  C   UNL     1      -6.843  10.184  65.770  1.00  0.00    -0.118 C  
ENDROOT
BRANCH   8   9
HETATM    9  C   UNL     1      -7.525  11.220  66.725  1.00  0.00    -0.146 C  
BRANCH   9  10
HETATM   10  O   UNL     1      -8.948  11.254  66.780  1.00  0.00    -0.161 OA 
BRANCH  10  11
HETATM   11  C   UNL     1      -9.540  10.179  67.403  1.00  0.00    -0.154 C  
HETATM   12  C   UNL     1     -10.110  10.638  68.792  1.00  0.00    -0.191 C  
HETATM   13  O   UNL     1      -9.618   9.054  66.921  1.00  0.00    -0.160 OA 
HETATM   14  C   UNL     1      -9.925   9.489  69.812  1.00  0.00    -0.234 A  
HETATM   15  O   UNL     1      -9.339  11.743  69.285  1.00  0.00    -0.333 OA 
HETATM   16  C   UNL     1     -11.602  11.110  68.572  1.00  0.00    -0.385 C  
HETATM   17  C   UNL     1     -12.370  11.509  69.850  1.00  0.00    -0.247 C  
HETATM   18  C   UNL     1      -8.773   9.428  70.627  1.00  0.00    -0.263 A  
HETATM   19  H   UNL     1      -9.683  12.021  70.126  1.00  0.00     0.000 HD 
HETATM   20  C   UNL     1     -11.958  12.864  70.421  1.00  0.00    -0.329 C  
HETATM   21  C   UNL     1      -8.577   8.394  71.551  1.00  0.00    -0.215 A  
HETATM   22  C   UNL     1      -9.527   7.388  71.679  1.00  0.00    -0.163 A  
HETATM   23  C   UNL     1     -12.089  13.986  69.396  1.00  0.00    -0.386 C  
HETATM   24  C   UNL     1     -11.414  13.660  68.074  1.00  0.00    -0.345 C  
HETATM   25  C   UNL     1     -10.660   7.407  70.872  1.00  0.00    -0.234 A  
HETATM   26  C   UNL     1     -10.852   8.438  69.941  1.00  0.00    -0.207 A  
HETATM   27  C   UNL     1     -11.786  12.273  67.567  1.00  0.00    -0.402 C  
ENDBRANCH  10  11
ENDBRANCH   9  10
ENDBRANCH   8   9
TORSDOF 3
ENDMDL
MODEL      138
REMARK 921   NORMALIZED FREE ENERGY PREDICTED BY IDOCK:   -4.38 KCAL/MOL
REMARK 922        TOTAL FREE ENERGY PREDICTED BY IDOCK:   -5.59 KCAL/MOL
REMARK 923 INTER-LIGAND FREE ENERGY PREDICTED BY IDOCK:   -4.77 KCAL/MOL
REMARK 924 INTRA-LIGAND FREE ENERGY PREDICTED BY IDOCK:   -0.82 KCAL/MOL
REMARK 927      BINDING AFFINITY PREDICTED BY RF-SCORE:    0.00 PKD
ROOT
HETATM    1  C   UNL     1      -5.794  11.674  67.235  1.00  0.00    -0.111 C  
HETATM    2  N   UNL     1      -5.969  12.586  68.355  1.00  0.00    -0.055 NA 
HETATM    3  C   UNL     1      -5.140  12.313  69.513  1.00  0.00    -0.070 C  
HETATM    4  C   UNL     1      -5.296  13.284  70.662  1.00  0.00    -0.146 C  
HETATM    5  C   UNL     1      -6.385  14.327  70.568  1.00  0.00    -0.108 C  
HETATM    6  N   UNL     1      -7.162  14.361  69.346  1.00  0.00    -0.260 NA 
HETATM    7  H   UNL     1      -7.914  15.044  69.263  1.00  0.00     0.000 HD 
HETATM    8  C   UNL     1      -6.941  13.566  68.367  1.00  0.00    -0.105 C  
ENDROOT
BRANCH   8   9
HETATM    9  C   UNL     1      -7.876  13.720  67.120  1.00  0.00    -0.008 C  
BRANCH   9  10
HETATM   10  O   UNL     1      -8.606  14.934  66.969  1.00  0.00    -0.212 OA 
BRANCH  10  11
HETATM   11  C   UNL     1      -9.894  14.912  67.453  1.00  0.00    -0.221 C  
HETATM   12  C   UNL     1     -10.142  16.198  68.318  1.00  0.00    -0.232 C  
HETATM   13  O   UNL     1     -10.709  14.027  67.215  1.00  0.00    -0.274 OA 
HETATM   14  C   UNL     1     -11.054  15.830  69.512  1.00  0.00    -0.306 A  
HETATM   15  O   UNL     1      -8.900  16.644  68.881  1.00  0.00    -0.250 OA 
HETATM   16  C   UNL     1     -10.705  17.324  67.362  1.00  0.00    -0.247 C  
HETATM   17  C   UNL     1     -11.107  18.645  68.052  1.00  0.00     0.208 C  
HETATM   18  C   UNL     1     -10.497  15.450  70.753  1.00  0.00     0.038 A  
HETATM   19  H   UNL     1      -9.050  17.422  69.405  1.00  0.00     0.000 HD 
HETATM   20  C   UNL     1      -9.919  19.507  68.473  1.00  0.00    -0.538 C  
HETATM   21  C   UNL     1     -11.300  15.102  71.846  1.00  0.00    -0.381 A  
HETATM   22  C   UNL     1     -12.685  15.118  71.724  1.00  0.00    -0.423 A  
HETATM   23  C   UNL     1      -8.992  19.824  67.305  1.00  0.00    -0.403 C  
HETATM   24  C   UNL     1      -8.588  18.587  66.520  1.00  0.00    -0.289 C  
HETATM   25  C   UNL     1     -13.262  15.463  70.506  1.00  0.00    -0.254 A  
HETATM   26  C   UNL     1     -12.457  15.803  69.409  1.00  0.00     0.101 A  
HETATM   27  C   UNL     1      -9.784  17.708  66.178  1.00  0.00    -0.228 C  
ENDBRANCH  10  11
ENDBRANCH   9  10
ENDBRANCH   8   9
TORSDOF 3
ENDMDL
MODEL      139
REMARK 921   NORMALIZED FREE ENERGY PREDICTED BY IDOCK:   -4.36 KCAL/MOL
REMARK 922        TOTAL FREE ENERGY PREDICTED BY IDOCK:   -5.57 KCAL/MOL
REMARK 923 INTER-LIGAND FREE ENERGY PREDICTED BY IDOCK:   -4.92 KCAL/MOL
REMARK 924 INTRA-LIGAND FREE ENERGY PREDICTED BY IDOCK:   -0.65 KCAL/MOL
REMARK 927      BINDING AFFINITY PREDICTED BY RF-SCORE:    0.00 PKD
ROOT
HETATM    1  C   UNL     1     -13.244  11.398  71.881  1.00  0.00    -0.380 C  
HETATM    2  N   UNL     1     -12.608  10.160  71.462  1.00  0.00    -0.400 NA 
HETATM    3  C   UNL     1     -12.756   9.044  72.377  1.00  0.00    -0.363 C  
HETATM    4  C   UNL     1     -12.126   7.747  71.921  1.00  0.00    -0.341 C  
HETATM    5  C   UNL     1     -11.286   7.768  70.665  1.00  0.00    -0.268 C  
HETATM    6  N   UNL     1     -11.199   9.024  69.951  1.00  0.00    -0.411 NA 
HETATM    7  H   UNL     1     -10.624   9.071  69.110  1.00  0.00     0.000 HD 
HETATM    8  C   UNL     1     -11.815  10.080  70.334  1.00  0.00    -0.262 C  
ENDROOT
BRANCH   8   9
HETATM    9  C   UNL     1     -11.609  11.363  69.461  1.00  0.00    -0.331 C  
BRANCH   9  10
HETATM   10  O   UNL     1     -11.152  11.203  68.121  1.00  0.00    -0.222 OA 
BRANCH  10  11
HETATM   11  C   UNL     1     -10.134  12.047  67.741  1.00  0.00    -0.193 C  
HETATM   12  C   UNL     1      -8.794  11.233  67.655  1.00  0.00    -0.138 C  
HETATM   13  O   UNL     1     -10.278  13.239  67.492  1.00  0.00    -0.220 OA 
HETATM   14  C   UNL     1      -7.631  12.132  68.135  1.00  0.00    -0.125 A  
HETATM   15  O   UNL     1      -8.848  10.124  68.563  1.00  0.00    -0.119 OA 
HETATM   16  C   UNL     1      -8.656  10.683  66.179  1.00  0.00    -0.163 C  
HETATM   17  C   UNL     1      -7.343   9.933  65.869  1.00  0.00    -0.108 C  
HETATM   18  C   UNL     1      -7.220  12.116  69.486  1.00  0.00     0.283 A  
HETATM   19  H   UNL     1      -8.038   9.631  68.511  1.00  0.00     0.000 HD 
HETATM   20  C   UNL     1      -7.277   8.529  66.466  1.00  0.00    -0.080 C  
HETATM   21  C   UNL     1      -6.176  12.927  69.949  1.00  0.00    -0.086 A  
HETATM   22  C   UNL     1      -5.520  13.783  69.071  1.00  0.00    -0.076 A  
HETATM   23  C   UNL     1      -8.455   7.661  66.034  1.00  0.00    -0.149 C  
HETATM   24  C   UNL     1      -9.797   8.342  66.244  1.00  0.00    -0.227 C  
HETATM   25  C   UNL     1      -5.920  13.840  67.740  1.00  0.00    -0.124 A  
HETATM   26  C   UNL     1      -6.971  13.033  67.279  1.00  0.00    -0.047 A  
HETATM   27  C   UNL     1      -9.810   9.766  65.705  1.00  0.00    -0.371 C  
ENDBRANCH  10  11
ENDBRANCH   9  10
ENDBRANCH   8   9
TORSDOF 3
ENDMDL
MODEL      140
REMARK 921   NORMALIZED FREE ENERGY PREDICTED BY IDOCK:   -4.35 KCAL/MOL
REMARK 922        TOTAL FREE ENERGY PREDICTED BY IDOCK:   -5.57 KCAL/MOL
REMARK 923 INTER-LIGAND FREE ENERGY PREDICTED BY IDOCK:   -5.17 KCAL/MOL
REMARK 924 INTRA-LIGAND FREE ENERGY PREDICTED BY IDOCK:   -0.39 KCAL/MOL
REMARK 927      BINDING AFFINITY PREDICTED BY RF-SCORE:    0.00 PKD
ROOT
HETATM    1  C   UNL     1      -9.287   3.040  68.184  1.00  0.00    -0.198 C  
HETATM    2  N   UNL     1      -9.523   3.354  66.783  1.00  0.00    -0.175 NA 
HETATM    3  C   UNL     1      -8.863   2.481  65.832  1.00  0.00    -0.131 C  
HETATM    4  C   UNL     1      -9.139   2.785  64.376  1.00  0.00    -0.122 C  
HETATM    5  C   UNL     1      -9.927   4.033  64.048  1.00  0.00    -0.154 C  
HETATM    6  N   UNL     1     -10.417   4.815  65.164  1.00  0.00    -0.464 NA 
HETATM    7  H   UNL     1     -10.936   5.671  64.971  1.00  0.00     0.000 HD 
HETATM    8  C   UNL     1     -10.223   4.475  66.383  1.00  0.00    -0.217 C  
ENDROOT
BRANCH   8   9
HETATM    9  C   UNL     1     -10.805   5.433  67.476  1.00  0.00     0.093 C  
BRANCH   9  10
HETATM   10  O   UNL     1      -9.906   6.295  68.168  1.00  0.00    -0.124 OA 
BRANCH  10  11
HETATM   11  C   UNL     1     -10.348   7.586  68.348  1.00  0.00    -0.195 C  
HETATM   12  C   UNL     1      -9.847   8.112  69.740  1.00  0.00    -0.187 C  
HETATM   13  O   UNL     1     -11.008   8.214  67.528  1.00  0.00    -0.115 OA 
HETATM   14  C   UNL     1     -10.942   9.016  70.355  1.00  0.00    -0.283 A  
HETATM   15  O   UNL     1      -9.684   7.007  70.640  1.00  0.00    -0.172 OA 
HETATM   16  C   UNL     1      -8.445   8.807  69.519  1.00  0.00    -0.128 C  
HETATM   17  C   UNL     1      -7.832   9.479  70.766  1.00  0.00    -0.093 C  
HETATM   18  C   UNL     1     -11.912   8.478  71.229  1.00  0.00    -0.334 A  
HETATM   19  H   UNL     1      -9.381   7.325  71.482  1.00  0.00     0.000 HD 
HETATM   20  C   UNL     1      -7.255   8.493  71.779  1.00  0.00    -0.112 C  
HETATM   21  C   UNL     1     -12.919   9.272  71.792  1.00  0.00    -0.471 A  
HETATM   22  C   UNL     1     -12.986  10.627  71.488  1.00  0.00    -0.566 A  
HETATM   23  C   UNL     1      -6.215   7.567  71.157  1.00  0.00    -0.035 C  
HETATM   24  C   UNL     1      -6.706   6.902  69.882  1.00  0.00    -0.049 C  
HETATM   25  C   UNL     1     -12.060  11.180  70.611  1.00  0.00    -0.477 A  
HETATM   26  C   UNL     1     -11.056  10.383  70.041  1.00  0.00    -0.379 A  
HETATM   27  C   UNL     1      -7.343   7.898  68.922  1.00  0.00    -0.085 C  
ENDBRANCH  10  11
ENDBRANCH   9  10
ENDBRANCH   8   9
TORSDOF 3
ENDMDL
MODEL      141
REMARK 921   NORMALIZED FREE ENERGY PREDICTED BY IDOCK:   -4.35 KCAL/MOL
REMARK 922        TOTAL FREE ENERGY PREDICTED BY IDOCK:   -5.56 KCAL/MOL
REMARK 923 INTER-LIGAND FREE ENERGY PREDICTED BY IDOCK:   -4.92 KCAL/MOL
REMARK 924 INTRA-LIGAND FREE ENERGY PREDICTED BY IDOCK:   -0.64 KCAL/MOL
REMARK 927      BINDING AFFINITY PREDICTED BY RF-SCORE:    0.00 PKD
ROOT
HETATM    1  C   UNL     1      -9.917  12.400  65.335  1.00  0.00    -0.236 C  
HETATM    2  N   UNL     1     -10.166  13.445  66.315  1.00  0.00    -0.291 NA 
HETATM    3  C   UNL     1     -11.226  14.375  65.976  1.00  0.00    -0.333 C  
HETATM    4  C   UNL     1     -11.508  15.439  67.013  1.00  0.00    -0.103 C  
HETATM    5  C   UNL     1     -10.582  15.535  68.203  1.00  0.00    -0.266 C  
HETATM    6  N   UNL     1      -9.522  14.552  68.295  1.00  0.00    -0.201 NA 
HETATM    7  H   UNL     1      -8.872  14.604  69.078  1.00  0.00     0.000 HD 
HETATM    8  C   UNL     1      -9.370  13.619  67.430  1.00  0.00    -0.227 C  
ENDROOT
BRANCH   8   9
HETATM    9  C   UNL     1      -8.169  12.642  67.662  1.00  0.00    -0.174 C  
BRANCH   9  10
HETATM   10  O   UNL     1      -8.275  11.679  68.707  1.00  0.00    -0.134 OA 
BRANCH  10  11
HETATM   11  C   UNL     1      -8.154  10.365  68.311  1.00  0.00    -0.113 C  
HETATM   12  C   UNL     1      -8.730   9.434  69.437  1.00  0.00    -0.157 C  
HETATM   13  O   UNL     1      -7.687  10.005  67.237  1.00  0.00    -0.095 OA 
HETATM   14  C   UNL     1      -7.870   8.149  69.510  1.00  0.00    -0.104 A  
HETATM   15  O   UNL     1      -8.597  10.081  70.710  1.00  0.00    -0.327 OA 
HETATM   16  C   UNL     1     -10.264   9.202  69.136  1.00  0.00    -0.215 C  
HETATM   17  C   UNL     1     -10.988   8.224  70.085  1.00  0.00    -0.222 C  
HETATM   18  C   UNL     1      -6.776   8.066  70.398  1.00  0.00    -0.037 A  
HETATM   19  H   UNL     1      -8.945   9.518  71.391  1.00  0.00     0.000 HD 
HETATM   20  C   UNL     1     -11.282   8.806  71.466  1.00  0.00    -0.377 C  
HETATM   21  C   UNL     1      -5.976   6.919  70.477  1.00  0.00    -0.027 A  
HETATM   22  C   UNL     1      -6.247   5.825  69.662  1.00  0.00    -0.032 A  
HETATM   23  C   UNL     1     -12.083  10.102  71.388  1.00  0.00    -0.475 C  
HETATM   24  C   UNL     1     -11.479  11.111  70.426  1.00  0.00    -0.265 C  
HETATM   25  C   UNL     1      -7.303   5.888  68.759  1.00  0.00    -0.084 A  
HETATM   26  C   UNL     1      -8.098   7.040  68.675  1.00  0.00    -0.121 A  
HETATM   27  C   UNL     1     -11.128  10.485  69.082  1.00  0.00    -0.302 C  
ENDBRANCH  10  11
ENDBRANCH   9  10
ENDBRANCH   8   9
TORSDOF 3
ENDMDL
MODEL      142
REMARK 921   NORMALIZED FREE ENERGY PREDICTED BY IDOCK:   -4.29 KCAL/MOL
REMARK 922        TOTAL FREE ENERGY PREDICTED BY IDOCK:   -5.49 KCAL/MOL
REMARK 923 INTER-LIGAND FREE ENERGY PREDICTED BY IDOCK:   -5.00 KCAL/MOL
REMARK 924 INTRA-LIGAND FREE ENERGY PREDICTED BY IDOCK:   -0.49 KCAL/MOL
REMARK 927      BINDING AFFINITY PREDICTED BY RF-SCORE:    0.00 PKD
ROOT
HETATM    1  C   UNL     1      -9.746   8.712  70.584  1.00  0.00    -0.184 C  
HETATM    2  N   UNL     1     -10.984   9.323  71.041  1.00  0.00    -0.290 NA 
HETATM    3  C   UNL     1     -11.763   8.528  71.970  1.00  0.00    -0.362 C  
HETATM    4  C   UNL     1     -13.031   9.181  72.474  1.00  0.00    -0.416 C  
HETATM    5  C   UNL     1     -13.444  10.498  71.860  1.00  0.00    -0.256 C  
HETATM    6  N   UNL     1     -12.554  11.074  70.873  1.00  0.00    -0.377 NA 
HETATM    7  H   UNL     1     -12.817  11.954  70.430  1.00  0.00     0.000 HD 
HETATM    8  C   UNL     1     -11.450  10.520  70.534  1.00  0.00    -0.345 C  
ENDROOT
BRANCH   8   9
HETATM    9  C   UNL     1     -10.605  11.261  69.444  1.00  0.00    -0.099 C  
BRANCH   9  10
HETATM   10  O   UNL     1     -11.225  11.560  68.196  1.00  0.00    -0.229 OA 
BRANCH  10  11
HETATM   11  C   UNL     1     -11.428  12.898  67.945  1.00  0.00    -0.318 C  
HETATM   12  C   UNL     1     -10.569  13.325  66.702  1.00  0.00    -0.281 C  
HETATM   13  O   UNL     1     -12.182  13.618  68.590  1.00  0.00    -0.339 OA 
HETATM   14  C   UNL     1     -10.045  14.763  66.927  1.00  0.00    -0.246 A  
HETATM   15  O   UNL     1      -9.411  12.484  66.608  1.00  0.00    -0.227 OA 
HETATM   16  C   UNL     1     -11.455  13.125  65.409  1.00  0.00    -0.331 C  
HETATM   17  C   UNL     1     -10.813  13.588  64.084  1.00  0.00    -0.250 C  
HETATM   18  C   UNL     1      -8.780  14.984  67.517  1.00  0.00    -0.194 A  
HETATM   19  H   UNL     1      -8.890  12.742  65.856  1.00  0.00     0.000 HD 
HETATM   20  C   UNL     1      -9.728  12.649  63.562  1.00  0.00     0.598 C  
HETATM   21  C   UNL     1      -8.287  16.276  67.740  1.00  0.00    -0.169 A  
HETATM   22  C   UNL     1      -9.050  17.382  67.386  1.00  0.00    -0.236 A  
HETATM   23  C   UNL     1     -10.232  11.220  63.393  1.00  0.00    -0.454 C  
HETATM   24  C   UNL     1     -10.939  10.693  64.631  1.00  0.00     0.333 C  
HETATM   25  C   UNL     1     -10.310  17.196  66.826  1.00  0.00    -0.302 A  
HETATM   26  C   UNL     1     -10.807  15.902  66.610  1.00  0.00    -0.213 A  
HETATM   27  C   UNL     1     -11.963  11.682  65.172  1.00  0.00     0.187 C  
ENDBRANCH  10  11
ENDBRANCH   9  10
ENDBRANCH   8   9
TORSDOF 3
ENDMDL
MODEL      143
REMARK 921   NORMALIZED FREE ENERGY PREDICTED BY IDOCK:   -4.28 KCAL/MOL
REMARK 922        TOTAL FREE ENERGY PREDICTED BY IDOCK:   -5.48 KCAL/MOL
REMARK 923 INTER-LIGAND FREE ENERGY PREDICTED BY IDOCK:   -4.93 KCAL/MOL
REMARK 924 INTRA-LIGAND FREE ENERGY PREDICTED BY IDOCK:   -0.55 KCAL/MOL
REMARK 927      BINDING AFFINITY PREDICTED BY RF-SCORE:    0.00 PKD
ROOT
HETATM    1  C   UNL     1     -12.646   7.331  71.411  1.00  0.00    -0.388 C  
HETATM    2  N   UNL     1     -11.259   7.058  71.753  1.00  0.00    -0.240 NA 
HETATM    3  C   UNL     1     -11.005   6.801  73.158  1.00  0.00    -0.246 C  
HETATM    4  C   UNL     1      -9.568   6.481  73.506  1.00  0.00    -0.175 C  
HETATM    5  C   UNL     1      -8.527   6.610  72.418  1.00  0.00    -0.117 C  
HETATM    6  N   UNL     1      -8.996   6.972  71.097  1.00  0.00    -0.145 NA 
HETATM    7  H   UNL     1      -8.313   7.083  70.348  1.00  0.00     0.000 HD 
HETATM    8  C   UNL     1     -10.235   7.158  70.832  1.00  0.00    -0.197 C  
ENDROOT
BRANCH   8   9
HETATM    9  C   UNL     1     -10.581   7.557  69.358  1.00  0.00    -0.223 C  
BRANCH   9  10
HETATM   10  O   UNL     1     -10.078   8.792  68.856  1.00  0.00    -0.187 OA 
BRANCH  10  11
HETATM   11  C   UNL     1     -10.064   8.909  67.485  1.00  0.00    -0.227 C  
HETATM   12  C   UNL     1      -8.920   9.900  67.064  1.00  0.00    -0.138 C  
HETATM   13  O   UNL     1     -10.820   8.309  66.730  1.00  0.00    -0.188 OA 
HETATM   14  C   UNL     1      -9.398  10.725  65.846  1.00  0.00    -0.220 A  
HETATM   15  O   UNL     1      -8.688  10.841  68.122  1.00  0.00    -0.122 OA 
HETATM   16  C   UNL     1      -7.606   9.054  66.832  1.00  0.00    -0.094 C  
HETATM   17  C   UNL     1      -6.387   9.845  66.313  1.00  0.00    -0.072 C  
HETATM   18  C   UNL     1     -10.026  11.978  66.026  1.00  0.00    -0.258 A  
HETATM   19  H   UNL     1      -7.997  11.441  67.868  1.00  0.00     0.000 HD 
HETATM   20  C   UNL     1      -5.717  10.713  67.375  1.00  0.00    -0.044 C  
HETATM   21  C   UNL     1     -10.476  12.740  64.940  1.00  0.00    -0.342 A  
HETATM   22  C   UNL     1     -10.315  12.264  63.644  1.00  0.00    -0.463 A  
HETATM   23  C   UNL     1      -5.296   9.907  68.599  1.00  0.00    -0.036 C  
HETATM   24  C   UNL     1      -6.418   9.042  69.150  1.00  0.00    -0.043 C  
HETATM   25  C   UNL     1      -9.723  11.023  63.436  1.00  0.00    -0.383 A  
HETATM   26  C   UNL     1      -9.281  10.257  64.524  1.00  0.00    -0.295 A  
HETATM   27  C   UNL     1      -7.117   8.244  68.057  1.00  0.00    -0.086 C  
ENDBRANCH  10  11
ENDBRANCH   9  10
ENDBRANCH   8   9
TORSDOF 3
ENDMDL
MODEL      144
REMARK 921   NORMALIZED FREE ENERGY PREDICTED BY IDOCK:   -4.26 KCAL/MOL
REMARK 922        TOTAL FREE ENERGY PREDICTED BY IDOCK:   -5.46 KCAL/MOL
REMARK 923 INTER-LIGAND FREE ENERGY PREDICTED BY IDOCK:   -5.05 KCAL/MOL
REMARK 924 INTRA-LIGAND FREE ENERGY PREDICTED BY IDOCK:   -0.41 KCAL/MOL
REMARK 927      BINDING AFFINITY PREDICTED BY RF-SCORE:    0.00 PKD
ROOT
HETATM    1  C   UNL     1      -9.396   5.892  70.066  1.00  0.00    -0.148 C  
HETATM    2  N   UNL     1     -10.389   6.782  70.645  1.00  0.00    -0.199 NA 
HETATM    3  C   UNL     1     -11.629   6.149  71.052  1.00  0.00    -0.191 C  
HETATM    4  C   UNL     1     -12.646   7.069  71.689  1.00  0.00    -0.419 C  
HETATM    5  C   UNL     1     -12.354   8.552  71.699  1.00  0.00    -0.326 C  
HETATM    6  N   UNL     1     -11.083   8.978  71.152  1.00  0.00    -0.275 NA 
HETATM    7  H   UNL     1     -10.868   9.974  71.130  1.00  0.00     0.000 HD 
HETATM    8  C   UNL     1     -10.219   8.151  70.693  1.00  0.00    -0.196 C  
ENDROOT
BRANCH   8   9
HETATM    9  C   UNL     1      -8.898   8.770  70.123  1.00  0.00    -0.154 C  
BRANCH   9  10
HETATM   10  O   UNL     1      -8.833   9.058  68.730  1.00  0.00    -0.135 OA 
BRANCH  10  11
HETATM   11  C   UNL     1      -9.541  10.166  68.323  1.00  0.00    -0.141 C  
HETATM   12  C   UNL     1      -8.893  10.739  67.012  1.00  0.00    -0.135 C  
HETATM   13  O   UNL     1     -10.531  10.606  68.898  1.00  0.00    -0.187 OA 
HETATM   14  C   UNL     1      -8.983  12.283  67.045  1.00  0.00    -0.204 A  
HETATM   15  O   UNL     1      -7.496  10.416  66.987  1.00  0.00    -0.094 OA 
HETATM   16  C   UNL     1      -9.602  10.049  65.780  1.00  0.00    -0.291 C  
HETATM   17  C   UNL     1      -9.167  10.558  64.390  1.00  0.00    -0.281 C  
HETATM   18  C   UNL     1      -7.920  13.055  67.565  1.00  0.00    -0.177 A  
HETATM   19  H   UNL     1      -7.104  10.763  66.194  1.00  0.00     0.000 HD 
HETATM   20  C   UNL     1      -7.789  10.065  63.955  1.00  0.00    -0.150 C  
HETATM   21  C   UNL     1      -7.980  14.453  67.615  1.00  0.00    -0.191 A  
HETATM   22  C   UNL     1      -9.109  15.117  67.151  1.00  0.00    -0.226 A  
HETATM   23  C   UNL     1      -7.687   8.544  63.976  1.00  0.00    -0.137 C  
HETATM   24  C   UNL     1      -8.155   7.940  65.290  1.00  0.00    -0.135 C  
HETATM   25  C   UNL     1     -10.182  14.383  66.656  1.00  0.00    -0.277 A  
HETATM   26  C   UNL     1     -10.125  12.982  66.614  1.00  0.00    -0.251 A  
HETATM   27  C   UNL     1      -9.496   8.505  65.736  1.00  0.00    -0.134 C  
ENDBRANCH  10  11
ENDBRANCH   9  10
ENDBRANCH   8   9
TORSDOF 3
ENDMDL
MODEL      145
REMARK 921   NORMALIZED FREE ENERGY PREDICTED BY IDOCK:   -4.23 KCAL/MOL
REMARK 922        TOTAL FREE ENERGY PREDICTED BY IDOCK:   -5.42 KCAL/MOL
REMARK 923 INTER-LIGAND FREE ENERGY PREDICTED BY IDOCK:   -4.58 KCAL/MOL
REMARK 924 INTRA-LIGAND FREE ENERGY PREDICTED BY IDOCK:   -0.84 KCAL/MOL
REMARK 927      BINDING AFFINITY PREDICTED BY RF-SCORE:    0.00 PKD
ROOT
HETATM    1  C   UNL     1      -9.953  10.706  62.486  1.00  0.00     0.102 C  
HETATM    2  N   UNL     1     -10.573  11.248  63.684  1.00  0.00    -0.384 NA 
HETATM    3  C   UNL     1     -11.567  12.280  63.456  1.00  0.00    -0.486 C  
HETATM    4  C   UNL     1     -12.239  12.816  64.701  1.00  0.00    -0.510 C  
HETATM    5  C   UNL     1     -11.717  12.358  66.043  1.00  0.00    -0.410 C  
HETATM    6  N   UNL     1     -10.646  11.382  66.036  1.00  0.00    -0.261 NA 
HETATM    7  H   UNL     1     -10.264  11.069  66.928  1.00  0.00     0.000 HD 
HETATM    8  C   UNL     1     -10.161  10.898  64.954  1.00  0.00    -0.316 C  
ENDROOT
BRANCH   8   9
HETATM    9  C   UNL     1      -8.998   9.862  65.114  1.00  0.00    -0.198 C  
BRANCH   9  10
HETATM   10  O   UNL     1      -8.816   9.242  66.383  1.00  0.00    -0.137 OA 
BRANCH  10  11
HETATM   11  C   UNL     1      -7.696   9.640  67.078  1.00  0.00    -0.095 C  
HETATM   12  C   UNL     1      -8.102   9.986  68.555  1.00  0.00    -0.103 C  
HETATM   13  O   UNL     1      -6.566   9.689  66.604  1.00  0.00    -0.069 OA 
HETATM   14  C   UNL     1      -7.256  11.188  69.037  1.00  0.00    -0.118 A  
HETATM   15  O   UNL     1      -9.470  10.417  68.587  1.00  0.00    -0.152 OA 
HETATM   16  C   UNL     1      -7.957   8.671  69.418  1.00  0.00    -0.102 C  
HETATM   17  C   UNL     1      -8.220   8.834  70.930  1.00  0.00    -0.189 C  
HETATM   18  C   UNL     1      -7.736  12.509  68.898  1.00  0.00     0.085 A  
HETATM   19  H   UNL     1      -9.716  10.627  69.481  1.00  0.00     0.000 HD 
HETATM   20  C   UNL     1      -9.697   8.983  71.289  1.00  0.00    -0.371 C  
HETATM   21  C   UNL     1      -6.986  13.615  69.318  1.00  0.00    -0.025 A  
HETATM   22  C   UNL     1      -5.729  13.428  69.881  1.00  0.00    -0.119 A  
HETATM   23  C   UNL     1     -10.538   7.824  70.765  1.00  0.00    -0.220 C  
HETATM   24  C   UNL     1     -10.302   7.543  69.290  1.00  0.00    -0.209 C  
HETATM   25  C   UNL     1      -5.218  12.140  70.008  1.00  0.00    -0.089 A  
HETATM   26  C   UNL     1      -5.967  11.034  69.580  1.00  0.00    -0.070 A  
HETATM   27  C   UNL     1      -8.820   7.474  68.949  1.00  0.00    -0.135 C  
ENDBRANCH  10  11
ENDBRANCH   9  10
ENDBRANCH   8   9
TORSDOF 3
ENDMDL
MODEL      146
REMARK 921   NORMALIZED FREE ENERGY PREDICTED BY IDOCK:   -4.23 KCAL/MOL
REMARK 922        TOTAL FREE ENERGY PREDICTED BY IDOCK:   -5.42 KCAL/MOL
REMARK 923 INTER-LIGAND FREE ENERGY PREDICTED BY IDOCK:   -4.93 KCAL/MOL
REMARK 924 INTRA-LIGAND FREE ENERGY PREDICTED BY IDOCK:   -0.48 KCAL/MOL
REMARK 927      BINDING AFFINITY PREDICTED BY RF-SCORE:    0.00 PKD
ROOT
HETATM    1  C   UNL     1      -9.685   4.117  66.512  1.00  0.00    -0.209 C  
HETATM    2  N   UNL     1      -9.654   4.137  67.966  1.00  0.00    -0.162 NA 
HETATM    3  C   UNL     1      -9.282   2.885  68.597  1.00  0.00    -0.173 C  
HETATM    4  C   UNL     1      -9.214   2.919  70.107  1.00  0.00    -0.207 C  
HETATM    5  C   UNL     1      -9.680   4.171  70.812  1.00  0.00    -0.196 C  
HETATM    6  N   UNL     1     -10.100   5.279  69.980  1.00  0.00    -0.243 NA 
HETATM    7  H   UNL     1     -10.436   6.130  70.429  1.00  0.00     0.000 HD 
HETATM    8  C   UNL     1     -10.067   5.231  68.700  1.00  0.00    -0.168 C  
ENDROOT
BRANCH   8   9
HETATM    9  C   UNL     1     -10.567   6.506  67.942  1.00  0.00    -0.252 C  
BRANCH   9  10
HETATM   10  O   UNL     1      -9.610   7.501  67.588  1.00  0.00    -0.138 OA 
BRANCH  10  11
HETATM   11  C   UNL     1     -10.089   8.790  67.544  1.00  0.00    -0.222 C  
HETATM   12  C   UNL     1      -9.419   9.628  68.690  1.00  0.00    -0.146 C  
HETATM   13  O   UNL     1     -10.895   9.203  66.718  1.00  0.00    -0.109 OA 
HETATM   14  C   UNL     1     -10.458  10.628  69.252  1.00  0.00    -0.252 A  
HETATM   15  O   UNL     1      -9.066   8.760  69.775  1.00  0.00    -0.145 OA 
HETATM   16  C   UNL     1      -8.103  10.282  68.106  1.00  0.00    -0.110 C  
HETATM   17  C   UNL     1      -7.350  11.231  69.062  1.00  0.00    -0.115 C  
HETATM   18  C   UNL     1     -11.259  10.284  70.363  1.00  0.00    -0.407 A  
HETATM   19  H   UNL     1      -8.660   9.267  70.469  1.00  0.00     0.000 HD 
HETATM   20  C   UNL     1      -6.580  10.512  70.167  1.00  0.00    -0.149 C  
HETATM   21  C   UNL     1     -12.213  11.166  70.885  1.00  0.00    -0.468 A  
HETATM   22  C   UNL     1     -12.397  12.415  70.303  1.00  0.00    -0.264 A  
HETATM   23  C   UNL     1      -5.594   9.488  69.612  1.00  0.00    -0.033 C  
HETATM   24  C   UNL     1      -6.231   8.541  68.608  1.00  0.00    -0.046 C  
HETATM   25  C   UNL     1     -11.640  12.772  69.192  1.00  0.00    -0.373 A  
HETATM   26  C   UNL     1     -10.690  11.885  68.664  1.00  0.00    -0.266 A  
HETATM   27  C   UNL     1      -7.054   9.281  67.562  1.00  0.00    -0.079 C  
ENDBRANCH  10  11
ENDBRANCH   9  10
ENDBRANCH   8   9
TORSDOF 3
ENDMDL
MODEL      147
REMARK 921   NORMALIZED FREE ENERGY PREDICTED BY IDOCK:   -4.22 KCAL/MOL
REMARK 922        TOTAL FREE ENERGY PREDICTED BY IDOCK:   -5.41 KCAL/MOL
REMARK 923 INTER-LIGAND FREE ENERGY PREDICTED BY IDOCK:   -4.78 KCAL/MOL
REMARK 924 INTRA-LIGAND FREE ENERGY PREDICTED BY IDOCK:   -0.63 KCAL/MOL
REMARK 927      BINDING AFFINITY PREDICTED BY RF-SCORE:    0.00 PKD
ROOT
HETATM    1  C   UNL     1      -9.206   4.165  69.242  1.00  0.00    -0.147 C  
HETATM    2  N   UNL     1      -9.684   4.170  67.869  1.00  0.00    -0.139 NA 
HETATM    3  C   UNL     1      -9.256   3.047  67.058  1.00  0.00    -0.163 C  
HETATM    4  C   UNL     1      -9.785   3.035  65.640  1.00  0.00     0.137 C  
HETATM    5  C   UNL     1     -10.558   4.241  65.161  1.00  0.00    -0.144 C  
HETATM    6  N   UNL     1     -10.793   5.299  66.121  1.00  0.00    -0.715 NA 
HETATM    7  H   UNL     1     -11.297   6.132  65.819  1.00  0.00     0.000 HD 
HETATM    8  C   UNL     1     -10.391   5.230  67.335  1.00  0.00    -0.180 C  
ENDROOT
BRANCH   8   9
HETATM    9  C   UNL     1     -10.712   6.461  68.247  1.00  0.00    -0.285 C  
BRANCH   9  10
HETATM   10  O   UNL     1      -9.714   7.467  68.399  1.00  0.00    -0.151 OA 
BRANCH  10  11
HETATM   11  C   UNL     1      -9.790   8.513  67.507  1.00  0.00    -0.177 C  
HETATM   12  C   UNL     1      -9.184   9.801  68.169  1.00  0.00    -0.128 C  
HETATM   13  O   UNL     1     -10.244   8.424  66.372  1.00  0.00    -0.265 OA 
HETATM   14  C   UNL     1      -9.999  11.031  67.707  1.00  0.00    -0.194 A  
HETATM   15  O   UNL     1      -9.339   9.726  69.593  1.00  0.00    -0.191 OA 
HETATM   16  C   UNL     1      -7.643   9.844  67.822  1.00  0.00    -0.090 C  
HETATM   17  C   UNL     1      -6.886  11.099  68.307  1.00  0.00    -0.068 C  
HETATM   18  C   UNL     1     -11.091  11.500  68.471  1.00  0.00    -0.287 A  
HETATM   19  H   UNL     1      -8.972  10.505  69.994  1.00  0.00     0.000 HD 
HETATM   20  C   UNL     1      -6.613  11.114  69.809  1.00  0.00    -0.138 C  
HETATM   21  C   UNL     1     -11.851  12.606  68.070  1.00  0.00    -0.376 A  
HETATM   22  C   UNL     1     -11.542  13.269  66.887  1.00  0.00    -0.408 A  
HETATM   23  C   UNL     1      -5.856   9.873  70.271  1.00  0.00    -0.059 C  
HETATM   24  C   UNL     1      -6.493   8.580  69.789  1.00  0.00    -0.035 C  
HETATM   25  C   UNL     1     -10.489  12.815  66.101  1.00  0.00    -0.284 A  
HETATM   26  C   UNL     1      -9.733  11.702  66.499  1.00  0.00    -0.227 A  
HETATM   27  C   UNL     1      -6.822   8.622  68.302  1.00  0.00    -0.066 C  
ENDBRANCH  10  11
ENDBRANCH   9  10
ENDBRANCH   8   9
TORSDOF 3
ENDMDL
MODEL      148
REMARK 921   NORMALIZED FREE ENERGY PREDICTED BY IDOCK:   -4.18 KCAL/MOL
REMARK 922        TOTAL FREE ENERGY PREDICTED BY IDOCK:   -5.36 KCAL/MOL
REMARK 923 INTER-LIGAND FREE ENERGY PREDICTED BY IDOCK:   -4.83 KCAL/MOL
REMARK 924 INTRA-LIGAND FREE ENERGY PREDICTED BY IDOCK:   -0.53 KCAL/MOL
REMARK 927      BINDING AFFINITY PREDICTED BY RF-SCORE:    0.00 PKD
ROOT
HETATM    1  C   UNL     1      -9.746   3.703  64.242  1.00  0.00    -0.175 C  
HETATM    2  N   UNL     1      -9.395   3.316  65.599  1.00  0.00    -0.149 NA 
HETATM    3  C   UNL     1      -8.824   1.989  65.738  1.00  0.00    -0.120 C  
HETATM    4  C   UNL     1      -8.425   1.602  67.144  1.00  0.00    -0.094 C  
HETATM    5  C   UNL     1      -8.792   2.540  68.270  1.00  0.00    -0.120 C  
HETATM    6  N   UNL     1      -9.446   3.780  67.909  1.00  0.00    -0.182 NA 
HETATM    7  H   UNL     1      -9.721   4.424  68.651  1.00  0.00     0.000 HD 
HETATM    8  C   UNL     1      -9.695   4.100  66.694  1.00  0.00    -0.211 C  
ENDROOT
BRANCH   8   9
HETATM    9  C   UNL     1     -10.420   5.469  66.469  1.00  0.00    -0.271 C  
BRANCH   9  10
HETATM   10  O   UNL     1      -9.863   6.636  67.068  1.00  0.00    -0.143 OA 
BRANCH  10  11
HETATM   11  C   UNL     1     -10.340   6.939  68.323  1.00  0.00    -0.193 C  
HETATM   12  C   UNL     1      -9.558   8.178  68.886  1.00  0.00    -0.153 C  
HETATM   13  O   UNL     1     -11.248   6.335  68.885  1.00  0.00    -0.370 OA 
HETATM   14  C   UNL     1      -9.359   7.994  70.409  1.00  0.00    -0.158 A  
HETATM   15  O   UNL     1      -8.245   8.219  68.310  1.00  0.00    -0.125 OA 
HETATM   16  C   UNL     1     -10.346   9.481  68.462  1.00  0.00    -0.234 C  
HETATM   17  C   UNL     1      -9.782  10.809  69.011  1.00  0.00    -0.201 C  
HETATM   18  C   UNL     1      -8.188   7.387  70.914  1.00  0.00    -0.114 A  
HETATM   19  H   UNL     1      -7.772   8.969  68.651  1.00  0.00     0.000 HD 
HETATM   20  C   UNL     1      -8.507  11.275  68.311  1.00  0.00    -0.152 C  
HETATM   21  C   UNL     1      -7.988   7.200  72.287  1.00  0.00    -0.101 A  
HETATM   22  C   UNL     1      -8.960   7.609  73.193  1.00  0.00    -0.244 A  
HETATM   23  C   UNL     1      -8.691  11.403  66.802  1.00  0.00    -0.174 C  
HETATM   24  C   UNL     1      -9.302  10.162  66.175  1.00  0.00    -0.217 C  
HETATM   25  C   UNL     1     -10.135   8.187  72.725  1.00  0.00    -0.367 A  
HETATM   26  C   UNL     1     -10.339   8.367  71.349  1.00  0.00    -0.285 A  
HETATM   27  C   UNL     1     -10.528   9.677  66.937  1.00  0.00    -0.282 C  
ENDBRANCH  10  11
ENDBRANCH   9  10
ENDBRANCH   8   9
TORSDOF 3
ENDMDL
MODEL      149
REMARK 921   NORMALIZED FREE ENERGY PREDICTED BY IDOCK:   -4.18 KCAL/MOL
REMARK 922        TOTAL FREE ENERGY PREDICTED BY IDOCK:   -5.36 KCAL/MOL
REMARK 923 INTER-LIGAND FREE ENERGY PREDICTED BY IDOCK:   -4.28 KCAL/MOL
REMARK 924 INTRA-LIGAND FREE ENERGY PREDICTED BY IDOCK:   -1.08 KCAL/MOL
REMARK 927      BINDING AFFINITY PREDICTED BY RF-SCORE:    0.00 PKD
ROOT
HETATM    1  C   UNL     1      -8.018   9.828  70.059  1.00  0.00    -0.184 C  
HETATM    2  N   UNL     1      -8.489   9.372  68.761  1.00  0.00    -0.120 NA 
HETATM    3  C   UNL     1      -9.735   9.960  68.311  1.00  0.00    -0.144 C  
HETATM    4  C   UNL     1     -10.205   9.513  66.944  1.00  0.00    -0.317 C  
HETATM    5  C   UNL     1      -9.440   8.405  66.258  1.00  0.00    -0.224 C  
HETATM    6  N   UNL     1      -8.267   7.894  66.937  1.00  0.00    -0.114 NA 
HETATM    7  H   UNL     1      -7.742   7.135  66.504  1.00  0.00     0.000 HD 
HETATM    8  C   UNL     1      -7.863   8.359  68.060  1.00  0.00    -0.111 C  
ENDROOT
BRANCH   8   9
HETATM    9  C   UNL     1      -6.586   7.692  68.672  1.00  0.00    -0.053 C  
BRANCH   9  10
HETATM   10  O   UNL     1      -6.677   6.343  69.119  1.00  0.00    -0.049 OA 
BRANCH  10  11
HETATM   11  C   UNL     1      -7.474   6.139  70.223  1.00  0.00    -0.090 C  
HETATM   12  C   UNL     1      -8.641   5.161  69.842  1.00  0.00    -0.100 C  
HETATM   13  O   UNL     1      -7.272   6.637  71.325  1.00  0.00    -0.075 OA 
HETATM   14  C   UNL     1      -9.922   5.596  70.593  1.00  0.00    -0.260 A  
HETATM   15  O   UNL     1      -8.933   5.284  68.443  1.00  0.00    -0.107 OA 
HETATM   16  C   UNL     1      -8.154   3.687  70.137  1.00  0.00    -0.055 C  
HETATM   17  C   UNL     1      -9.208   2.581  69.917  1.00  0.00    -0.195 C  
HETATM   18  C   UNL     1     -10.847   6.477  69.989  1.00  0.00    -0.342 A  
HETATM   19  H   UNL     1      -9.640   4.692  68.212  1.00  0.00     0.000 HD 
HETATM   20  C   UNL     1      -9.475   2.266  68.447  1.00  0.00    -0.226 C  
HETATM   21  C   UNL     1     -12.009   6.893  70.651  1.00  0.00    -0.400 A  
HETATM   22  C   UNL     1     -12.273   6.443  71.940  1.00  0.00    -0.332 A  
HETATM   23  C   UNL     1      -8.202   1.890  67.696  1.00  0.00    -0.074 C  
HETATM   24  C   UNL     1      -7.079   2.893  67.902  1.00  0.00    -0.049 C  
HETATM   25  C   UNL     1     -11.368   5.595  72.570  1.00  0.00    -0.349 A  
HETATM   26  C   UNL     1     -10.201   5.185  71.910  1.00  0.00    -0.269 A  
HETATM   27  C   UNL     1      -6.884   3.244  69.371  1.00  0.00    -0.041 C  
ENDBRANCH  10  11
ENDBRANCH   9  10
ENDBRANCH   8   9
TORSDOF 3
ENDMDL
MODEL      150
REMARK 921   NORMALIZED FREE ENERGY PREDICTED BY IDOCK:   -4.16 KCAL/MOL
REMARK 922        TOTAL FREE ENERGY PREDICTED BY IDOCK:   -5.34 KCAL/MOL
REMARK 923 INTER-LIGAND FREE ENERGY PREDICTED BY IDOCK:   -4.78 KCAL/MOL
REMARK 924 INTRA-LIGAND FREE ENERGY PREDICTED BY IDOCK:   -0.57 KCAL/MOL
REMARK 927      BINDING AFFINITY PREDICTED BY RF-SCORE:    0.00 PKD
ROOT
HETATM    1  C   UNL     1      -8.359   7.432  65.270  1.00  0.00    -0.104 C  
HETATM    2  N   UNL     1      -8.746   6.046  65.480  1.00  0.00    -0.143 NA 
HETATM    3  C   UNL     1      -8.134   5.087  64.581  1.00  0.00    -0.118 C  
HETATM    4  C   UNL     1      -8.509   3.642  64.825  1.00  0.00    -0.100 C  
HETATM    5  C   UNL     1      -9.580   3.349  65.850  1.00  0.00    -0.059 C  
HETATM    6  N   UNL     1     -10.126   4.478  66.574  1.00  0.00    -0.239 NA 
HETATM    7  H   UNL     1     -10.862   4.311  67.260  1.00  0.00     0.000 HD 
HETATM    8  C   UNL     1      -9.720   5.678  66.387  1.00  0.00    -0.156 C  
ENDROOT
BRANCH   8   9
HETATM    9  C   UNL     1     -10.419   6.791  67.239  1.00  0.00    -0.282 C  
BRANCH   9  10
HETATM   10  O   UNL     1      -9.861   7.120  68.509  1.00  0.00    -0.148 OA 
BRANCH  10  11
HETATM   11  C   UNL     1     -10.586   6.693  69.599  1.00  0.00    -0.234 C  
HETATM   12  C   UNL     1      -9.636   6.606  70.846  1.00  0.00    -0.175 C  
HETATM   13  O   UNL     1     -11.787   6.446  69.580  1.00  0.00    -0.323 OA 
HETATM   14  C   UNL     1     -10.055   5.392  71.709  1.00  0.00    -0.251 A  
HETATM   15  O   UNL     1      -8.294   6.348  70.410  1.00  0.00    -0.123 OA 
HETATM   16  C   UNL     1      -9.677   8.003  71.584  1.00  0.00    -0.222 C  
HETATM   17  C   UNL     1      -8.876   8.084  72.901  1.00  0.00    -0.287 C  
HETATM   18  C   UNL     1      -9.448   4.131  71.519  1.00  0.00    -0.221 A  
HETATM   19  H   UNL     1      -7.719   6.295  71.165  1.00  0.00     0.000 HD 
HETATM   20  C   UNL     1      -7.365   8.162  72.702  1.00  0.00    -0.141 C  
HETATM   21  C   UNL     1      -9.815   3.014  72.280  1.00  0.00    -0.234 A  
HETATM   22  C   UNL     1     -10.806   3.128  73.248  1.00  0.00    -0.283 A  
HETATM   23  C   UNL     1      -6.959   9.328  71.806  1.00  0.00     0.196 C  
HETATM   24  C   UNL     1      -7.740   9.370  70.504  1.00  0.00    -0.177 C  
HETATM   25  C   UNL     1     -11.439   4.352  73.441  1.00  0.00    -0.297 A  
HETATM   26  C   UNL     1     -11.077   5.468  72.673  1.00  0.00    -0.334 A  
HETATM   27  C   UNL     1      -9.239   9.216  70.727  1.00  0.00    -0.321 C  
ENDBRANCH  10  11
ENDBRANCH   9  10
ENDBRANCH   8   9
TORSDOF 3
ENDMDL
MODEL      151
REMARK 921   NORMALIZED FREE ENERGY PREDICTED BY IDOCK:   -4.16 KCAL/MOL
REMARK 922        TOTAL FREE ENERGY PREDICTED BY IDOCK:   -5.34 KCAL/MOL
REMARK 923 INTER-LIGAND FREE ENERGY PREDICTED BY IDOCK:   -4.77 KCAL/MOL
REMARK 924 INTRA-LIGAND FREE ENERGY PREDICTED BY IDOCK:   -0.57 KCAL/MOL
REMARK 927      BINDING AFFINITY PREDICTED BY RF-SCORE:    0.00 PKD
ROOT
HETATM    1  C   UNL     1      -8.079   3.672  66.880  1.00  0.00    -0.095 C  
HETATM    2  N   UNL     1      -7.856   3.743  68.315  1.00  0.00    -0.071 NA 
HETATM    3  C   UNL     1      -7.905   2.474  69.015  1.00  0.00    -0.049 C  
HETATM    4  C   UNL     1      -7.635   2.544  70.501  1.00  0.00    -0.042 C  
HETATM    5  C   UNL     1      -7.501   3.910  71.134  1.00  0.00    -0.044 C  
HETATM    6  N   UNL     1      -7.577   5.056  70.253  1.00  0.00    -0.062 NA 
HETATM    7  H   UNL     1      -7.507   5.990  70.656  1.00  0.00     0.000 HD 
HETATM    8  C   UNL     1      -7.729   4.943  68.986  1.00  0.00    -0.072 C  
ENDROOT
BRANCH   8   9
HETATM    9  C   UNL     1      -7.805   6.277  68.171  1.00  0.00    -0.104 C  
BRANCH   9  10
HETATM   10  O   UNL     1      -9.001   7.049  68.249  1.00  0.00    -0.129 OA 
BRANCH  10  11
HETATM   11  C   UNL     1      -8.818   8.403  68.421  1.00  0.00    -0.140 C  
HETATM   12  C   UNL     1     -10.130   9.028  69.017  1.00  0.00    -0.195 C  
HETATM   13  O   UNL     1      -7.779   9.001  68.164  1.00  0.00    -0.094 OA 
HETATM   14  C   UNL     1     -10.334  10.434  68.406  1.00  0.00    -0.198 A  
HETATM   15  O   UNL     1     -11.261   8.244  68.612  1.00  0.00    -0.321 OA 
HETATM   16  C   UNL     1     -10.014   8.987  70.592  1.00  0.00    -0.287 C  
HETATM   17  C   UNL     1     -11.174   9.652  71.363  1.00  0.00    -0.426 C  
HETATM   18  C   UNL     1     -11.120  10.608  67.245  1.00  0.00    -0.313 A  
HETATM   19  H   UNL     1     -12.055   8.622  68.972  1.00  0.00     0.000 HD 
HETATM   20  C   UNL     1     -12.461   8.830  71.372  1.00  0.00    -0.348 C  
HETATM   21  C   UNL     1     -11.313  11.869  66.668  1.00  0.00    -0.400 A  
HETATM   22  C   UNL     1     -10.718  12.991  67.233  1.00  0.00    -0.261 A  
HETATM   23  C   UNL     1     -12.245   7.425  71.924  1.00  0.00    -0.344 C  
HETATM   24  C   UNL     1     -11.077   6.707  71.268  1.00  0.00    -0.312 C  
HETATM   25  C   UNL     1      -9.918  12.848  68.362  1.00  0.00    -0.211 A  
HETATM   26  C   UNL     1      -9.718  11.584  68.935  1.00  0.00    -0.069 A  
HETATM   27  C   UNL     1      -9.829   7.577  71.205  1.00  0.00    -0.188 C  
ENDBRANCH  10  11
ENDBRANCH   9  10
ENDBRANCH   8   9
TORSDOF 3
ENDMDL
MODEL      152
REMARK 921   NORMALIZED FREE ENERGY PREDICTED BY IDOCK:   -4.15 KCAL/MOL
REMARK 922        TOTAL FREE ENERGY PREDICTED BY IDOCK:   -5.33 KCAL/MOL
REMARK 923 INTER-LIGAND FREE ENERGY PREDICTED BY IDOCK:   -5.11 KCAL/MOL
REMARK 924 INTRA-LIGAND FREE ENERGY PREDICTED BY IDOCK:   -0.22 KCAL/MOL
REMARK 927      BINDING AFFINITY PREDICTED BY RF-SCORE:    0.00 PKD
ROOT
HETATM    1  C   UNL     1     -11.218   7.670  72.978  1.00  0.00    -0.333 C  
HETATM    2  N   UNL     1     -10.795   6.484  72.251  1.00  0.00    -0.223 NA 
HETATM    3  C   UNL     1     -10.632   5.288  73.055  1.00  0.00    -0.234 C  
HETATM    4  C   UNL     1     -10.228   4.046  72.291  1.00  0.00    -0.227 C  
HETATM    5  C   UNL     1      -9.884   4.194  70.827  1.00  0.00    -0.178 C  
HETATM    6  N   UNL     1     -10.030   5.511  70.245  1.00  0.00    -0.199 NA 
HETATM    7  H   UNL     1      -9.788   5.642  69.263  1.00  0.00     0.000 HD 
HETATM    8  C   UNL     1     -10.451   6.519  70.915  1.00  0.00    -0.223 C  
ENDROOT
BRANCH   8   9
HETATM    9  C   UNL     1     -10.541   7.879  70.145  1.00  0.00    -0.237 C  
BRANCH   9  10
HETATM   10  O   UNL     1      -9.563   8.157  69.147  1.00  0.00    -0.155 OA 
BRANCH  10  11
HETATM   11  C   UNL     1      -9.926   9.100  68.212  1.00  0.00    -0.175 C  
HETATM   12  C   UNL     1      -9.253  10.471  68.575  1.00  0.00    -0.168 C  
HETATM   13  O   UNL     1     -10.645   8.876  67.245  1.00  0.00    -0.283 OA 
HETATM   14  C   UNL     1     -10.234  11.616  68.227  1.00  0.00    -0.206 A  
HETATM   15  O   UNL     1      -9.040  10.540  69.992  1.00  0.00    -0.343 OA 
HETATM   16  C   UNL     1      -7.855  10.535  67.841  1.00  0.00    -0.105 C  
HETATM   17  C   UNL     1      -7.080  11.860  67.998  1.00  0.00    -0.084 C  
HETATM   18  C   UNL     1     -11.125  12.122  69.199  1.00  0.00    -0.263 A  
HETATM   19  H   UNL     1      -8.633  11.370  70.212  1.00  0.00     0.000 HD 
HETATM   20  C   UNL     1      -6.439  12.042  69.371  1.00  0.00    -0.115 C  
HETATM   21  C   UNL     1     -12.028  13.151  68.907  1.00  0.00    -0.317 A  
HETATM   22  C   UNL     1     -12.070  13.698  67.630  1.00  0.00    -0.328 A  
HETATM   23  C   UNL     1      -5.515  10.885  69.736  1.00  0.00    -0.043 C  
HETATM   24  C   UNL     1      -6.171   9.526  69.554  1.00  0.00    -0.040 C  
HETATM   25  C   UNL     1     -11.222  13.203  66.644  1.00  0.00    -0.335 A  
HETATM   26  C   UNL     1     -10.323  12.166  66.935  1.00  0.00    -0.235 A  
HETATM   27  C   UNL     1      -6.866   9.400  68.204  1.00  0.00    -0.064 C  
ENDBRANCH  10  11
ENDBRANCH   9  10
ENDBRANCH   8   9
TORSDOF 3
ENDMDL
MODEL      153
REMARK 921   NORMALIZED FREE ENERGY PREDICTED BY IDOCK:   -4.12 KCAL/MOL
REMARK 922        TOTAL FREE ENERGY PREDICTED BY IDOCK:   -5.29 KCAL/MOL
REMARK 923 INTER-LIGAND FREE ENERGY PREDICTED BY IDOCK:   -4.70 KCAL/MOL
REMARK 924 INTRA-LIGAND FREE ENERGY PREDICTED BY IDOCK:   -0.59 KCAL/MOL
REMARK 927      BINDING AFFINITY PREDICTED BY RF-SCORE:    0.00 PKD
ROOT
HETATM    1  C   UNL     1      -7.237  10.821  69.649  1.00  0.00    -0.125 C  
HETATM    2  N   UNL     1      -7.221  10.638  68.206  1.00  0.00    -0.081 NA 
HETATM    3  C   UNL     1      -7.782   9.387  67.733  1.00  0.00    -0.088 C  
HETATM    4  C   UNL     1      -7.800   9.215  66.230  1.00  0.00    -0.103 C  
HETATM    5  C   UNL     1      -7.107  10.260  65.387  1.00  0.00    -0.139 C  
HETATM    6  N   UNL     1      -6.528  11.391  66.083  1.00  0.00    -0.368 NA 
HETATM    7  H   UNL     1      -6.040  12.103  65.540  1.00  0.00     0.000 HD 
HETATM    8  C   UNL     1      -6.606  11.533  67.353  1.00  0.00    -0.101 C  
ENDROOT
BRANCH   8   9
HETATM    9  C   UNL     1      -5.919  12.803  67.957  1.00  0.00    -0.101 C  
BRANCH   9  10
HETATM   10  O   UNL     1      -6.095  14.049  67.287  1.00  0.00    -0.309 OA 
BRANCH  10  11
HETATM   11  C   UNL     1      -6.363  15.124  68.104  1.00  0.00    -0.131 C  
HETATM   12  C   UNL     1      -7.439  16.038  67.416  1.00  0.00    -0.178 C  
HETATM   13  O   UNL     1      -5.847  15.308  69.201  1.00  0.00    -0.097 OA 
HETATM   14  C   UNL     1      -7.113  17.517  67.732  1.00  0.00    -0.187 A  
HETATM   15  O   UNL     1      -7.345  15.900  65.991  1.00  0.00     0.223 OA 
HETATM   16  C   UNL     1      -8.865  15.546  67.887  1.00  0.00    -0.171 C  
HETATM   17  C   UNL     1     -10.058  16.390  67.390  1.00  0.00    -0.262 C  
HETATM   18  C   UNL     1      -6.316  18.283  66.852  1.00  0.00    -0.198 A  
HETATM   19  H   UNL     1      -7.996  16.453  65.575  1.00  0.00     0.000 HD 
HETATM   20  C   UNL     1     -10.398  16.172  65.918  1.00  0.00    -0.384 C  
HETATM   21  C   UNL     1      -6.000  19.620  67.119  1.00  0.00    -0.185 A  
HETATM   22  C   UNL     1      -6.466  20.226  68.280  1.00  0.00    -0.340 A  
HETATM   23  C   UNL     1     -10.666  14.705  65.598  1.00  0.00    -0.340 C  
HETATM   24  C   UNL     1      -9.570  13.782  66.105  1.00  0.00    -0.234 C  
HETATM   25  C   UNL     1      -7.232  19.490  69.178  1.00  0.00    -0.382 A  
HETATM   26  C   UNL     1      -7.542  18.148  68.914  1.00  0.00    -0.227 A  
HETATM   27  C   UNL     1      -9.199  14.072  67.553  1.00  0.00    -0.197 C  
ENDBRANCH  10  11
ENDBRANCH   9  10
ENDBRANCH   8   9
TORSDOF 3
ENDMDL
MODEL      154
REMARK 921   NORMALIZED FREE ENERGY PREDICTED BY IDOCK:   -4.10 KCAL/MOL
REMARK 922        TOTAL FREE ENERGY PREDICTED BY IDOCK:   -5.27 KCAL/MOL
REMARK 923 INTER-LIGAND FREE ENERGY PREDICTED BY IDOCK:   -4.70 KCAL/MOL
REMARK 924 INTRA-LIGAND FREE ENERGY PREDICTED BY IDOCK:   -0.57 KCAL/MOL
REMARK 927      BINDING AFFINITY PREDICTED BY RF-SCORE:    0.00 PKD
ROOT
HETATM    1  C   UNL     1      -8.360   5.225  69.339  1.00  0.00    -0.095 C  
HETATM    2  N   UNL     1      -8.157   6.097  70.485  1.00  0.00    -0.111 NA 
HETATM    3  C   UNL     1      -7.675   5.443  71.686  1.00  0.00    -0.106 C  
HETATM    4  C   UNL     1      -7.429   6.358  72.866  1.00  0.00    -0.095 C  
HETATM    5  C   UNL     1      -7.847   7.805  72.742  1.00  0.00    -0.112 C  
HETATM    6  N   UNL     1      -8.398   8.226  71.471  1.00  0.00    -0.125 NA 
HETATM    7  H   UNL     1      -8.705   9.192  71.366  1.00  0.00     0.000 HD 
HETATM    8  C   UNL     1      -8.515   7.431  70.473  1.00  0.00    -0.137 C  
ENDROOT
BRANCH   8   9
HETATM    9  C   UNL     1      -9.141   8.034  69.171  1.00  0.00    -0.145 C  
BRANCH   9  10
HETATM   10  O   UNL     1      -8.721   9.331  68.758  1.00  0.00    -0.129 OA 
BRANCH  10  11
HETATM   11  C   UNL     1      -9.643  10.337  68.944  1.00  0.00    -0.190 C  
HETATM   12  C   UNL     1      -9.601  11.309  67.712  1.00  0.00    -0.174 C  
HETATM   13  O   UNL     1     -10.383  10.427  69.917  1.00  0.00    -0.244 OA 
HETATM   14  C   UNL     1      -9.834  12.756  68.209  1.00  0.00    -0.224 A  
HETATM   15  O   UNL     1      -8.291  11.288  67.129  1.00  0.00    -0.140 OA 
HETATM   16  C   UNL     1     -10.646  10.786  66.647  1.00  0.00    -0.291 C  
HETATM   17  C   UNL     1     -10.822  11.673  65.397  1.00  0.00    -0.336 C  
HETATM   18  C   UNL     1      -8.741  13.587  68.539  1.00  0.00    -0.082 A  
HETATM   19  H   UNL     1      -8.265  11.877  66.383  1.00  0.00     0.000 HD 
HETATM   20  C   UNL     1      -9.667  11.579  64.404  1.00  0.00    -0.229 C  
HETATM   21  C   UNL     1      -8.924  14.897  69.000  1.00  0.00    -0.174 A  
HETATM   22  C   UNL     1     -10.209  15.407  69.150  1.00  0.00    -0.239 A  
HETATM   23  C   UNL     1      -9.404  10.145  63.957  1.00  0.00    -0.339 C  
HETATM   24  C   UNL     1      -9.276   9.178  65.123  1.00  0.00    -0.218 C  
HETATM   25  C   UNL     1     -11.305  14.603  68.858  1.00  0.00    -0.305 A  
HETATM   26  C   UNL     1     -11.121  13.289  68.404  1.00  0.00    -0.299 A  
HETATM   27  C   UNL     1     -10.402   9.346  66.134  1.00  0.00    -0.162 C  
ENDBRANCH  10  11
ENDBRANCH   9  10
ENDBRANCH   8   9
TORSDOF 3
ENDMDL
MODEL      155
REMARK 921   NORMALIZED FREE ENERGY PREDICTED BY IDOCK:   -4.10 KCAL/MOL
REMARK 922        TOTAL FREE ENERGY PREDICTED BY IDOCK:   -5.27 KCAL/MOL
REMARK 923 INTER-LIGAND FREE ENERGY PREDICTED BY IDOCK:   -4.66 KCAL/MOL
REMARK 924 INTRA-LIGAND FREE ENERGY PREDICTED BY IDOCK:   -0.60 KCAL/MOL
REMARK 927      BINDING AFFINITY PREDICTED BY RF-SCORE:    0.00 PKD
ROOT
HETATM    1  C   UNL     1     -11.576   7.304  72.778  1.00  0.00    -0.171 C  
HETATM    2  N   UNL     1     -10.914   6.009  72.751  1.00  0.00    -0.250 NA 
HETATM    3  C   UNL     1     -10.427   5.534  74.032  1.00  0.00    -0.279 C  
HETATM    4  C   UNL     1      -9.772   4.170  74.009  1.00  0.00    -0.146 C  
HETATM    5  C   UNL     1      -9.546   3.514  72.666  1.00  0.00    -0.134 C  
HETATM    6  N   UNL     1     -10.034   4.216  71.498  1.00  0.00    -0.181 NA 
HETATM    7  H   UNL     1      -9.879   3.804  70.578  1.00  0.00     0.000 HD 
HETATM    8  C   UNL     1     -10.654   5.335  71.575  1.00  0.00    -0.184 C  
ENDROOT
BRANCH   8   9
HETATM    9  C   UNL     1     -11.108   5.974  70.220  1.00  0.00    -0.345 C  
BRANCH   9  10
HETATM   10  O   UNL     1     -10.208   6.854  69.552  1.00  0.00    -0.176 OA 
BRANCH  10  11
HETATM   11  C   UNL     1      -9.386   6.260  68.621  1.00  0.00    -0.122 C  
HETATM   12  C   UNL     1      -9.694   6.862  67.203  1.00  0.00    -0.154 C  
HETATM   13  O   UNL     1      -8.540   5.413  68.882  1.00  0.00    -0.099 OA 
HETATM   14  C   UNL     1      -9.560   5.742  66.145  1.00  0.00    -0.126 A  
HETATM   15  O   UNL     1     -11.059   7.301  67.155  1.00  0.00    -0.557 OA 
HETATM   16  C   UNL     1      -8.746   8.108  66.990  1.00  0.00    -0.136 C  
HETATM   17  C   UNL     1      -8.832   8.780  65.603  1.00  0.00    -0.239 C  
HETATM   18  C   UNL     1     -10.685   4.984  65.752  1.00  0.00    -0.132 A  
HETATM   19  H   UNL     1     -11.246   7.665  66.298  1.00  0.00     0.000 HD 
HETATM   20  C   UNL     1     -10.090   9.622  65.401  1.00  0.00    -0.093 C  
HETATM   21  C   UNL     1     -10.588   3.958  64.803  1.00  0.00    -0.133 A  
HETATM   22  C   UNL     1      -9.359   3.658  64.227  1.00  0.00    -0.144 A  
HETATM   23  C   UNL     1     -10.249  10.691  66.478  1.00  0.00    -0.288 C  
HETATM   24  C   UNL     1     -10.117  10.134  67.886  1.00  0.00    -0.207 C  
HETATM   25  C   UNL     1      -8.228   4.371  64.613  1.00  0.00    -0.106 A  
HETATM   26  C   UNL     1      -8.324   5.392  65.569  1.00  0.00    -0.133 A  
HETATM   27  C   UNL     1      -8.895   9.239  68.037  1.00  0.00    -0.128 C  
ENDBRANCH  10  11
ENDBRANCH   9  10
ENDBRANCH   8   9
TORSDOF 3
ENDMDL
MODEL      156
REMARK 921   NORMALIZED FREE ENERGY PREDICTED BY IDOCK:   -4.09 KCAL/MOL
REMARK 922        TOTAL FREE ENERGY PREDICTED BY IDOCK:   -5.26 KCAL/MOL
REMARK 923 INTER-LIGAND FREE ENERGY PREDICTED BY IDOCK:   -4.47 KCAL/MOL
REMARK 924 INTRA-LIGAND FREE ENERGY PREDICTED BY IDOCK:   -0.79 KCAL/MOL
REMARK 927      BINDING AFFINITY PREDICTED BY RF-SCORE:    0.00 PKD
ROOT
HETATM    1  C   UNL     1      -8.970   5.821  74.566  1.00  0.00    -0.128 C  
HETATM    2  N   UNL     1      -7.881   6.568  73.956  1.00  0.00    -0.096 NA 
HETATM    3  C   UNL     1      -6.547   6.111  74.296  1.00  0.00    -0.075 C  
HETATM    4  C   UNL     1      -5.417   6.865  73.631  1.00  0.00    -0.046 C  
HETATM    5  C   UNL     1      -5.762   8.093  72.821  1.00  0.00    -0.051 C  
HETATM    6  N   UNL     1      -7.166   8.422  72.687  1.00  0.00    -0.210 NA 
HETATM    7  H   UNL     1      -7.426   9.255  72.160  1.00  0.00     0.000 HD 
HETATM    8  C   UNL     1      -8.094   7.707  73.206  1.00  0.00    -0.134 C  
ENDROOT
BRANCH   8   9
HETATM    9  C   UNL     1      -9.562   8.203  72.982  1.00  0.00    -0.266 C  
BRANCH   9  10
HETATM   10  O   UNL     1     -10.222   7.840  71.773  1.00  0.00    -0.185 OA 
BRANCH  10  11
HETATM   11  C   UNL     1     -10.443   8.872  70.889  1.00  0.00    -0.236 C  
HETATM   12  C   UNL     1      -9.617   8.615  69.579  1.00  0.00    -0.170 C  
HETATM   13  O   UNL     1     -11.188   9.821  71.104  1.00  0.00    -0.346 OA 
HETATM   14  C   UNL     1      -9.101   9.970  69.039  1.00  0.00    -0.172 A  
HETATM   15  O   UNL     1      -8.453   7.836  69.891  1.00  0.00    -0.129 OA 
HETATM   16  C   UNL     1     -10.531   7.796  68.583  1.00  0.00    -0.199 C  
HETATM   17  C   UNL     1      -9.924   7.529  67.189  1.00  0.00    -0.288 C  
HETATM   18  C   UNL     1      -7.826  10.453  69.407  1.00  0.00    -0.163 A  
HETATM   19  H   UNL     1      -7.953   7.680  69.099  1.00  0.00     0.000 HD 
HETATM   20  C   UNL     1      -8.842   6.452  67.182  1.00  0.00    -0.113 C  
HETATM   21  C   UNL     1      -7.339  11.680  68.940  1.00  0.00    -0.107 A  
HETATM   22  C   UNL     1      -8.121  12.462  68.097  1.00  0.00    -0.163 A  
HETATM   23  C   UNL     1      -9.338   5.132  67.765  1.00  0.00    -0.138 C  
HETATM   24  C   UNL     1     -10.010   5.300  69.118  1.00  0.00    -0.275 C  
HETATM   25  C   UNL     1      -9.391  12.024  67.738  1.00  0.00    -0.190 A  
HETATM   26  C   UNL     1      -9.881  10.799  68.213  1.00  0.00    -0.177 A  
HETATM   27  C   UNL     1     -11.031   6.431  69.115  1.00  0.00    -0.416 C  
ENDBRANCH  10  11
ENDBRANCH   9  10
ENDBRANCH   8   9
TORSDOF 3
ENDMDL
MODEL      157
REMARK 921   NORMALIZED FREE ENERGY PREDICTED BY IDOCK:   -4.08 KCAL/MOL
REMARK 922        TOTAL FREE ENERGY PREDICTED BY IDOCK:   -5.25 KCAL/MOL
REMARK 923 INTER-LIGAND FREE ENERGY PREDICTED BY IDOCK:   -4.98 KCAL/MOL
REMARK 924 INTRA-LIGAND FREE ENERGY PREDICTED BY IDOCK:   -0.27 KCAL/MOL
REMARK 927      BINDING AFFINITY PREDICTED BY RF-SCORE:    0.00 PKD
ROOT
HETATM    1  C   UNL     1     -10.299   8.034  67.224  1.00  0.00    -0.301 C  
HETATM    2  N   UNL     1      -8.942   8.005  66.703  1.00  0.00    -0.142 NA 
HETATM    3  C   UNL     1      -8.680   6.984  65.707  1.00  0.00    -0.100 C  
HETATM    4  C   UNL     1      -7.278   6.979  65.139  1.00  0.00    -0.074 C  
HETATM    5  C   UNL     1      -6.259   7.908  65.756  1.00  0.00    -0.042 C  
HETATM    6  N   UNL     1      -6.720   8.786  66.811  1.00  0.00    -0.068 NA 
HETATM    7  H   UNL     1      -6.049   9.411  67.257  1.00  0.00     0.000 HD 
HETATM    8  C   UNL     1      -7.938   8.809  67.206  1.00  0.00    -0.097 C  
ENDROOT
BRANCH   8   9
HETATM    9  C   UNL     1      -8.277   9.805  68.366  1.00  0.00    -0.105 C  
BRANCH   9  10
HETATM   10  O   UNL     1      -7.886  11.168  68.221  1.00  0.00    -0.110 OA 
BRANCH  10  11
HETATM   11  C   UNL     1      -8.381  11.808  67.107  1.00  0.00    -0.168 C  
HETATM   12  C   UNL     1      -8.816  13.264  67.500  1.00  0.00    -0.206 C  
HETATM   13  O   UNL     1      -8.442  11.307  65.990  1.00  0.00    -0.167 OA 
HETATM   14  C   UNL     1     -10.084  13.640  66.698  1.00  0.00    -0.277 A  
HETATM   15  O   UNL     1      -9.190  13.295  68.885  1.00  0.00    -0.388 OA 
HETATM   16  C   UNL     1      -7.574  14.216  67.282  1.00  0.00    -0.104 C  
HETATM   17  C   UNL     1      -7.835  15.718  67.523  1.00  0.00    -0.182 C  
HETATM   18  C   UNL     1     -11.370  13.417  67.239  1.00  0.00    -0.348 A  
HETATM   19  H   UNL     1      -9.453  14.177  69.123  1.00  0.00     0.000 HD 
HETATM   20  C   UNL     1      -7.947  16.097  68.998  1.00  0.00    -0.236 C  
HETATM   21  C   UNL     1     -12.534  13.740  66.530  1.00  0.00    -0.356 A  
HETATM   22  C   UNL     1     -12.442  14.288  65.256  1.00  0.00    -0.428 A  
HETATM   23  C   UNL     1      -6.718  15.676  69.798  1.00  0.00    -0.147 C  
HETATM   24  C   UNL     1      -6.341  14.220  69.577  1.00  0.00    -0.127 C  
HETATM   25  C   UNL     1     -11.190  14.496  64.687  1.00  0.00    -0.359 A  
HETATM   26  C   UNL     1     -10.025  14.165  65.394  1.00  0.00    -0.321 A  
HETATM   27  C   UNL     1      -6.310  13.853  68.100  1.00  0.00    -0.127 C  
ENDBRANCH  10  11
ENDBRANCH   9  10
ENDBRANCH   8   9
TORSDOF 3
ENDMDL
MODEL      158
REMARK 921   NORMALIZED FREE ENERGY PREDICTED BY IDOCK:   -4.06 KCAL/MOL
REMARK 922        TOTAL FREE ENERGY PREDICTED BY IDOCK:   -5.22 KCAL/MOL
REMARK 923 INTER-LIGAND FREE ENERGY PREDICTED BY IDOCK:   -4.82 KCAL/MOL
REMARK 924 INTRA-LIGAND FREE ENERGY PREDICTED BY IDOCK:   -0.40 KCAL/MOL
REMARK 927      BINDING AFFINITY PREDICTED BY RF-SCORE:    0.00 PKD
ROOT
HETATM    1  C   UNL     1      -9.425   8.944  65.660  1.00  0.00    -0.159 C  
HETATM    2  N   UNL     1      -8.902   7.590  65.566  1.00  0.00    -0.046 NA 
HETATM    3  C   UNL     1      -7.764   7.424  64.683  1.00  0.00    -0.118 C  
HETATM    4  C   UNL     1      -7.197   6.023  64.616  1.00  0.00    -0.063 C  
HETATM    5  C   UNL     1      -7.943   4.921  65.330  1.00  0.00    -0.100 C  
HETATM    6  N   UNL     1      -9.118   5.301  66.085  1.00  0.00    -0.143 NA 
HETATM    7  H   UNL     1      -9.650   4.574  66.563  1.00  0.00     0.000 HD 
HETATM    8  C   UNL     1      -9.517   6.515  66.176  1.00  0.00    -0.022 C  
ENDROOT
BRANCH   8   9
HETATM    9  C   UNL     1     -10.813   6.762  67.019  1.00  0.00    -0.383 C  
BRANCH   9  10
HETATM   10  O   UNL     1     -10.783   6.454  68.409  1.00  0.00    -0.227 OA 
BRANCH  10  11
HETATM   11  C   UNL     1      -9.670   6.896  69.088  1.00  0.00    -0.155 C  
HETATM   12  C   UNL     1     -10.061   8.139  69.964  1.00  0.00    -0.196 C  
HETATM   13  O   UNL     1      -8.563   6.373  69.020  1.00  0.00    -0.123 OA 
HETATM   14  C   UNL     1      -8.879   9.137  69.970  1.00  0.00    -0.193 A  
HETATM   15  O   UNL     1     -11.165   8.825  69.358  1.00  0.00    -0.440 OA 
HETATM   16  C   UNL     1     -10.503   7.610  71.386  1.00  0.00    -0.230 C  
HETATM   17  C   UNL     1     -10.833   8.699  72.429  1.00  0.00    -0.312 C  
HETATM   18  C   UNL     1      -8.816  10.184  69.024  1.00  0.00    -0.166 A  
HETATM   19  H   UNL     1     -11.401   9.578  69.888  1.00  0.00     0.000 HD 
HETATM   20  C   UNL     1     -12.175   9.389  72.198  1.00  0.00    -0.336 C  
HETATM   21  C   UNL     1      -7.752  11.095  69.002  1.00  0.00    -0.114 A  
HETATM   22  C   UNL     1      -6.718  10.978  69.923  1.00  0.00    -0.125 A  
HETATM   23  C   UNL     1     -13.332   8.397  72.138  1.00  0.00    -0.341 C  
HETATM   24  C   UNL     1     -13.074   7.248  71.178  1.00  0.00    -0.291 C  
HETATM   25  C   UNL     1      -6.739   9.942  70.851  1.00  0.00     0.011 A  
HETATM   26  C   UNL     1      -7.800   9.025  70.867  1.00  0.00    -0.172 A  
HETATM   27  C   UNL     1     -11.699   6.626  71.382  1.00  0.00    -0.374 C  
ENDBRANCH  10  11
ENDBRANCH   9  10
ENDBRANCH   8   9
TORSDOF 3
ENDMDL
MODEL      159
REMARK 921   NORMALIZED FREE ENERGY PREDICTED BY IDOCK:   -4.05 KCAL/MOL
REMARK 922        TOTAL FREE ENERGY PREDICTED BY IDOCK:   -5.21 KCAL/MOL
REMARK 923 INTER-LIGAND FREE ENERGY PREDICTED BY IDOCK:   -4.67 KCAL/MOL
REMARK 924 INTRA-LIGAND FREE ENERGY PREDICTED BY IDOCK:   -0.54 KCAL/MOL
REMARK 927      BINDING AFFINITY PREDICTED BY RF-SCORE:    0.00 PKD
ROOT
HETATM    1  C   UNL     1      -7.247   3.278  66.050  1.00  0.00    -0.071 C  
HETATM    2  N   UNL     1      -8.282   3.476  65.048  1.00  0.00    -0.093 NA 
HETATM    3  C   UNL     1      -7.946   3.025  63.711  1.00  0.00    -0.081 C  
HETATM    4  C   UNL     1      -9.038   3.197  62.678  1.00  0.00    -0.091 C  
HETATM    5  C   UNL     1     -10.286   3.947  63.083  1.00  0.00    -0.179 C  
HETATM    6  N   UNL     1     -10.372   4.393  64.458  1.00  0.00    -0.429 NA 
HETATM    7  H   UNL     1     -11.196   4.916  64.752  1.00  0.00     0.000 HD 
HETATM    8  C   UNL     1      -9.453   4.155  65.318  1.00  0.00    -0.173 C  
ENDROOT
BRANCH   8   9
HETATM    9  C   UNL     1      -9.689   4.715  66.761  1.00  0.00    -0.198 C  
BRANCH   9  10
HETATM   10  O   UNL     1      -9.113   5.973  67.100  1.00  0.00    -0.114 OA 
BRANCH  10  11
HETATM   11  C   UNL     1      -9.997   7.027  67.166  1.00  0.00    -0.189 C  
HETATM   12  C   UNL     1      -9.216   8.330  67.563  1.00  0.00    -0.137 C  
HETATM   13  O   UNL     1     -11.196   6.942  66.928  1.00  0.00    -0.353 OA 
HETATM   14  C   UNL     1     -10.114   9.190  68.483  1.00  0.00    -0.212 A  
HETATM   15  O   UNL     1      -8.062   7.980  68.340  1.00  0.00    -0.119 OA 
HETATM   16  C   UNL     1      -8.743   9.036  66.230  1.00  0.00    -0.155 C  
HETATM   17  C   UNL     1      -8.037  10.396  66.412  1.00  0.00    -0.129 C  
HETATM   18  C   UNL     1     -10.040   9.061  69.887  1.00  0.00    -0.213 A  
HETATM   19  H   UNL     1      -7.589   8.768  68.580  1.00  0.00     0.000 HD 
HETATM   20  C   UNL     1      -6.607  10.286  66.936  1.00  0.00    -0.076 C  
HETATM   21  C   UNL     1     -10.848   9.821  70.741  1.00  0.00    -0.403 A  
HETATM   22  C   UNL     1     -11.760  10.727  70.211  1.00  0.00    -0.442 A  
HETATM   23  C   UNL     1      -5.737   9.393  66.057  1.00  0.00    -0.049 C  
HETATM   24  C   UNL     1      -6.379   8.045  65.768  1.00  0.00    -0.042 C  
HETATM   25  C   UNL     1     -11.875  10.857  68.831  1.00  0.00    -0.340 A  
HETATM   26  C   UNL     1     -11.070  10.090  67.976  1.00  0.00    -0.263 A  
HETATM   27  C   UNL     1      -7.827   8.183  65.319  1.00  0.00    -0.115 C  
ENDBRANCH  10  11
ENDBRANCH   9  10
ENDBRANCH   8   9
TORSDOF 3
ENDMDL
MODEL      160
REMARK 921   NORMALIZED FREE ENERGY PREDICTED BY IDOCK:   -4.05 KCAL/MOL
REMARK 922        TOTAL FREE ENERGY PREDICTED BY IDOCK:   -5.21 KCAL/MOL
REMARK 923 INTER-LIGAND FREE ENERGY PREDICTED BY IDOCK:   -4.66 KCAL/MOL
REMARK 924 INTRA-LIGAND FREE ENERGY PREDICTED BY IDOCK:   -0.55 KCAL/MOL
REMARK 927      BINDING AFFINITY PREDICTED BY RF-SCORE:    0.00 PKD
ROOT
HETATM    1  C   UNL     1      -7.911   7.806  65.900  1.00  0.00    -0.107 C  
HETATM    2  N   UNL     1      -8.485   6.561  65.416  1.00  0.00    -0.142 NA 
HETATM    3  C   UNL     1      -7.983   6.102  64.135  1.00  0.00    -0.114 C  
HETATM    4  C   UNL     1      -8.554   4.787  63.651  1.00  0.00    -0.136 C  
HETATM    5  C   UNL     1      -9.680   4.166  64.445  1.00  0.00    -0.155 C  
HETATM    6  N   UNL     1     -10.089   4.849  65.655  1.00  0.00    -0.365 NA 
HETATM    7  H   UNL     1     -10.858   4.461  66.200  1.00  0.00     0.000 HD 
HETATM    8  C   UNL     1      -9.522   5.922  66.066  1.00  0.00    -0.060 C  
ENDROOT
BRANCH   8   9
HETATM    9  C   UNL     1     -10.088   6.547  67.385  1.00  0.00    -0.162 C  
BRANCH   9  10
HETATM   10  O   UNL     1      -9.378   6.320  68.599  1.00  0.00    -0.124 OA 
BRANCH  10  11
HETATM   11  C   UNL     1      -9.625   5.112  69.210  1.00  0.00    -0.160 C  
HETATM   12  C   UNL     1      -9.661   5.319  70.766  1.00  0.00    -0.185 C  
HETATM   13  O   UNL     1      -9.807   4.057  68.613  1.00  0.00    -0.111 OA 
HETATM   14  C   UNL     1      -9.038   4.079  71.450  1.00  0.00    -0.174 A  
HETATM   15  O   UNL     1      -8.833   6.435  71.121  1.00  0.00    -0.137 OA 
HETATM   16  C   UNL     1     -11.154   5.636  71.178  1.00  0.00    -0.202 C  
HETATM   17  C   UNL     1     -11.411   5.775  72.694  1.00  0.00    -0.337 C  
HETATM   18  C   UNL     1      -7.663   4.051  71.773  1.00  0.00    -0.070 A  
HETATM   19  H   UNL     1      -8.854   6.560  72.062  1.00  0.00     0.000 HD 
HETATM   20  C   UNL     1     -10.901   7.085  73.289  1.00  0.00    -0.345 C  
HETATM   21  C   UNL     1      -7.071   2.938  72.383  1.00  0.00    -0.031 A  
HETATM   22  C   UNL     1      -7.840   1.818  72.680  1.00  0.00    -0.044 A  
HETATM   23  C   UNL     1     -11.476   8.305  72.578  1.00  0.00    -0.454 C  
HETATM   24  C   UNL     1     -11.326   8.233  71.068  1.00  0.00    -0.299 C  
HETATM   25  C   UNL     1      -9.191   1.806  72.350  1.00  0.00    -0.116 A  
HETATM   26  C   UNL     1      -9.781   2.918  71.732  1.00  0.00    -0.224 A  
HETATM   27  C   UNL     1     -11.773   6.888  70.510  1.00  0.00    -0.401 C  
ENDBRANCH  10  11
ENDBRANCH   9  10
ENDBRANCH   8   9
TORSDOF 3
ENDMDL
MODEL      161
REMARK 921   NORMALIZED FREE ENERGY PREDICTED BY IDOCK:   -4.04 KCAL/MOL
REMARK 922        TOTAL FREE ENERGY PREDICTED BY IDOCK:   -5.20 KCAL/MOL
REMARK 923 INTER-LIGAND FREE ENERGY PREDICTED BY IDOCK:   -4.78 KCAL/MOL
REMARK 924 INTRA-LIGAND FREE ENERGY PREDICTED BY IDOCK:   -0.42 KCAL/MOL
REMARK 927      BINDING AFFINITY PREDICTED BY RF-SCORE:    0.00 PKD
ROOT
HETATM    1  C   UNL     1      -9.330   8.907  65.413  1.00  0.00    -0.088 C  
HETATM    2  N   UNL     1      -8.391   7.804  65.296  1.00  0.00    -0.139 NA 
HETATM    3  C   UNL     1      -7.245   8.051  64.441  1.00  0.00    -0.085 C  
HETATM    4  C   UNL     1      -6.250   6.915  64.350  1.00  0.00    -0.036 C  
HETATM    5  C   UNL     1      -6.607   5.604  65.010  1.00  0.00    -0.043 C  
HETATM    6  N   UNL     1      -7.855   5.551  65.742  1.00  0.00    -0.102 NA 
HETATM    7  H   UNL     1      -8.128   4.674  66.183  1.00  0.00     0.000 HD 
HETATM    8  C   UNL     1      -8.630   6.565  65.856  1.00  0.00    -0.149 C  
ENDROOT
BRANCH   8   9
HETATM    9  C   UNL     1      -9.951   6.344  66.668  1.00  0.00    -0.149 C  
BRANCH   9  10
HETATM   10  O   UNL     1      -9.880   6.361  68.091  1.00  0.00    -0.124 OA 
BRANCH  10  11
HETATM   11  C   UNL     1     -10.472   7.446  68.697  1.00  0.00    -0.189 C  
HETATM   12  C   UNL     1     -10.435   7.249  70.255  1.00  0.00    -0.219 C  
HETATM   13  O   UNL     1     -10.930   8.412  68.097  1.00  0.00     0.007 OA 
HETATM   14  C   UNL     1     -11.738   7.822  70.862  1.00  0.00    -0.281 A  
HETATM   15  O   UNL     1     -10.431   5.848  70.561  1.00  0.00    -0.220 OA 
HETATM   16  C   UNL     1      -9.099   7.897  70.794  1.00  0.00    -0.154 C  
HETATM   17  C   UNL     1      -8.927   7.891  72.327  1.00  0.00    -0.211 C  
HETATM   18  C   UNL     1     -12.861   6.992  71.070  1.00  0.00    -0.258 A  
HETATM   19  H   UNL     1     -10.409   5.728  71.503  1.00  0.00     0.000 HD 
HETATM   20  C   UNL     1      -8.571   6.523  72.904  1.00  0.00    -0.125 C  
HETATM   21  C   UNL     1     -14.055   7.488  71.609  1.00  0.00    -0.562 A  
HETATM   22  C   UNL     1     -14.159   8.832  71.947  1.00  0.00    -0.488 A  
HETATM   23  C   UNL     1      -7.316   5.935  72.265  1.00  0.00    -0.094 C  
HETATM   24  C   UNL     1      -7.364   5.954  70.746  1.00  0.00    -0.085 C  
HETATM   25  C   UNL     1     -13.078   9.680  71.729  1.00  0.00    -0.514 A  
HETATM   26  C   UNL     1     -11.886   9.185  71.182  1.00  0.00    -0.374 A  
HETATM   27  C   UNL     1      -7.794   7.310  70.202  1.00  0.00    -0.100 C  
ENDBRANCH  10  11
ENDBRANCH   9  10
ENDBRANCH   8   9
TORSDOF 3
ENDMDL
MODEL      162
REMARK 921   NORMALIZED FREE ENERGY PREDICTED BY IDOCK:   -4.02 KCAL/MOL
REMARK 922        TOTAL FREE ENERGY PREDICTED BY IDOCK:   -5.18 KCAL/MOL
REMARK 923 INTER-LIGAND FREE ENERGY PREDICTED BY IDOCK:   -5.19 KCAL/MOL
REMARK 924 INTRA-LIGAND FREE ENERGY PREDICTED BY IDOCK:    0.01 KCAL/MOL
REMARK 927      BINDING AFFINITY PREDICTED BY RF-SCORE:    0.00 PKD
ROOT
HETATM    1  C   UNL     1      -7.377  14.528  70.398  1.00  0.00     0.623 C  
HETATM    2  N   UNL     1      -6.672  13.835  69.331  1.00  0.00    -0.105 NA 
HETATM    3  C   UNL     1      -6.719  12.387  69.393  1.00  0.00    -0.032 C  
HETATM    4  C   UNL     1      -6.018  11.669  68.262  1.00  0.00    -0.045 C  
HETATM    5  C   UNL     1      -5.218  12.497  67.283  1.00  0.00    -0.025 C  
HETATM    6  N   UNL     1      -5.235  13.933  67.465  1.00  0.00    -0.335 NA 
HETATM    7  H   UNL     1      -4.690  14.514  66.828  1.00  0.00     0.000 HD 
HETATM    8  C   UNL     1      -5.909  14.502  68.394  1.00  0.00    -0.105 C  
ENDROOT
BRANCH   8   9
HETATM    9  C   UNL     1      -5.814  16.063  68.466  1.00  0.00    -0.106 C  
BRANCH   9  10
HETATM   10  O   UNL     1      -6.955  16.827  68.085  1.00  0.00    -0.150 OA 
BRANCH  10  11
HETATM   11  C   UNL     1      -7.746  16.259  67.112  1.00  0.00    -0.188 C  
HETATM   12  C   UNL     1      -9.167  16.926  67.150  1.00  0.00    -0.229 C  
HETATM   13  O   UNL     1      -7.372  15.387  66.336  1.00  0.00     0.230 OA 
HETATM   14  C   UNL     1     -10.233  15.849  66.834  1.00  0.00    -0.277 A  
HETATM   15  O   UNL     1      -9.444  17.390  68.479  1.00  0.00    -0.280 OA 
HETATM   16  C   UNL     1      -9.148  18.163  66.167  1.00  0.00    -0.128 C  
HETATM   17  C   UNL     1     -10.496  18.895  65.992  1.00  0.00    -0.507 C  
HETATM   18  C   UNL     1     -10.858  15.128  67.876  1.00  0.00    -0.291 A  
HETATM   19  H   UNL     1     -10.304  17.793  68.502  1.00  0.00     0.000 HD 
HETATM   20  C   UNL     1     -10.886  19.766  67.183  1.00  0.00    -0.467 C  
HETATM   21  C   UNL     1     -11.818  14.142  67.617  1.00  0.00    -0.427 A  
HETATM   22  C   UNL     1     -12.173  13.846  66.306  1.00  0.00    -0.498 A  
HETATM   23  C   UNL     1      -9.810  20.791  67.527  1.00  0.00    -0.409 C  
HETATM   24  C   UNL     1      -8.428  20.173  67.660  1.00  0.00    -0.357 C  
HETATM   25  C   UNL     1     -11.556  14.521  65.258  1.00  0.00    -0.359 A  
HETATM   26  C   UNL     1     -10.588  15.503  65.518  1.00  0.00    -0.413 A  
HETATM   27  C   UNL     1      -8.096  19.251  66.494  1.00  0.00    -0.310 C  
ENDBRANCH  10  11
ENDBRANCH   9  10
ENDBRANCH   8   9
TORSDOF 3
ENDMDL
MODEL      163
REMARK 921   NORMALIZED FREE ENERGY PREDICTED BY IDOCK:   -4.01 KCAL/MOL
REMARK 922        TOTAL FREE ENERGY PREDICTED BY IDOCK:   -5.16 KCAL/MOL
REMARK 923 INTER-LIGAND FREE ENERGY PREDICTED BY IDOCK:   -4.79 KCAL/MOL
REMARK 924 INTRA-LIGAND FREE ENERGY PREDICTED BY IDOCK:   -0.37 KCAL/MOL
REMARK 927      BINDING AFFINITY PREDICTED BY RF-SCORE:    0.00 PKD
ROOT
HETATM    1  C   UNL     1     -12.988  14.139  65.522  1.00  0.00    -0.272 C  
HETATM    2  N   UNL     1     -12.040  13.347  64.755  1.00  0.00    -0.386 NA 
HETATM    3  C   UNL     1     -12.590  12.169  64.113  1.00  0.00    -0.365 C  
HETATM    4  C   UNL     1     -11.611  11.366  63.286  1.00  0.00     0.019 C  
HETATM    5  C   UNL     1     -10.153  11.761  63.330  1.00  0.00    -0.446 C  
HETATM    6  N   UNL     1      -9.809  12.927  64.117  1.00  0.00    -0.666 NA 
HETATM    7  H   UNL     1      -8.830  13.206  64.178  1.00  0.00     0.000 HD 
HETATM    8  C   UNL     1     -10.687  13.622  64.739  1.00  0.00    -0.410 C  
ENDROOT
BRANCH   8   9
HETATM    9  C   UNL     1     -10.155  14.847  65.557  1.00  0.00    -0.370 C  
BRANCH   9  10
HETATM   10  O   UNL     1      -8.836  14.781  66.092  1.00  0.00    -0.130 OA 
BRANCH  10  11
HETATM   11  C   UNL     1      -8.249  15.996  66.365  1.00  0.00    -0.274 C  
HETATM   12  C   UNL     1      -7.959  16.093  67.905  1.00  0.00    -0.141 C  
HETATM   13  O   UNL     1      -7.984  16.843  65.520  1.00  0.00    -0.025 OA 
HETATM   14  C   UNL     1      -8.191  17.551  68.366  1.00  0.00    -0.278 A  
HETATM   15  O   UNL     1      -8.905  15.287  68.622  1.00  0.00    -0.169 OA 
HETATM   16  C   UNL     1      -6.505  15.529  68.161  1.00  0.00    -0.133 C  
HETATM   17  C   UNL     1      -5.997  15.632  69.615  1.00  0.00    -0.137 C  
HETATM   18  C   UNL     1      -9.448  17.956  68.867  1.00  0.00    -0.188 A  
HETATM   19  H   UNL     1      -8.730  15.346  69.555  1.00  0.00     0.000 HD 
HETATM   20  C   UNL     1      -6.628  14.616  70.564  1.00  0.00     0.023 C  
HETATM   21  C   UNL     1      -9.687  19.272  69.282  1.00  0.00    -0.292 A  
HETATM   22  C   UNL     1      -8.675  20.222  69.199  1.00  0.00     0.580 A  
HETATM   23  C   UNL     1      -6.444  13.181  70.079  1.00  0.00     0.079 C  
HETATM   24  C   UNL     1      -6.861  12.991  68.630  1.00  0.00    -0.099 C  
HETATM   25  C   UNL     1      -7.434  19.859  68.686  1.00  0.00    -0.276 A  
HETATM   26  C   UNL     1      -7.198  18.543  68.263  1.00  0.00    -0.279 A  
HETATM   27  C   UNL     1      -6.278  14.062  67.719  1.00  0.00    -0.152 C  
ENDBRANCH  10  11
ENDBRANCH   9  10
ENDBRANCH   8   9
TORSDOF 3
ENDMDL
MODEL      164
REMARK 921   NORMALIZED FREE ENERGY PREDICTED BY IDOCK:   -4.01 KCAL/MOL
REMARK 922        TOTAL FREE ENERGY PREDICTED BY IDOCK:   -5.16 KCAL/MOL
REMARK 923 INTER-LIGAND FREE ENERGY PREDICTED BY IDOCK:   -4.76 KCAL/MOL
REMARK 924 INTRA-LIGAND FREE ENERGY PREDICTED BY IDOCK:   -0.40 KCAL/MOL
REMARK 927      BINDING AFFINITY PREDICTED BY RF-SCORE:    0.00 PKD
ROOT
HETATM    1  C   UNL     1      -5.811  12.167  67.326  1.00  0.00    -0.146 C  
HETATM    2  N   UNL     1      -6.803  13.104  67.827  1.00  0.00    -0.133 NA 
HETATM    3  C   UNL     1      -6.292  14.410  68.198  1.00  0.00    -0.141 C  
HETATM    4  C   UNL     1      -7.332  15.396  68.684  1.00  0.00    -0.127 C  
HETATM    5  C   UNL     1      -8.744  14.897  68.886  1.00  0.00    -0.180 C  
HETATM    6  N   UNL     1      -9.013  13.519  68.535  1.00  0.00    -0.329 NA 
HETATM    7  H   UNL     1      -9.954  13.152  68.677  1.00  0.00     0.000 HD 
HETATM    8  C   UNL     1      -8.116  12.742  68.053  1.00  0.00    -0.162 C  
ENDROOT
BRANCH   8   9
HETATM    9  C   UNL     1      -8.561  11.275  67.736  1.00  0.00    -0.126 C  
BRANCH   9  10
HETATM   10  O   UNL     1      -9.433  10.620  68.654  1.00  0.00    -0.161 OA 
BRANCH  10  11
HETATM   11  C   UNL     1      -8.809   9.869  69.625  1.00  0.00    -0.208 C  
HETATM   12  C   UNL     1      -9.506   8.465  69.716  1.00  0.00    -0.162 C  
HETATM   13  O   UNL     1      -7.850  10.249  70.287  1.00  0.00    -0.156 OA 
HETATM   14  C   UNL     1      -9.529   8.013  71.196  1.00  0.00    -0.181 A  
HETATM   15  O   UNL     1     -10.876   8.582  69.309  1.00  0.00    -0.374 OA 
HETATM   16  C   UNL     1      -8.758   7.488  68.725  1.00  0.00    -0.128 C  
HETATM   17  C   UNL     1      -9.239   6.021  68.745  1.00  0.00    -0.123 C  
HETATM   18  C   UNL     1     -10.640   8.299  72.018  1.00  0.00    -0.365 A  
HETATM   19  H   UNL     1     -11.298   7.732  69.364  1.00  0.00     0.000 HD 
HETATM   20  C   UNL     1     -10.580   5.801  68.050  1.00  0.00    -0.295 C  
HETATM   21  C   UNL     1     -10.682   7.911  73.363  1.00  0.00    -0.065 A  
HETATM   22  C   UNL     1      -9.606   7.230  73.923  1.00  0.00    -0.322 A  
HETATM   23  C   UNL     1     -10.572   6.297  66.608  1.00  0.00    -0.268 C  
HETATM   24  C   UNL     1     -10.052   7.719  66.476  1.00  0.00    -0.224 C  
HETATM   25  C   UNL     1      -8.487   6.957  73.144  1.00  0.00    -0.133 A  
HETATM   26  C   UNL     1      -8.442   7.354  71.800  1.00  0.00    -0.115 A  
HETATM   27  C   UNL     1      -8.752   7.928  67.240  1.00  0.00    -0.131 C  
ENDBRANCH  10  11
ENDBRANCH   9  10
ENDBRANCH   8   9
TORSDOF 3
ENDMDL
MODEL      165
REMARK 921   NORMALIZED FREE ENERGY PREDICTED BY IDOCK:   -4.01 KCAL/MOL
REMARK 922        TOTAL FREE ENERGY PREDICTED BY IDOCK:   -5.16 KCAL/MOL
REMARK 923 INTER-LIGAND FREE ENERGY PREDICTED BY IDOCK:   -4.41 KCAL/MOL
REMARK 924 INTRA-LIGAND FREE ENERGY PREDICTED BY IDOCK:   -0.75 KCAL/MOL
REMARK 927      BINDING AFFINITY PREDICTED BY RF-SCORE:    0.00 PKD
ROOT
HETATM    1  C   UNL     1     -11.001   6.435  67.455  1.00  0.00    -0.364 C  
HETATM    2  N   UNL     1     -10.613   6.574  68.850  1.00  0.00    -0.217 NA 
HETATM    3  C   UNL     1     -11.707   6.566  69.802  1.00  0.00    -0.226 C  
HETATM    4  C   UNL     1     -11.300   6.673  71.255  1.00  0.00    -0.346 C  
HETATM    5  C   UNL     1      -9.844   6.933  71.567  1.00  0.00    -0.169 C  
HETATM    6  N   UNL     1      -8.930   6.996  70.446  1.00  0.00    -0.155 NA 
HETATM    7  H   UNL     1      -7.945   7.187  70.627  1.00  0.00     0.000 HD 
HETATM    8  C   UNL     1      -9.311   6.821  69.236  1.00  0.00    -0.144 C  
ENDROOT
BRANCH   8   9
HETATM    9  C   UNL     1      -8.204   6.933  68.134  1.00  0.00    -0.119 C  
BRANCH   9  10
HETATM   10  O   UNL     1      -7.554   8.188  67.955  1.00  0.00    -0.098 OA 
BRANCH  10  11
HETATM   11  C   UNL     1      -8.146   9.034  67.044  1.00  0.00    -0.106 C  
HETATM   12  C   UNL     1      -8.206  10.482  67.648  1.00  0.00    -0.111 C  
HETATM   13  O   UNL     1      -8.537   8.693  65.933  1.00  0.00    -0.138 OA 
HETATM   14  C   UNL     1      -9.523  11.157  67.197  1.00  0.00    -0.187 A  
HETATM   15  O   UNL     1      -8.264  10.402  69.079  1.00  0.00    -0.121 OA 
HETATM   16  C   UNL     1      -6.883  11.237  67.229  1.00  0.00    -0.108 C  
HETATM   17  C   UNL     1      -6.802  12.720  67.649  1.00  0.00    -0.147 C  
HETATM   18  C   UNL     1     -10.683  11.082  68.000  1.00  0.00    -0.260 A  
HETATM   19  H   UNL     1      -8.301  11.278  69.445  1.00  0.00     0.000 HD 
HETATM   20  C   UNL     1      -6.523  12.926  69.137  1.00  0.00    -0.108 C  
HETATM   21  C   UNL     1     -11.889  11.676  67.611  1.00  0.00    -0.216 A  
HETATM   22  C   UNL     1     -11.970  12.356  66.400  1.00  0.00    -0.346 A  
HETATM   23  C   UNL     1      -5.253  12.214  69.591  1.00  0.00    -0.073 C  
HETATM   24  C   UNL     1      -5.212  10.755  69.167  1.00  0.00    -0.041 C  
HETATM   25  C   UNL     1     -10.852  12.424  65.576  1.00  0.00    -0.316 A  
HETATM   26  C   UNL     1      -9.646  11.822  65.963  1.00  0.00    -0.248 A  
HETATM   27  C   UNL     1      -5.566  10.573  67.697  1.00  0.00    -0.044 C  
ENDBRANCH  10  11
ENDBRANCH   9  10
ENDBRANCH   8   9
TORSDOF 3
ENDMDL
MODEL      166
REMARK 921   NORMALIZED FREE ENERGY PREDICTED BY IDOCK:   -3.95 KCAL/MOL
REMARK 922        TOTAL FREE ENERGY PREDICTED BY IDOCK:   -5.10 KCAL/MOL
REMARK 923 INTER-LIGAND FREE ENERGY PREDICTED BY IDOCK:   -4.56 KCAL/MOL
REMARK 924 INTRA-LIGAND FREE ENERGY PREDICTED BY IDOCK:   -0.53 KCAL/MOL
REMARK 927      BINDING AFFINITY PREDICTED BY RF-SCORE:    0.00 PKD
ROOT
HETATM    1  C   UNL     1      -6.205   5.410  68.976  1.00  0.00    -0.033 C  
HETATM    2  N   UNL     1      -7.471   5.245  68.280  1.00  0.00    -0.075 NA 
HETATM    3  C   UNL     1      -7.786   3.887  67.878  1.00  0.00    -0.074 C  
HETATM    4  C   UNL     1      -9.120   3.711  67.187  1.00  0.00    -0.189 C  
HETATM    5  C   UNL     1      -9.912   4.952  66.844  1.00  0.00    -0.217 C  
HETATM    6  N   UNL     1      -9.359   6.223  67.263  1.00  0.00    -0.117 NA 
HETATM    7  H   UNL     1      -9.864   7.078  67.029  1.00  0.00     0.000 HD 
HETATM    8  C   UNL     1      -8.261   6.317  67.915  1.00  0.00    -0.114 C  
ENDROOT
BRANCH   8   9
HETATM    9  C   UNL     1      -7.791   7.764  68.284  1.00  0.00    -0.121 C  
BRANCH   9  10
HETATM   10  O   UNL     1      -7.603   8.083  69.660  1.00  0.00    -0.092 OA 
BRANCH  10  11
HETATM   11  C   UNL     1      -8.686   8.661  70.284  1.00  0.00    -0.147 C  
HETATM   12  C   UNL     1      -9.150   7.740  71.468  1.00  0.00    -0.133 C  
HETATM   13  O   UNL     1      -9.180   9.736  69.961  1.00  0.00    -0.222 OA 
HETATM   14  C   UNL     1     -10.693   7.792  71.566  1.00  0.00    -0.255 A  
HETATM   15  O   UNL     1      -8.809   6.378  71.178  1.00  0.00    -0.137 OA 
HETATM   16  C   UNL     1      -8.377   8.198  72.768  1.00  0.00    -0.240 C  
HETATM   17  C   UNL     1      -8.775   7.470  74.070  1.00  0.00    -0.283 C  
HETATM   18  C   UNL     1     -11.489   6.840  70.892  1.00  0.00    -0.384 A  
HETATM   19  H   UNL     1      -9.090   5.820  71.895  1.00  0.00     0.000 HD 
HETATM   20  C   UNL     1      -8.233   6.046  74.172  1.00  0.00    -0.105 C  
HETATM   21  C   UNL     1     -12.888   6.869  70.956  1.00  0.00    -0.220 A  
HETATM   22  C   UNL     1     -13.529   7.860  71.692  1.00  0.00    -0.386 A  
HETATM   23  C   UNL     1      -6.717   5.992  74.021  1.00  0.00    -0.080 C  
HETATM   24  C   UNL     1      -6.220   6.738  72.794  1.00  0.00    -0.054 C  
HETATM   25  C   UNL     1     -12.772   8.827  72.346  1.00  0.00    -0.433 A  
HETATM   26  C   UNL     1     -11.372   8.801  72.274  1.00  0.00    -0.356 A  
HETATM   27  C   UNL     1      -6.833   8.127  72.679  1.00  0.00    -0.099 C  
ENDBRANCH  10  11
ENDBRANCH   9  10
ENDBRANCH   8   9
TORSDOF 3
ENDMDL
MODEL      167
REMARK 921   NORMALIZED FREE ENERGY PREDICTED BY IDOCK:   -3.94 KCAL/MOL
REMARK 922        TOTAL FREE ENERGY PREDICTED BY IDOCK:   -5.08 KCAL/MOL
REMARK 923 INTER-LIGAND FREE ENERGY PREDICTED BY IDOCK:   -4.58 KCAL/MOL
REMARK 924 INTRA-LIGAND FREE ENERGY PREDICTED BY IDOCK:   -0.50 KCAL/MOL
REMARK 927      BINDING AFFINITY PREDICTED BY RF-SCORE:    0.00 PKD
ROOT
HETATM    1  C   UNL     1      -9.571  12.716  67.832  1.00  0.00    -0.211 C  
HETATM    2  N   UNL     1     -10.116  12.648  66.485  1.00  0.00    -0.243 NA 
HETATM    3  C   UNL     1     -10.106  13.896  65.747  1.00  0.00    -0.320 C  
HETATM    4  C   UNL     1     -10.638  13.816  64.334  1.00  0.00    -0.316 C  
HETATM    5  C   UNL     1     -11.263  12.516  63.883  1.00  0.00    -0.436 C  
HETATM    6  N   UNL     1     -11.248  11.415  64.825  1.00  0.00    -0.189 NA 
HETATM    7  H   UNL     1     -11.679  10.532  64.553  1.00  0.00     0.000 HD 
HETATM    8  C   UNL     1     -10.715  11.509  65.986  1.00  0.00    -0.281 C  
ENDROOT
BRANCH   8   9
HETATM    9  C   UNL     1     -10.791  10.234  66.892  1.00  0.00    -0.135 C  
BRANCH   9  10
HETATM   10  O   UNL     1      -9.720   9.297  66.830  1.00  0.00    -0.164 OA 
BRANCH  10  11
HETATM   11  C   UNL     1     -10.058   7.996  67.129  1.00  0.00    -0.263 C  
HETATM   12  C   UNL     1      -8.867   7.317  67.895  1.00  0.00    -0.128 C  
HETATM   13  O   UNL     1     -11.133   7.477  66.850  1.00  0.00    -0.184 OA 
HETATM   14  C   UNL     1      -8.770   5.837  67.456  1.00  0.00    -0.107 A  
HETATM   15  O   UNL     1      -7.633   7.935  67.506  1.00  0.00    -0.100 OA 
HETATM   16  C   UNL     1      -9.092   7.548  69.442  1.00  0.00    -0.142 C  
HETATM   17  C   UNL     1      -8.068   6.864  70.373  1.00  0.00    -0.116 C  
HETATM   18  C   UNL     1      -7.925   5.456  66.390  1.00  0.00    -0.104 A  
HETATM   19  H   UNL     1      -6.912   7.525  67.969  1.00  0.00     0.000 HD 
HETATM   20  C   UNL     1      -6.705   7.552  70.404  1.00  0.00    -0.047 C  
HETATM   21  C   UNL     1      -7.826   4.125  65.967  1.00  0.00    -0.094 A  
HETATM   22  C   UNL     1      -8.577   3.138  66.596  1.00  0.00    -0.120 A  
HETATM   23  C   UNL     1      -6.810   9.025  70.784  1.00  0.00    -0.075 C  
HETATM   24  C   UNL     1      -7.843   9.775  69.960  1.00  0.00    -0.188 C  
HETATM   25  C   UNL     1      -9.437   3.487  67.633  1.00  0.00    -0.233 A  
HETATM   26  C   UNL     1      -9.542   4.821  68.050  1.00  0.00    -0.199 A  
HETATM   27  C   UNL     1      -9.169   9.030  69.885  1.00  0.00    -0.181 C  
ENDBRANCH  10  11
ENDBRANCH   9  10
ENDBRANCH   8   9
TORSDOF 3
ENDMDL
MODEL      168
REMARK 921   NORMALIZED FREE ENERGY PREDICTED BY IDOCK:   -3.86 KCAL/MOL
REMARK 922        TOTAL FREE ENERGY PREDICTED BY IDOCK:   -4.98 KCAL/MOL
REMARK 923 INTER-LIGAND FREE ENERGY PREDICTED BY IDOCK:   -4.47 KCAL/MOL
REMARK 924 INTRA-LIGAND FREE ENERGY PREDICTED BY IDOCK:   -0.51 KCAL/MOL
REMARK 927      BINDING AFFINITY PREDICTED BY RF-SCORE:    0.00 PKD
ROOT
HETATM    1  C   UNL     1      -7.953  12.218  68.038  1.00  0.00    -0.150 C  
HETATM    2  N   UNL     1      -9.338  11.918  68.364  1.00  0.00    -0.200 NA 
HETATM    3  C   UNL     1     -10.283  12.987  68.103  1.00  0.00    -0.239 C  
HETATM    4  C   UNL     1     -11.728  12.661  68.407  1.00  0.00    -0.377 C  
HETATM    5  C   UNL     1     -12.031  11.345  69.087  1.00  0.00    -0.328 C  
HETATM    6  N   UNL     1     -10.913  10.461  69.340  1.00  0.00    -0.235 NA 
HETATM    7  H   UNL     1     -11.087   9.574  69.813  1.00  0.00     0.000 HD 
HETATM    8  C   UNL     1      -9.714  10.748  68.993  1.00  0.00    -0.187 C  
ENDROOT
BRANCH   8   9
HETATM    9  C   UNL     1      -8.613   9.693  69.349  1.00  0.00    -0.158 C  
BRANCH   9  10
HETATM   10  O   UNL     1      -8.639   9.100  70.644  1.00  0.00    -0.189 OA 
BRANCH  10  11
HETATM   11  C   UNL     1      -7.977   7.898  70.755  1.00  0.00    -0.100 C  
HETATM   12  C   UNL     1      -8.734   6.987  71.786  1.00  0.00    -0.122 C  
HETATM   13  O   UNL     1      -6.970   7.599  70.123  1.00  0.00    -0.049 OA 
HETATM   14  C   UNL     1      -7.694   6.168  72.587  1.00  0.00    -0.102 A  
HETATM   15  O   UNL     1      -9.420   7.810  72.740  1.00  0.00    -0.173 OA 
HETATM   16  C   UNL     1      -9.796   6.131  70.988  1.00  0.00    -0.213 C  
HETATM   17  C   UNL     1     -10.579   5.094  71.822  1.00  0.00    -0.238 C  
HETATM   18  C   UNL     1      -7.191   6.649  73.815  1.00  0.00    -0.083 A  
HETATM   19  H   UNL     1      -9.878   7.259  73.364  1.00  0.00     0.000 HD 
HETATM   20  C   UNL     1     -11.652   5.706  72.719  1.00  0.00    -0.289 C  
HETATM   21  C   UNL     1      -6.242   5.932  74.555  1.00  0.00    -0.069 A  
HETATM   22  C   UNL     1      -5.765   4.716  74.080  1.00  0.00    -0.017 A  
HETATM   23  C   UNL     1     -12.645   6.558  71.935  1.00  0.00    -0.238 C  
HETATM   24  C   UNL     1     -11.965   7.573  71.031  1.00  0.00    -0.317 C  
HETATM   25  C   UNL     1      -6.224   4.228  72.860  1.00  0.00    -0.017 A  
HETATM   26  C   UNL     1      -7.168   4.951  72.116  1.00  0.00    -0.080 A  
HETATM   27  C   UNL     1     -10.850   6.950  70.203  1.00  0.00    -0.300 C  
ENDBRANCH  10  11
ENDBRANCH   9  10
ENDBRANCH   8   9
TORSDOF 3
ENDMDL
MODEL      169
REMARK 921   NORMALIZED FREE ENERGY PREDICTED BY IDOCK:   -3.82 KCAL/MOL
REMARK 922        TOTAL FREE ENERGY PREDICTED BY IDOCK:   -4.94 KCAL/MOL
REMARK 923 INTER-LIGAND FREE ENERGY PREDICTED BY IDOCK:   -4.82 KCAL/MOL
REMARK 924 INTRA-LIGAND FREE ENERGY PREDICTED BY IDOCK:   -0.12 KCAL/MOL
REMARK 927      BINDING AFFINITY PREDICTED BY RF-SCORE:    0.00 PKD
ROOT
HETATM    1  C   UNL     1     -10.236   7.587  68.183  1.00  0.00    -0.189 C  
HETATM    2  N   UNL     1      -9.451   7.427  66.969  1.00  0.00    -0.149 NA 
HETATM    3  C   UNL     1      -8.566   6.278  66.949  1.00  0.00    -0.113 C  
HETATM    4  C   UNL     1      -7.777   6.092  65.672  1.00  0.00    -0.092 C  
HETATM    5  C   UNL     1      -7.858   7.177  64.623  1.00  0.00    -0.123 C  
HETATM    6  N   UNL     1      -8.742   8.291  64.893  1.00  0.00    -0.395 NA 
HETATM    7  H   UNL     1      -8.803   9.046  64.210  1.00  0.00     0.000 HD 
HETATM    8  C   UNL     1      -9.451   8.367  65.958  1.00  0.00    -0.154 C  
ENDROOT
BRANCH   8   9
HETATM    9  C   UNL     1     -10.347   9.641  66.110  1.00  0.00    -0.132 C  
BRANCH   9  10
HETATM   10  O   UNL     1     -10.261  10.388  67.320  1.00  0.00    -0.190 OA 
BRANCH  10  11
HETATM   11  C   UNL     1     -10.793  11.656  67.269  1.00  0.00    -0.256 C  
HETATM   12  C   UNL     1      -9.911  12.620  68.141  1.00  0.00    -0.225 C  
HETATM   13  O   UNL     1     -11.786  11.967  66.622  1.00  0.00    -0.591 OA 
HETATM   14  C   UNL     1     -10.834  13.649  68.836  1.00  0.00    -0.264 A  
HETATM   15  O   UNL     1      -9.278  11.873  69.190  1.00  0.00    -0.371 OA 
HETATM   16  C   UNL     1      -8.797  13.237  67.205  1.00  0.00    -0.216 C  
HETATM   17  C   UNL     1      -7.885  14.293  67.863  1.00  0.00    -0.156 C  
HETATM   18  C   UNL     1     -11.339  13.404  70.132  1.00  0.00     0.074 A  
HETATM   19  H   UNL     1      -8.745  12.456  69.717  1.00  0.00     0.000 HD 
HETATM   20  C   UNL     1      -6.848  13.706  68.817  1.00  0.00    -0.107 C  
HETATM   21  C   UNL     1     -12.183  14.315  70.779  1.00  0.00    -0.423 A  
HETATM   22  C   UNL     1     -12.551  15.494  70.142  1.00  0.00    -0.304 A  
HETATM   23  C   UNL     1      -5.975  12.652  68.144  1.00  0.00    -0.081 C  
HETATM   24  C   UNL     1      -6.786  11.595  67.412  1.00  0.00    -0.108 C  
HETATM   25  C   UNL     1     -12.090  15.752  68.855  1.00  0.00    -0.139 A  
HETATM   26  C   UNL     1     -11.251  14.836  68.205  1.00  0.00    -0.307 A  
HETATM   27  C   UNL     1      -7.861  12.208  66.525  1.00  0.00     0.190 C  
ENDBRANCH  10  11
ENDBRANCH   9  10
ENDBRANCH   8   9
TORSDOF 3
ENDMDL
MODEL      170
REMARK 921   NORMALIZED FREE ENERGY PREDICTED BY IDOCK:   -3.81 KCAL/MOL
REMARK 922        TOTAL FREE ENERGY PREDICTED BY IDOCK:   -4.93 KCAL/MOL
REMARK 923 INTER-LIGAND FREE ENERGY PREDICTED BY IDOCK:   -4.39 KCAL/MOL
REMARK 924 INTRA-LIGAND FREE ENERGY PREDICTED BY IDOCK:   -0.54 KCAL/MOL
REMARK 927      BINDING AFFINITY PREDICTED BY RF-SCORE:    0.00 PKD
ROOT
HETATM    1  C   UNL     1      -6.626  10.739  66.815  1.00  0.00    -0.105 C  
HETATM    2  N   UNL     1      -7.157  10.041  65.655  1.00  0.00    -0.112 NA 
HETATM    3  C   UNL     1      -6.404  10.213  64.428  1.00  0.00    -0.127 C  
HETATM    4  C   UNL     1      -6.936   9.456  63.231  1.00  0.00    -0.096 C  
HETATM    5  C   UNL     1      -8.257   8.736  63.376  1.00  0.00    -0.170 C  
HETATM    6  N   UNL     1      -8.888   8.772  64.679  1.00  0.00    -0.407 NA 
HETATM    7  H   UNL     1      -9.788   8.309  64.801  1.00  0.00     0.000 HD 
HETATM    8  C   UNL     1      -8.359   9.362  65.686  1.00  0.00    -0.124 C  
ENDROOT
BRANCH   8   9
HETATM    9  C   UNL     1      -9.172   9.322  67.023  1.00  0.00    -0.138 C  
BRANCH   9  10
HETATM   10  O   UNL     1      -8.701   8.484  68.075  1.00  0.00    -0.140 OA 
BRANCH  10  11
HETATM   11  C   UNL     1      -9.083   7.164  67.992  1.00  0.00    -0.132 C  
HETATM   12  C   UNL     1      -9.302   6.599  69.440  1.00  0.00    -0.147 C  
HETATM   13  O   UNL     1      -9.241   6.552  66.941  1.00  0.00    -0.131 OA 
HETATM   14  C   UNL     1      -8.830   5.126  69.479  1.00  0.00    -0.120 A  
HETATM   15  O   UNL     1      -8.469   7.313  70.364  1.00  0.00    -0.136 OA 
HETATM   16  C   UNL     1     -10.816   6.832  69.827  1.00  0.00    -0.316 C  
HETATM   17  C   UNL     1     -11.253   6.250  71.189  1.00  0.00    -0.365 C  
HETATM   18  C   UNL     1      -7.510   4.803  69.861  1.00  0.00    -0.055 A  
HETATM   19  H   UNL     1      -8.601   6.971  71.241  1.00  0.00     0.000 HD 
HETATM   20  C   UNL     1     -10.756   7.051  72.390  1.00  0.00    -0.262 C  
HETATM   21  C   UNL     1      -7.055   3.478  69.895  1.00  0.00    -0.041 A  
HETATM   22  C   UNL     1      -7.909   2.441  69.539  1.00  0.00    -0.050 A  
HETATM   23  C   UNL     1     -11.176   8.515  72.323  1.00  0.00    -0.432 C  
HETATM   24  C   UNL     1     -10.843   9.163  70.989  1.00  0.00    -0.362 C  
HETATM   25  C   UNL     1      -9.208   2.731  69.133  1.00  0.00    -0.215 A  
HETATM   26  C   UNL     1      -9.660   4.057  69.092  1.00  0.00    -0.233 A  
HETATM   27  C   UNL     1     -11.283   8.308  69.809  1.00  0.00     0.029 C  
ENDBRANCH  10  11
ENDBRANCH   9  10
ENDBRANCH   8   9
TORSDOF 3
ENDMDL
MODEL      171
REMARK 921   NORMALIZED FREE ENERGY PREDICTED BY IDOCK:   -3.80 KCAL/MOL
REMARK 922        TOTAL FREE ENERGY PREDICTED BY IDOCK:   -4.92 KCAL/MOL
REMARK 923 INTER-LIGAND FREE ENERGY PREDICTED BY IDOCK:   -4.70 KCAL/MOL
REMARK 924 INTRA-LIGAND FREE ENERGY PREDICTED BY IDOCK:   -0.22 KCAL/MOL
REMARK 927      BINDING AFFINITY PREDICTED BY RF-SCORE:    0.00 PKD
ROOT
HETATM    1  C   UNL     1     -13.336  11.021  71.734  1.00  0.00    -0.296 C  
HETATM    2  N   UNL     1     -12.757   9.755  71.317  1.00  0.00    -0.346 NA 
HETATM    3  C   UNL     1     -12.950   8.650  72.237  1.00  0.00    -0.381 C  
HETATM    4  C   UNL     1     -12.379   7.325  71.784  1.00  0.00    -0.375 C  
HETATM    5  C   UNL     1     -11.544   7.304  70.525  1.00  0.00    -0.258 C  
HETATM    6  N   UNL     1     -11.404   8.552  69.805  1.00  0.00    -0.448 NA 
HETATM    7  H   UNL     1     -10.832   8.570  68.962  1.00  0.00     0.000 HD 
HETATM    8  C   UNL     1     -11.972   9.635  70.187  1.00  0.00     0.039 C  
ENDROOT
BRANCH   8   9
HETATM    9  C   UNL     1     -11.714  10.905  69.307  1.00  0.00    -0.324 C  
BRANCH   9  10
HETATM   10  O   UNL     1     -10.557  11.691  69.579  1.00  0.00    -0.053 OA 
BRANCH  10  11
HETATM   11  C   UNL     1      -9.456  11.406  68.804  1.00  0.00    -0.119 C  
HETATM   12  C   UNL     1      -9.427  12.377  67.571  1.00  0.00    -0.187 C  
HETATM   13  O   UNL     1      -8.629  10.540  69.067  1.00  0.00    -0.144 OA 
HETATM   14  C   UNL     1      -8.893  11.607  66.341  1.00  0.00    -0.182 A  
HETATM   15  O   UNL     1     -10.766  12.779  67.246  1.00  0.00    -0.234 OA 
HETATM   16  C   UNL     1      -8.593  13.655  67.981  1.00  0.00    -0.175 C  
HETATM   17  C   UNL     1      -8.367  14.691  66.859  1.00  0.00    -0.159 C  
HETATM   18  C   UNL     1      -9.783  10.965  65.451  1.00  0.00    -0.287 A  
HETATM   19  H   UNL     1     -10.749  13.367  66.500  1.00  0.00     0.000 HD 
HETATM   20  C   UNL     1      -9.604  15.525  66.530  1.00  0.00    -0.295 C  
HETATM   21  C   UNL     1      -9.325  10.253  64.336  1.00  0.00    -0.329 A  
HETATM   22  C   UNL     1      -7.961  10.159  64.084  1.00  0.00    -0.154 A  
HETATM   23  C   UNL     1     -10.160  16.241  67.757  1.00  0.00    -0.252 C  
HETATM   24  C   UNL     1     -10.360  15.311  68.942  1.00  0.00    -0.243 C  
HETATM   25  C   UNL     1      -7.059  10.759  64.956  1.00  0.00     0.207 A  
HETATM   26  C   UNL     1      -7.518  11.465  66.078  1.00  0.00     0.206 A  
HETATM   27  C   UNL     1      -9.138  14.439  69.200  1.00  0.00     0.088 C  
ENDBRANCH  10  11
ENDBRANCH   9  10
ENDBRANCH   8   9
TORSDOF 3
ENDMDL
MODEL      172
REMARK 921   NORMALIZED FREE ENERGY PREDICTED BY IDOCK:   -3.79 KCAL/MOL
REMARK 922        TOTAL FREE ENERGY PREDICTED BY IDOCK:   -4.91 KCAL/MOL
REMARK 923 INTER-LIGAND FREE ENERGY PREDICTED BY IDOCK:   -4.99 KCAL/MOL
REMARK 924 INTRA-LIGAND FREE ENERGY PREDICTED BY IDOCK:    0.08 KCAL/MOL
REMARK 927      BINDING AFFINITY PREDICTED BY RF-SCORE:    0.00 PKD
ROOT
HETATM    1  C   UNL     1     -11.047   9.896  67.442  1.00  0.00    -0.030 C  
HETATM    2  N   UNL     1     -11.197  11.311  67.744  1.00  0.00    -0.271 NA 
HETATM    3  C   UNL     1     -10.864  12.216  66.660  1.00  0.00    -0.268 C  
HETATM    4  C   UNL     1     -11.056  13.685  66.964  1.00  0.00    -0.313 C  
HETATM    5  C   UNL     1     -11.414  14.077  68.379  1.00  0.00    -0.306 C  
HETATM    6  N   UNL     1     -11.610  13.004  69.331  1.00  0.00    -0.313 NA 
HETATM    7  H   UNL     1     -11.835  13.241  70.297  1.00  0.00     0.000 HD 
HETATM    8  C   UNL     1     -11.512  11.769  69.007  1.00  0.00    -0.297 C  
ENDROOT
BRANCH   8   9
HETATM    9  C   UNL     1     -11.741  10.728  70.154  1.00  0.00    -0.339 C  
BRANCH   9  10
HETATM   10  O   UNL     1     -10.946   9.545  70.162  1.00  0.00    -0.236 OA 
BRANCH  10  11
HETATM   11  C   UNL     1     -10.710   9.002  71.404  1.00  0.00    -0.331 C  
HETATM   12  C   UNL     1      -9.673   7.831  71.266  1.00  0.00    -0.157 C  
HETATM   13  O   UNL     1     -11.223   9.400  72.444  1.00  0.00     0.158 OA 
HETATM   14  C   UNL     1     -10.047   6.711  72.265  1.00  0.00    -0.191 A  
HETATM   15  O   UNL     1      -9.773   7.254  69.957  1.00  0.00    -0.174 OA 
HETATM   16  C   UNL     1      -8.226   8.442  71.449  1.00  0.00    -0.172 C  
HETATM   17  C   UNL     1      -7.068   7.422  71.444  1.00  0.00    -0.063 C  
HETATM   18  C   UNL     1     -10.877   5.640  71.867  1.00  0.00    -0.302 A  
HETATM   19  H   UNL     1      -9.145   6.546  69.873  1.00  0.00     0.000 HD 
HETATM   20  C   UNL     1      -6.731   6.876  70.059  1.00  0.00    -0.052 C  
HETATM   21  C   UNL     1     -11.239   4.619  72.754  1.00  0.00    -0.174 A  
HETATM   22  C   UNL     1     -10.785   4.646  74.068  1.00  0.00    -0.352 A  
HETATM   23  C   UNL     1      -6.415   7.986  69.061  1.00  0.00    -0.040 C  
HETATM   24  C   UNL     1      -7.474   9.076  69.037  1.00  0.00    -0.074 C  
HETATM   25  C   UNL     1      -9.987   5.702  74.496  1.00  0.00    -0.279 A  
HETATM   26  C   UNL     1      -9.631   6.729  73.609  1.00  0.00    -0.224 A  
HETATM   27  C   UNL     1      -7.843   9.549  70.437  1.00  0.00    -0.190 C  
ENDBRANCH  10  11
ENDBRANCH   9  10
ENDBRANCH   8   9
TORSDOF 3
ENDMDL
MODEL      173
REMARK 921   NORMALIZED FREE ENERGY PREDICTED BY IDOCK:   -3.77 KCAL/MOL
REMARK 922        TOTAL FREE ENERGY PREDICTED BY IDOCK:   -4.88 KCAL/MOL
REMARK 923 INTER-LIGAND FREE ENERGY PREDICTED BY IDOCK:   -4.58 KCAL/MOL
REMARK 924 INTRA-LIGAND FREE ENERGY PREDICTED BY IDOCK:   -0.31 KCAL/MOL
REMARK 927      BINDING AFFINITY PREDICTED BY RF-SCORE:    0.00 PKD
ROOT
HETATM    1  C   UNL     1     -11.282   3.324  73.081  1.00  0.00    -0.003 C  
HETATM    2  N   UNL     1      -9.881   3.590  73.366  1.00  0.00    -0.109 NA 
HETATM    3  C   UNL     1      -9.116   2.451  73.837  1.00  0.00    -0.073 C  
HETATM    4  C   UNL     1      -7.650   2.721  74.098  1.00  0.00    -0.047 C  
HETATM    5  C   UNL     1      -7.162   4.148  74.001  1.00  0.00    -0.067 C  
HETATM    6  N   UNL     1      -8.128   5.149  73.600  1.00  0.00    -0.109 NA 
HETATM    7  H   UNL     1      -7.830   6.123  73.544  1.00  0.00     0.000 HD 
HETATM    8  C   UNL     1      -9.343   4.860  73.314  1.00  0.00    -0.123 C  
ENDROOT
BRANCH   8   9
HETATM    9  C   UNL     1     -10.267   6.058  72.910  1.00  0.00    -0.188 C  
BRANCH   9  10
HETATM   10  O   UNL     1     -10.661   6.177  71.546  1.00  0.00    -0.224 OA 
BRANCH  10  11
HETATM   11  C   UNL     1      -9.646   6.471  70.663  1.00  0.00    -0.172 C  
HETATM   12  C   UNL     1     -10.135   7.584  69.669  1.00  0.00    -0.189 C  
HETATM   13  O   UNL     1      -8.537   5.950  70.683  1.00  0.00    -0.129 OA 
HETATM   14  C   UNL     1      -9.534   7.304  68.271  1.00  0.00    -0.141 A  
HETATM   15  O   UNL     1     -11.559   7.501  69.520  1.00  0.00    -0.429 OA 
HETATM   16  C   UNL     1      -9.765   8.988  70.293  1.00  0.00    -0.229 C  
HETATM   17  C   UNL     1     -10.080  10.213  69.410  1.00  0.00    -0.250 C  
HETATM   18  C   UNL     1     -10.248   6.543  67.320  1.00  0.00    -0.242 A  
HETATM   19  H   UNL     1     -11.856   8.174  68.918  1.00  0.00     0.000 HD 
HETATM   20  C   UNL     1     -11.565  10.563  69.344  1.00  0.00    -0.318 C  
HETATM   21  C   UNL     1      -9.722   6.268  66.051  1.00  0.00     0.067 A  
HETATM   22  C   UNL     1      -8.463   6.741  65.703  1.00  0.00    -0.142 A  
HETATM   23  C   UNL     1     -12.168  10.785  70.727  1.00  0.00    -0.480 C  
HETATM   24  C   UNL     1     -11.858   9.654  71.694  1.00  0.00    -0.457 C  
HETATM   25  C   UNL     1      -7.725   7.473  66.629  1.00  0.00    -0.101 A  
HETATM   26  C   UNL     1      -8.248   7.741  67.902  1.00  0.00    -0.123 A  
HETATM   27  C   UNL     1     -10.383   9.277  71.683  1.00  0.00    -0.300 C  
ENDBRANCH  10  11
ENDBRANCH   9  10
ENDBRANCH   8   9
TORSDOF 3
ENDMDL
MODEL      174
REMARK 921   NORMALIZED FREE ENERGY PREDICTED BY IDOCK:   -3.77 KCAL/MOL
REMARK 922        TOTAL FREE ENERGY PREDICTED BY IDOCK:   -4.88 KCAL/MOL
REMARK 923 INTER-LIGAND FREE ENERGY PREDICTED BY IDOCK:   -4.27 KCAL/MOL
REMARK 924 INTRA-LIGAND FREE ENERGY PREDICTED BY IDOCK:   -0.61 KCAL/MOL
REMARK 927      BINDING AFFINITY PREDICTED BY RF-SCORE:    0.00 PKD
ROOT
HETATM    1  C   UNL     1      -7.497   5.759  63.903  1.00  0.00    -0.069 C  
HETATM    2  N   UNL     1      -8.573   4.786  63.803  1.00  0.00    -0.132 NA 
HETATM    3  C   UNL     1      -9.314   4.806  62.556  1.00  0.00    -0.033 C  
HETATM    4  C   UNL     1     -10.409   3.768  62.439  1.00  0.00    -0.179 C  
HETATM    5  C   UNL     1     -10.729   2.933  63.657  1.00  0.00    -0.194 C  
HETATM    6  N   UNL     1      -9.914   3.145  64.835  1.00  0.00    -0.370 NA 
HETATM    7  H   UNL     1     -10.120   2.607  65.676  1.00  0.00     0.000 HD 
HETATM    8  C   UNL     1      -8.946   3.983  64.862  1.00  0.00    -0.134 C  
ENDROOT
BRANCH   8   9
HETATM    9  C   UNL     1      -8.168   4.106  66.215  1.00  0.00    -0.105 C  
BRANCH   9  10
HETATM   10  O   UNL     1      -8.740   4.896  67.254  1.00  0.00    -0.105 OA 
BRANCH  10  11
HETATM   11  C   UNL     1      -9.289   4.188  68.299  1.00  0.00    -0.158 C  
HETATM   12  C   UNL     1      -9.406   5.127  69.552  1.00  0.00    -0.130 C  
HETATM   13  O   UNL     1      -9.642   3.016  68.233  1.00  0.00    -0.180 OA 
HETATM   14  C   UNL     1      -9.119   4.297  70.826  1.00  0.00    -0.173 A  
HETATM   15  O   UNL     1      -8.390   6.137  69.491  1.00  0.00    -0.117 OA 
HETATM   16  C   UNL     1     -10.825   5.821  69.506  1.00  0.00    -0.410 C  
HETATM   17  C   UNL     1     -11.169   6.714  70.717  1.00  0.00    -0.366 C  
HETATM   18  C   UNL     1      -7.813   4.226  71.359  1.00  0.00    -0.080 A  
HETATM   19  H   UNL     1      -8.461   6.705  70.249  1.00  0.00     0.000 HD 
HETATM   20  C   UNL     1     -10.442   8.056  70.721  1.00  0.00    -0.221 C  
HETATM   21  C   UNL     1      -7.524   3.475  72.506  1.00  0.00    -0.051 A  
HETATM   22  C   UNL     1      -8.536   2.768  73.146  1.00  0.00    -0.075 A  
HETATM   23  C   UNL     1     -10.683   8.849  69.440  1.00  0.00    -0.192 C  
HETATM   24  C   UNL     1     -10.429   8.031  68.185  1.00  0.00    -0.222 C  
HETATM   25  C   UNL     1      -9.827   2.798  72.629  1.00  0.00    -0.207 A  
HETATM   26  C   UNL     1     -10.114   3.544  71.477  1.00  0.00    -0.081 A  
HETATM   27  C   UNL     1     -11.106   6.668  68.240  1.00  0.00    -0.283 C  
ENDBRANCH  10  11
ENDBRANCH   9  10
ENDBRANCH   8   9
TORSDOF 3
ENDMDL
MODEL      175
REMARK 921   NORMALIZED FREE ENERGY PREDICTED BY IDOCK:   -3.76 KCAL/MOL
REMARK 922        TOTAL FREE ENERGY PREDICTED BY IDOCK:   -4.87 KCAL/MOL
REMARK 923 INTER-LIGAND FREE ENERGY PREDICTED BY IDOCK:   -4.45 KCAL/MOL
REMARK 924 INTRA-LIGAND FREE ENERGY PREDICTED BY IDOCK:   -0.41 KCAL/MOL
REMARK 927      BINDING AFFINITY PREDICTED BY RF-SCORE:    0.00 PKD
ROOT
HETATM    1  C   UNL     1     -12.110  13.384  67.702  1.00  0.00    -0.269 C  
HETATM    2  N   UNL     1     -11.968  13.148  66.275  1.00  0.00    -0.406 NA 
HETATM    3  C   UNL     1     -12.534  14.171  65.416  1.00  0.00    -0.472 C  
HETATM    4  C   UNL     1     -12.352  13.943  63.932  1.00  0.00    -0.323 C  
HETATM    5  C   UNL     1     -11.756  12.629  63.484  1.00  0.00    -0.531 C  
HETATM    6  N   UNL     1     -11.340  11.705  64.519  1.00  0.00    -0.280 NA 
HETATM    7  H   UNL     1     -10.951  10.804  64.244  1.00  0.00     0.000 HD 
HETATM    8  C   UNL     1     -11.443  11.976  65.766  1.00  0.00    -0.320 C  
ENDROOT
BRANCH   8   9
HETATM    9  C   UNL     1     -10.962  10.868  66.762  1.00  0.00    -0.185 C  
BRANCH   9  10
HETATM   10  O   UNL     1      -9.691  10.265  66.538  1.00  0.00    -0.177 OA 
BRANCH  10  11
HETATM   11  C   UNL     1      -9.138   9.632  67.629  1.00  0.00    -0.131 C  
HETATM   12  C   UNL     1      -7.676  10.161  67.845  1.00  0.00    -0.089 C  
HETATM   13  O   UNL     1      -9.722   8.805  68.320  1.00  0.00    -0.152 OA 
HETATM   14  C   UNL     1      -6.788   8.992  68.332  1.00  0.00    -0.064 A  
HETATM   15  O   UNL     1      -7.129  10.587  66.590  1.00  0.00    -0.104 OA 
HETATM   16  C   UNL     1      -7.750  11.402  68.821  1.00  0.00    -0.135 C  
HETATM   17  C   UNL     1      -6.391  12.005  69.236  1.00  0.00    -0.102 C  
HETATM   18  C   UNL     1      -6.061   8.207  67.409  1.00  0.00    -0.051 A  
HETATM   19  H   UNL     1      -6.244  10.908  66.720  1.00  0.00     0.000 HD 
HETATM   20  C   UNL     1      -5.719  12.827  68.139  1.00  0.00    -0.083 C  
HETATM   21  C   UNL     1      -5.258   7.137  67.823  1.00  0.00    -0.019 A  
HETATM   22  C   UNL     1      -5.167   6.818  69.173  1.00  0.00    -0.013 A  
HETATM   23  C   UNL     1      -6.617  13.946  67.622  1.00  0.00    -0.178 C  
HETATM   24  C   UNL     1      -8.007  13.460  67.244  1.00  0.00    -0.130 C  
HETATM   25  C   UNL     1      -5.891   7.556  70.103  1.00  0.00    -0.024 A  
HETATM   26  C   UNL     1      -6.702   8.623  69.687  1.00  0.00    -0.039 A  
HETATM   27  C   UNL     1      -8.622  12.582  68.326  1.00  0.00    -0.173 C  
ENDBRANCH  10  11
ENDBRANCH   9  10
ENDBRANCH   8   9
TORSDOF 3
ENDMDL
MODEL      176
REMARK 921   NORMALIZED FREE ENERGY PREDICTED BY IDOCK:   -3.75 KCAL/MOL
REMARK 922        TOTAL FREE ENERGY PREDICTED BY IDOCK:   -4.86 KCAL/MOL
REMARK 923 INTER-LIGAND FREE ENERGY PREDICTED BY IDOCK:   -4.41 KCAL/MOL
REMARK 924 INTRA-LIGAND FREE ENERGY PREDICTED BY IDOCK:   -0.45 KCAL/MOL
REMARK 927      BINDING AFFINITY PREDICTED BY RF-SCORE:    0.00 PKD
ROOT
HETATM    1  C   UNL     1      -8.030  10.414  65.554  1.00  0.00    -0.153 C  
HETATM    2  N   UNL     1      -7.984   8.966  65.676  1.00  0.00    -0.095 NA 
HETATM    3  C   UNL     1      -8.023   8.235  64.424  1.00  0.00    -0.144 C  
HETATM    4  C   UNL     1      -7.937   6.731  64.550  1.00  0.00    -0.106 C  
HETATM    5  C   UNL     1      -7.979   6.131  65.937  1.00  0.00    -0.112 C  
HETATM    6  N   UNL     1      -8.034   7.052  67.053  1.00  0.00    -0.114 NA 
HETATM    7  H   UNL     1      -8.081   6.674  67.998  1.00  0.00     0.000 HD 
HETATM    8  C   UNL     1      -8.027   8.324  66.898  1.00  0.00    -0.099 C  
ENDROOT
BRANCH   8   9
HETATM    9  C   UNL     1      -8.103   9.185  68.203  1.00  0.00    -0.104 C  
BRANCH   9  10
HETATM   10  O   UNL     1      -9.359   9.751  68.567  1.00  0.00    -0.139 OA 
BRANCH  10  11
HETATM   11  C   UNL     1     -10.279   8.864  69.079  1.00  0.00    -0.206 C  
HETATM   12  C   UNL     1     -10.982   9.512  70.325  1.00  0.00    -0.269 C  
HETATM   13  O   UNL     1     -10.511   7.756  68.608  1.00  0.00    -0.202 OA 
HETATM   14  C   UNL     1     -11.248   8.410  71.378  1.00  0.00    -0.316 A  
HETATM   15  O   UNL     1     -10.092  10.453  70.941  1.00  0.00    -0.001 OA 
HETATM   16  C   UNL     1     -12.265  10.278  69.812  1.00  0.00    -0.075 C  
HETATM   17  C   UNL     1     -13.150  10.904  70.911  1.00  0.00    -0.237 C  
HETATM   18  C   UNL     1     -10.309   8.152  72.401  1.00  0.00    -0.382 A  
HETATM   19  H   UNL     1     -10.517  10.846  71.695  1.00  0.00     0.000 HD 
HETATM   20  C   UNL     1     -12.563  12.170  71.530  1.00  0.00    -0.267 C  
HETATM   21  C   UNL     1     -10.521   7.154  73.361  1.00  0.00    -0.410 A  
HETATM   22  C   UNL     1     -11.677   6.382  73.317  1.00  0.00     0.574 A  
HETATM   23  C   UNL     1     -12.252  13.235  70.483  1.00  0.00    -0.416 C  
HETATM   24  C   UNL     1     -11.431  12.697  69.322  1.00  0.00    -0.354 C  
HETATM   25  C   UNL     1     -12.607   6.597  72.306  1.00  0.00    -0.058 A  
HETATM   26  C   UNL     1     -12.391   7.591  71.340  1.00  0.00    -0.374 A  
HETATM   27  C   UNL     1     -11.998  11.394  68.773  1.00  0.00    -0.353 C  
ENDBRANCH  10  11
ENDBRANCH   9  10
ENDBRANCH   8   9
TORSDOF 3
ENDMDL
MODEL      177
REMARK 921   NORMALIZED FREE ENERGY PREDICTED BY IDOCK:   -3.75 KCAL/MOL
REMARK 922        TOTAL FREE ENERGY PREDICTED BY IDOCK:   -4.86 KCAL/MOL
REMARK 923 INTER-LIGAND FREE ENERGY PREDICTED BY IDOCK:   -5.63 KCAL/MOL
REMARK 924 INTRA-LIGAND FREE ENERGY PREDICTED BY IDOCK:    0.78 KCAL/MOL
REMARK 927      BINDING AFFINITY PREDICTED BY RF-SCORE:    0.00 PKD
ROOT
HETATM    1  C   UNL     1      -7.607  16.842  66.463  1.00  0.00    -0.298 C  
HETATM    2  N   UNL     1      -8.642  17.844  66.657  1.00  0.00    -0.254 NA 
HETATM    3  C   UNL     1      -8.330  19.166  66.148  1.00  0.00    -0.244 C  
HETATM    4  C   UNL     1      -9.422  20.198  66.318  1.00  0.00    -0.450 C  
HETATM    5  C   UNL     1     -10.643  19.814  67.121  1.00  0.00    -0.449 C  
HETATM    6  N   UNL     1     -10.706  18.456  67.618  1.00  0.00    -0.409 NA 
HETATM    7  H   UNL     1     -11.510  18.176  68.178  1.00  0.00     0.000 HD 
HETATM    8  C   UNL     1      -9.789  17.593  67.383  1.00  0.00    -0.305 C  
ENDROOT
BRANCH   8   9
HETATM    9  C   UNL     1      -9.997  16.170  68.001  1.00  0.00    -0.238 C  
BRANCH   9  10
HETATM   10  O   UNL     1      -9.849  15.036  67.151  1.00  0.00    -0.229 OA 
BRANCH  10  11
HETATM   11  C   UNL     1     -10.144  13.822  67.731  1.00  0.00    -0.245 C  
HETATM   12  C   UNL     1      -8.912  12.862  67.571  1.00  0.00    -0.193 C  
HETATM   13  O   UNL     1     -11.201  13.562  68.296  1.00  0.00    -0.248 OA 
HETATM   14  C   UNL     1      -9.428  11.423  67.335  1.00  0.00    -0.174 A  
HETATM   15  O   UNL     1      -8.172  13.223  66.397  1.00  0.00    -0.226 OA 
HETATM   16  C   UNL     1      -7.987  13.047  68.839  1.00  0.00     0.169 C  
HETATM   17  C   UNL     1      -6.764  12.108  68.913  1.00  0.00    -0.094 C  
HETATM   18  C   UNL     1      -9.617  10.932  66.024  1.00  0.00    -0.248 A  
HETATM   19  H   UNL     1      -7.426  12.642  66.300  1.00  0.00     0.000 HD 
HETATM   20  C   UNL     1      -5.636  12.485  67.956  1.00  0.00    -0.082 C  
HETATM   21  C   UNL     1     -10.091   9.637  65.783  1.00  0.00    -0.274 A  
HETATM   22  C   UNL     1     -10.397   8.799  66.850  1.00  0.00    -0.344 A  
HETATM   23  C   UNL     1      -5.166  13.923  68.154  1.00  0.00    -0.113 C  
HETATM   24  C   UNL     1      -6.312  14.922  68.158  1.00  0.00    -0.142 C  
HETATM   25  C   UNL     1     -10.245   9.263  68.152  1.00  0.00    -0.246 A  
HETATM   26  C   UNL     1      -9.778  10.563  68.393  1.00  0.00    -0.166 A  
HETATM   27  C   UNL     1      -7.454  14.483  69.065  1.00  0.00    -0.131 C  
ENDBRANCH  10  11
ENDBRANCH   9  10
ENDBRANCH   8   9
TORSDOF 3
ENDMDL
MODEL      178
REMARK 921   NORMALIZED FREE ENERGY PREDICTED BY IDOCK:   -3.75 KCAL/MOL
REMARK 922        TOTAL FREE ENERGY PREDICTED BY IDOCK:   -4.85 KCAL/MOL
REMARK 923 INTER-LIGAND FREE ENERGY PREDICTED BY IDOCK:   -4.40 KCAL/MOL
REMARK 924 INTRA-LIGAND FREE ENERGY PREDICTED BY IDOCK:   -0.46 KCAL/MOL
REMARK 927      BINDING AFFINITY PREDICTED BY RF-SCORE:    0.00 PKD
ROOT
HETATM    1  C   UNL     1      -7.633  13.313  67.671  1.00  0.00    -0.170 C  
HETATM    2  N   UNL     1      -9.078  13.219  67.809  1.00  0.00    -0.192 NA 
HETATM    3  C   UNL     1      -9.774  14.487  67.923  1.00  0.00    -0.218 C  
HETATM    4  C   UNL     1     -11.280  14.389  68.029  1.00  0.00    -0.298 C  
HETATM    5  C   UNL     1     -11.895  13.015  68.164  1.00  0.00    -0.340 C  
HETATM    6  N   UNL     1     -10.995  11.882  68.118  1.00  0.00    -0.213 NA 
HETATM    7  H   UNL     1     -11.381  10.945  68.224  1.00  0.00     0.000 HD 
HETATM    8  C   UNL     1      -9.732  12.011  67.948  1.00  0.00    -0.194 C  
ENDROOT
BRANCH   8   9
HETATM    9  C   UNL     1      -8.892  10.690  67.933  1.00  0.00    -0.131 C  
BRANCH   9  10
HETATM   10  O   UNL     1      -9.113   9.737  68.969  1.00  0.00    -0.143 OA 
BRANCH  10  11
HETATM   11  C   UNL     1      -8.966   8.419  68.598  1.00  0.00    -0.140 C  
HETATM   12  C   UNL     1      -9.062   7.511  69.876  1.00  0.00    -0.144 C  
HETATM   13  O   UNL     1      -8.808   8.037  67.444  1.00  0.00    -0.129 OA 
HETATM   14  C   UNL     1      -8.078   6.327  69.721  1.00  0.00    -0.120 A  
HETATM   15  O   UNL     1      -8.625   8.252  71.024  1.00  0.00    -0.127 OA 
HETATM   16  C   UNL     1     -10.577   7.107  70.070  1.00  0.00    -0.248 C  
HETATM   17  C   UNL     1     -10.861   6.126  71.228  1.00  0.00    -0.322 C  
HETATM   18  C   UNL     1      -6.763   6.413  70.231  1.00  0.00    -0.053 A  
HETATM   19  H   UNL     1      -8.683   7.703  71.797  1.00  0.00     0.000 HD 
HETATM   20  C   UNL     1     -10.787   6.766  72.612  1.00  0.00    -0.282 C  
HETATM   21  C   UNL     1      -5.850   5.360  70.096  1.00  0.00    -0.017 A  
HETATM   22  C   UNL     1      -6.227   4.193  69.440  1.00  0.00    -0.028 A  
HETATM   23  C   UNL     1     -11.719   7.967  72.744  1.00  0.00    -0.352 C  
HETATM   24  C   UNL     1     -11.557   8.966  71.610  1.00  0.00    -0.408 C  
HETATM   25  C   UNL     1      -7.507   4.089  68.906  1.00  0.00    -0.055 A  
HETATM   26  C   UNL     1      -8.418   5.148  69.034  1.00  0.00    -0.090 A  
HETATM   27  C   UNL     1     -11.560   8.291  70.245  1.00  0.00     0.017 C  
ENDBRANCH  10  11
ENDBRANCH   9  10
ENDBRANCH   8   9
TORSDOF 3
ENDMDL
MODEL      179
REMARK 921   NORMALIZED FREE ENERGY PREDICTED BY IDOCK:   -3.73 KCAL/MOL
REMARK 922        TOTAL FREE ENERGY PREDICTED BY IDOCK:   -4.84 KCAL/MOL
REMARK 923 INTER-LIGAND FREE ENERGY PREDICTED BY IDOCK:   -4.13 KCAL/MOL
REMARK 924 INTRA-LIGAND FREE ENERGY PREDICTED BY IDOCK:   -0.70 KCAL/MOL
REMARK 927      BINDING AFFINITY PREDICTED BY RF-SCORE:    0.00 PKD
ROOT
HETATM    1  C   UNL     1      -7.629  12.488  68.020  1.00  0.00    -0.127 C  
HETATM    2  N   UNL     1      -9.015  12.794  67.704  1.00  0.00    -0.181 NA 
HETATM    3  C   UNL     1      -9.264  14.146  67.243  1.00  0.00    -0.219 C  
HETATM    4  C   UNL     1     -10.700  14.451  66.880  1.00  0.00    -0.292 C  
HETATM    5  C   UNL     1     -11.745  13.400  67.173  1.00  0.00    -0.379 C  
HETATM    6  N   UNL     1     -11.281  12.144  67.725  1.00  0.00    -0.256 NA 
HETATM    7  H   UNL     1     -11.967  11.424  67.948  1.00  0.00     0.000 HD 
HETATM    8  C   UNL     1     -10.042  11.903  67.944  1.00  0.00    -0.192 C  
ENDROOT
BRANCH   8   9
HETATM    9  C   UNL     1      -9.702  10.502  68.555  1.00  0.00    -0.165 C  
BRANCH   9  10
HETATM   10  O   UNL     1      -9.659   9.377  67.683  1.00  0.00    -0.131 OA 
BRANCH  10  11
HETATM   11  C   UNL     1      -8.484   8.660  67.704  1.00  0.00    -0.125 C  
HETATM   12  C   UNL     1      -8.295   7.941  66.320  1.00  0.00    -0.126 C  
HETATM   13  O   UNL     1      -7.712   8.621  68.655  1.00  0.00    -0.095 OA 
HETATM   14  C   UNL     1      -7.643   6.559  66.561  1.00  0.00    -0.090 A  
HETATM   15  O   UNL     1      -9.578   7.686  65.733  1.00  0.00    -0.413 OA 
HETATM   16  C   UNL     1      -7.483   8.914  65.376  1.00  0.00    -0.086 C  
HETATM   17  C   UNL     1      -7.109   8.341  63.992  1.00  0.00    -0.084 C  
HETATM   18  C   UNL     1      -8.441   5.406  66.727  1.00  0.00    -0.107 A  
HETATM   19  H   UNL     1      -9.464   7.251  64.896  1.00  0.00     0.000 HD 
HETATM   20  C   UNL     1      -8.281   8.269  63.017  1.00  0.00    -0.118 C  
HETATM   21  C   UNL     1      -7.877   4.145  66.955  1.00  0.00    -0.096 A  
HETATM   22  C   UNL     1      -6.496   4.005  67.031  1.00  0.00    -0.041 A  
HETATM   23  C   UNL     1      -8.956   9.623  62.823  1.00  0.00    -0.264 C  
HETATM   24  C   UNL     1      -9.309  10.299  64.138  1.00  0.00    -0.336 C  
HETATM   25  C   UNL     1      -5.684   5.127  66.896  1.00  0.00    -0.018 A  
HETATM   26  C   UNL     1      -6.250   6.391  66.676  1.00  0.00    -0.040 A  
HETATM   27  C   UNL     1      -8.144  10.290  65.119  1.00  0.00    -0.151 C  
ENDBRANCH  10  11
ENDBRANCH   9  10
ENDBRANCH   8   9
TORSDOF 3
ENDMDL
MODEL      180
REMARK 921   NORMALIZED FREE ENERGY PREDICTED BY IDOCK:   -3.73 KCAL/MOL
REMARK 922        TOTAL FREE ENERGY PREDICTED BY IDOCK:   -4.83 KCAL/MOL
REMARK 923 INTER-LIGAND FREE ENERGY PREDICTED BY IDOCK:   -4.36 KCAL/MOL
REMARK 924 INTRA-LIGAND FREE ENERGY PREDICTED BY IDOCK:   -0.47 KCAL/MOL
REMARK 927      BINDING AFFINITY PREDICTED BY RF-SCORE:    0.00 PKD
ROOT
HETATM    1  C   UNL     1     -10.580   7.399  73.575  1.00  0.00    -0.338 C  
HETATM    2  N   UNL     1      -9.433   6.506  73.576  1.00  0.00    -0.138 NA 
HETATM    3  C   UNL     1      -9.582   5.303  74.372  1.00  0.00    -0.147 C  
HETATM    4  C   UNL     1      -8.402   4.357  74.343  1.00  0.00    -0.090 C  
HETATM    5  C   UNL     1      -7.146   4.811  73.636  1.00  0.00    -0.073 C  
HETATM    6  N   UNL     1      -7.188   6.101  72.979  1.00  0.00    -0.084 NA 
HETATM    7  H   UNL     1      -6.349   6.439  72.509  1.00  0.00     0.000 HD 
HETATM    8  C   UNL     1      -8.238   6.834  72.966  1.00  0.00    -0.108 C  
ENDROOT
BRANCH   8   9
HETATM    9  C   UNL     1      -8.120   8.208  72.225  1.00  0.00    -0.139 C  
BRANCH   9  10
HETATM   10  O   UNL     1      -7.827   8.201  70.831  1.00  0.00    -0.083 OA 
BRANCH  10  11
HETATM   11  C   UNL     1      -8.719   8.885  70.037  1.00  0.00    -0.147 C  
HETATM   12  C   UNL     1      -9.008   8.044  68.743  1.00  0.00    -0.141 C  
HETATM   13  O   UNL     1      -9.213   9.969  70.325  1.00  0.00    -0.149 OA 
HETATM   14  C   UNL     1      -9.176   9.010  67.546  1.00  0.00    -0.152 A  
HETATM   15  O   UNL     1      -7.872   7.222  68.441  1.00  0.00    -0.117 OA 
HETATM   16  C   UNL     1     -10.251   7.113  69.038  1.00  0.00    -0.191 C  
HETATM   17  C   UNL     1     -10.753   6.274  67.844  1.00  0.00    -0.380 C  
HETATM   18  C   UNL     1      -8.072   9.348  66.734  1.00  0.00    -0.109 A  
HETATM   19  H   UNL     1      -8.046   6.713  67.658  1.00  0.00     0.000 HD 
HETATM   20  C   UNL     1      -9.860   5.083  67.507  1.00  0.00    -0.201 C  
HETATM   21  C   UNL     1      -8.195  10.227  65.650  1.00  0.00    -0.153 A  
HETATM   22  C   UNL     1      -9.428  10.798  65.356  1.00  0.00    -0.258 A  
HETATM   23  C   UNL     1      -9.651   4.160  68.704  1.00  0.00    -0.199 C  
HETATM   24  C   UNL     1      -9.213   4.906  69.953  1.00  0.00    -0.178 C  
HETATM   25  C   UNL     1     -10.529  10.504  66.154  1.00  0.00    -0.237 A  
HETATM   26  C   UNL     1     -10.403   9.630  67.243  1.00  0.00    -0.310 A  
HETATM   27  C   UNL     1     -10.076   6.132  70.223  1.00  0.00    -0.237 C  
ENDBRANCH  10  11
ENDBRANCH   9  10
ENDBRANCH   8   9
TORSDOF 3
ENDMDL
MODEL      181
REMARK 921   NORMALIZED FREE ENERGY PREDICTED BY IDOCK:   -3.72 KCAL/MOL
REMARK 922        TOTAL FREE ENERGY PREDICTED BY IDOCK:   -4.82 KCAL/MOL
REMARK 923 INTER-LIGAND FREE ENERGY PREDICTED BY IDOCK:   -4.42 KCAL/MOL
REMARK 924 INTRA-LIGAND FREE ENERGY PREDICTED BY IDOCK:   -0.40 KCAL/MOL
REMARK 927      BINDING AFFINITY PREDICTED BY RF-SCORE:    0.00 PKD
ROOT
HETATM    1  C   UNL     1     -11.887  15.232  68.852  1.00  0.00    -0.320 C  
HETATM    2  N   UNL     1     -12.523  14.535  69.958  1.00  0.00    -0.325 NA 
HETATM    3  C   UNL     1     -12.951  15.376  71.059  1.00  0.00    -0.492 C  
HETATM    4  C   UNL     1     -13.646  14.654  72.192  1.00  0.00    -0.514 C  
HETATM    5  C   UNL     1     -13.689  13.143  72.151  1.00  0.00    -0.495 C  
HETATM    6  N   UNL     1     -13.113  12.498  70.989  1.00  0.00    -0.055 NA 
HETATM    7  H   UNL     1     -13.114  11.480  70.944  1.00  0.00     0.000 HD 
HETATM    8  C   UNL     1     -12.604  13.158  70.016  1.00  0.00     0.051 C  
ENDROOT
BRANCH   8   9
HETATM    9  C   UNL     1     -12.011  12.314  68.838  1.00  0.00    -0.248 C  
BRANCH   9  10
HETATM   10  O   UNL     1     -10.660  11.873  68.937  1.00  0.00    -0.217 OA 
BRANCH  10  11
HETATM   11  C   UNL     1     -10.252  11.000  67.953  1.00  0.00    -0.182 C  
HETATM   12  C   UNL     1      -9.174  11.705  67.054  1.00  0.00    -0.183 C  
HETATM   13  O   UNL     1     -10.662   9.852  67.831  1.00  0.00    -0.238 OA 
HETATM   14  C   UNL     1      -9.369  11.246  65.589  1.00  0.00    -0.245 A  
HETATM   15  O   UNL     1      -9.394  13.122  67.065  1.00  0.00    -0.222 OA 
HETATM   16  C   UNL     1      -7.752  11.400  67.672  1.00  0.00    -0.121 C  
HETATM   17  C   UNL     1      -6.548  11.930  66.866  1.00  0.00    -0.083 C  
HETATM   18  C   UNL     1     -10.180  11.990  64.703  1.00  0.00    -0.313 A  
HETATM   19  H   UNL     1      -8.742  13.549  66.520  1.00  0.00     0.000 HD 
HETATM   20  C   UNL     1      -6.345  13.439  66.980  1.00  0.00     0.779 C  
HETATM   21  C   UNL     1     -10.380  11.591  63.376  1.00  0.00    -0.469 A  
HETATM   22  C   UNL     1      -9.779  10.431  62.901  1.00  0.00    -0.266 A  
HETATM   23  C   UNL     1      -6.207  13.896  68.428  1.00  0.00    -0.101 C  
HETATM   24  C   UNL     1      -7.320  13.370  69.320  1.00  0.00     0.183 C  
HETATM   25  C   UNL     1      -8.995   9.664  63.757  1.00  0.00    -0.251 A  
HETATM   26  C   UNL     1      -8.802  10.059  65.088  1.00  0.00    -0.207 A  
HETATM   27  C   UNL     1      -7.550  11.877  69.131  1.00  0.00     0.115 C  
ENDBRANCH  10  11
ENDBRANCH   9  10
ENDBRANCH   8   9
TORSDOF 3
ENDMDL
MODEL      182
REMARK 921   NORMALIZED FREE ENERGY PREDICTED BY IDOCK:   -3.72 KCAL/MOL
REMARK 922        TOTAL FREE ENERGY PREDICTED BY IDOCK:   -4.82 KCAL/MOL
REMARK 923 INTER-LIGAND FREE ENERGY PREDICTED BY IDOCK:   -4.51 KCAL/MOL
REMARK 924 INTRA-LIGAND FREE ENERGY PREDICTED BY IDOCK:   -0.31 KCAL/MOL
REMARK 927      BINDING AFFINITY PREDICTED BY RF-SCORE:    0.00 PKD
ROOT
HETATM    1  C   UNL     1      -7.731   9.054  69.586  1.00  0.00    -0.075 C  
HETATM    2  N   UNL     1      -8.851   8.523  68.827  1.00  0.00    -0.139 NA 
HETATM    3  C   UNL     1      -9.298   7.201  69.221  1.00  0.00    -0.146 C  
HETATM    4  C   UNL     1     -10.487   6.665  68.456  1.00  0.00    -0.246 C  
HETATM    5  C   UNL     1     -10.990   7.463  67.275  1.00  0.00    -0.164 C  
HETATM    6  N   UNL     1     -10.331   8.723  67.002  1.00  0.00    -0.280 NA 
HETATM    7  H   UNL     1     -10.639   9.274  66.201  1.00  0.00     0.000 HD 
HETATM    8  C   UNL     1      -9.376   9.173  67.727  1.00  0.00    -0.136 C  
ENDROOT
BRANCH   8   9
HETATM    9  C   UNL     1      -8.759  10.545  67.294  1.00  0.00    -0.126 C  
BRANCH   9  10
HETATM   10  O   UNL     1      -9.295  11.737  67.861  1.00  0.00    -0.172 OA 
BRANCH  10  11
HETATM   11  C   UNL     1      -9.297  12.835  67.031  1.00  0.00    -0.229 C  
HETATM   12  C   UNL     1      -8.587  14.032  67.758  1.00  0.00    -0.183 C  
HETATM   13  O   UNL     1      -9.766  12.848  65.898  1.00  0.00    -0.252 OA 
HETATM   14  C   UNL     1      -9.308  15.347  67.378  1.00  0.00    -0.205 A  
HETATM   15  O   UNL     1      -8.736  13.886  69.178  1.00  0.00    -0.363 OA 
HETATM   16  C   UNL     1      -7.050  13.976  67.395  1.00  0.00    -0.096 C  
HETATM   17  C   UNL     1      -6.194  15.138  67.941  1.00  0.00    -0.172 C  
HETATM   18  C   UNL     1     -10.353  15.853  68.181  1.00  0.00    -0.256 A  
HETATM   19  H   UNL     1      -8.306  14.611  69.618  1.00  0.00     0.000 HD 
HETATM   20  C   UNL     1      -5.908  15.045  69.438  1.00  0.00    -0.103 C  
HETATM   21  C   UNL     1     -11.028  17.036  67.854  1.00  0.00    -0.226 A  
HETATM   22  C   UNL     1     -10.679  17.740  66.707  1.00  0.00    -0.142 A  
HETATM   23  C   UNL     1      -5.247  13.725  69.819  1.00  0.00    -0.086 C  
HETATM   24  C   UNL     1      -5.986  12.515  69.271  1.00  0.00    -0.093 C  
HETATM   25  C   UNL     1      -9.670  17.253  65.883  1.00  0.00    -0.111 A  
HETATM   26  C   UNL     1      -9.000  16.064  66.207  1.00  0.00    -0.380 A  
HETATM   27  C   UNL     1      -6.323  12.669  67.793  1.00  0.00    -0.130 C  
ENDBRANCH  10  11
ENDBRANCH   9  10
ENDBRANCH   8   9
TORSDOF 3
ENDMDL
MODEL      183
REMARK 921   NORMALIZED FREE ENERGY PREDICTED BY IDOCK:   -3.71 KCAL/MOL
REMARK 922        TOTAL FREE ENERGY PREDICTED BY IDOCK:   -4.80 KCAL/MOL
REMARK 923 INTER-LIGAND FREE ENERGY PREDICTED BY IDOCK:   -4.42 KCAL/MOL
REMARK 924 INTRA-LIGAND FREE ENERGY PREDICTED BY IDOCK:   -0.39 KCAL/MOL
REMARK 927      BINDING AFFINITY PREDICTED BY RF-SCORE:    0.00 PKD
ROOT
HETATM    1  C   UNL     1      -7.180   4.651  67.208  1.00  0.00    -0.073 C  
HETATM    2  N   UNL     1      -8.108   4.220  66.175  1.00  0.00    -0.102 NA 
HETATM    3  C   UNL     1      -7.504   3.871  64.903  1.00  0.00    -0.076 C  
HETATM    4  C   UNL     1      -8.467   3.388  63.841  1.00  0.00    -0.090 C  
HETATM    5  C   UNL     1      -9.947   3.462  64.138  1.00  0.00    -0.185 C  
HETATM    6  N   UNL     1     -10.334   3.933  65.452  1.00  0.00    -0.449 NA 
HETATM    7  H   UNL     1     -11.326   4.009  65.672  1.00  0.00     0.000 HD 
HETATM    8  C   UNL     1      -9.478   4.259  66.347  1.00  0.00    -0.183 C  
ENDROOT
BRANCH   8   9
HETATM    9  C   UNL     1     -10.054   4.762  67.713  1.00  0.00    -0.069 C  
BRANCH   9  10
HETATM   10  O   UNL     1     -10.293   6.157  67.873  1.00  0.00    -0.159 OA 
BRANCH  10  11
HETATM   11  C   UNL     1     -10.760   6.537  69.111  1.00  0.00    -0.275 C  
HETATM   12  C   UNL     1      -9.664   7.400  69.832  1.00  0.00    -0.171 C  
HETATM   13  O   UNL     1     -11.869   6.253  69.551  1.00  0.00    -0.234 OA 
HETATM   14  C   UNL     1      -9.690   7.076  71.345  1.00  0.00    -0.169 A  
HETATM   15  O   UNL     1      -8.365   7.017  69.360  1.00  0.00    -0.130 OA 
HETATM   16  C   UNL     1      -9.920   8.915  69.463  1.00  0.00    -0.191 C  
HETATM   17  C   UNL     1      -8.997   9.935  70.162  1.00  0.00    -0.159 C  
HETATM   18  C   UNL     1      -8.848   6.076  71.882  1.00  0.00    -0.138 A  
HETATM   19  H   UNL     1      -7.702   7.539  69.797  1.00  0.00     0.000 HD 
HETATM   20  C   UNL     1      -7.578   9.971  69.600  1.00  0.00    -0.147 C  
HETATM   21  C   UNL     1      -8.859   5.758  73.245  1.00  0.00    -0.124 A  
HETATM   22  C   UNL     1      -9.719   6.427  74.108  1.00  0.00    -0.269 A  
HETATM   23  C   UNL     1      -7.558  10.237  68.098  1.00  0.00    -0.087 C  
HETATM   24  C   UNL     1      -8.488   9.317  67.324  1.00  0.00    -0.125 C  
HETATM   25  C   UNL     1     -10.578   7.398  73.605  1.00  0.00    -0.316 A  
HETATM   26  C   UNL     1     -10.573   7.711  72.238  1.00  0.00    -0.298 A  
HETATM   27  C   UNL     1      -9.874   9.243  67.951  1.00  0.00    -0.200 C  
ENDBRANCH  10  11
ENDBRANCH   9  10
ENDBRANCH   8   9
TORSDOF 3
ENDMDL
MODEL      184
REMARK 921   NORMALIZED FREE ENERGY PREDICTED BY IDOCK:   -3.71 KCAL/MOL
REMARK 922        TOTAL FREE ENERGY PREDICTED BY IDOCK:   -4.80 KCAL/MOL
REMARK 923 INTER-LIGAND FREE ENERGY PREDICTED BY IDOCK:   -4.41 KCAL/MOL
REMARK 924 INTRA-LIGAND FREE ENERGY PREDICTED BY IDOCK:   -0.40 KCAL/MOL
REMARK 927      BINDING AFFINITY PREDICTED BY RF-SCORE:    0.00 PKD
ROOT
HETATM    1  C   UNL     1     -11.841  13.248  67.598  1.00  0.00    -0.357 C  
HETATM    2  N   UNL     1     -11.422  12.828  66.271  1.00  0.00    -0.334 NA 
HETATM    3  C   UNL     1     -12.207  13.360  65.174  1.00  0.00    -0.434 C  
HETATM    4  C   UNL     1     -11.746  12.953  63.792  1.00  0.00    -0.557 C  
HETATM    5  C   UNL     1     -10.639  11.930  63.685  1.00  0.00    -0.446 C  
HETATM    6  N   UNL     1     -10.054  11.460  64.924  1.00  0.00    -0.258 NA 
HETATM    7  H   UNL     1      -9.317  10.757  64.881  1.00  0.00     0.000 HD 
HETATM    8  C   UNL     1     -10.426  11.893  66.070  1.00  0.00    -0.245 C  
ENDROOT
BRANCH   8   9
HETATM    9  C   UNL     1      -9.704  11.277  67.316  1.00  0.00    -0.174 C  
BRANCH   9  10
HETATM   10  O   UNL     1     -10.374  10.254  68.047  1.00  0.00    -0.162 OA 
BRANCH  10  11
HETATM   11  C   UNL     1      -9.626   9.128  68.306  1.00  0.00    -0.148 C  
HETATM   12  C   UNL     1      -9.554   8.902  69.858  1.00  0.00    -0.177 C  
HETATM   13  O   UNL     1      -9.124   8.416  67.443  1.00  0.00    -0.135 OA 
HETATM   14  C   UNL     1      -8.154   8.350  70.218  1.00  0.00    -0.104 A  
HETATM   15  O   UNL     1      -9.677  10.162  70.532  1.00  0.00    -0.345 OA 
HETATM   16  C   UNL     1     -10.769   7.979  70.270  1.00  0.00    -0.239 C  
HETATM   17  C   UNL     1     -10.813   7.560  71.755  1.00  0.00    -0.261 C  
HETATM   18  C   UNL     1      -7.109   9.225  70.585  1.00  0.00    -0.111 A  
HETATM   19  H   UNL     1      -9.633  10.026  71.471  1.00  0.00     0.000 HD 
HETATM   20  C   UNL     1     -11.258   8.675  72.698  1.00  0.00    -0.098 C  
HETATM   21  C   UNL     1      -5.830   8.753  70.906  1.00  0.00    -0.036 A  
HETATM   22  C   UNL     1      -5.562   7.389  70.861  1.00  0.00    -0.027 A  
HETATM   23  C   UNL     1     -12.615   9.255  72.309  1.00  0.00    -0.402 C  
HETATM   24  C   UNL     1     -12.691   9.642  70.841  1.00  0.00    -0.280 C  
HETATM   25  C   UNL     1      -6.565   6.505  70.478  1.00  0.00    -0.049 A  
HETATM   26  C   UNL     1      -7.843   6.980  70.149  1.00  0.00    -0.109 A  
HETATM   27  C   UNL     1     -12.171   8.539  69.928  1.00  0.00     1.079 C  
ENDBRANCH  10  11
ENDBRANCH   9  10
ENDBRANCH   8   9
TORSDOF 3
ENDMDL
MODEL      185
REMARK 921   NORMALIZED FREE ENERGY PREDICTED BY IDOCK:   -3.67 KCAL/MOL
REMARK 922        TOTAL FREE ENERGY PREDICTED BY IDOCK:   -4.76 KCAL/MOL
REMARK 923 INTER-LIGAND FREE ENERGY PREDICTED BY IDOCK:   -4.87 KCAL/MOL
REMARK 924 INTRA-LIGAND FREE ENERGY PREDICTED BY IDOCK:    0.10 KCAL/MOL
REMARK 927      BINDING AFFINITY PREDICTED BY RF-SCORE:    0.00 PKD
ROOT
HETATM    1  C   UNL     1     -10.225   5.351  68.124  1.00  0.00    -0.165 C  
HETATM    2  N   UNL     1      -9.444   5.042  66.937  1.00  0.00    -0.134 NA 
HETATM    3  C   UNL     1      -8.982   3.671  66.837  1.00  0.00    -0.144 C  
HETATM    4  C   UNL     1      -8.201   3.341  65.584  1.00  0.00    -0.098 C  
HETATM    5  C   UNL     1      -7.845   4.475  64.651  1.00  0.00    -0.086 C  
HETATM    6  N   UNL     1      -8.336   5.793  64.996  1.00  0.00    -0.141 NA 
HETATM    7  H   UNL     1      -8.096   6.579  64.392  1.00  0.00     0.000 HD 
HETATM    8  C   UNL     1      -9.061   6.010  66.029  1.00  0.00    -0.129 C  
ENDROOT
BRANCH   8   9
HETATM    9  C   UNL     1      -9.502   7.492  66.273  1.00  0.00    -0.096 C  
BRANCH   9  10
HETATM   10  O   UNL     1      -9.315   8.049  67.570  1.00  0.00    -0.143 OA 
BRANCH  10  11
HETATM   11  C   UNL     1      -9.072   9.403  67.601  1.00  0.00    -0.121 C  
HETATM   12  C   UNL     1     -10.359  10.145  68.110  1.00  0.00    -0.185 C  
HETATM   13  O   UNL     1      -8.006   9.924  67.295  1.00  0.00    -0.108 OA 
HETATM   14  C   UNL     1     -10.495  11.487  67.352  1.00  0.00    -0.240 A  
HETATM   15  O   UNL     1     -11.521   9.374  67.776  1.00  0.00    -0.277 OA 
HETATM   16  C   UNL     1     -10.258  10.267  69.682  1.00  0.00    -0.268 C  
HETATM   17  C   UNL     1     -11.393  11.061  70.363  1.00  0.00    -0.222 C  
HETATM   18  C   UNL     1     -11.262  11.571  66.169  1.00  0.00    -0.265 A  
HETATM   19  H   UNL     1     -12.300   9.822  68.084  1.00  0.00     0.000 HD 
HETATM   20  C   UNL     1     -12.716  10.303  70.443  1.00  0.00    -0.243 C  
HETATM   21  C   UNL     1     -11.394  12.770  65.458  1.00  0.00    -0.347 A  
HETATM   22  C   UNL     1     -10.753  13.919  65.909  1.00  0.00    -0.286 A  
HETATM   23  C   UNL     1     -12.568   8.956  71.144  1.00  0.00    -0.228 C  
HETATM   24  C   UNL     1     -11.429   8.121  70.582  1.00  0.00    -0.237 C  
HETATM   25  C   UNL     1      -9.970  13.861  67.057  1.00  0.00    -0.258 A  
HETATM   26  C   UNL     1      -9.832  12.658  67.764  1.00  0.00    -0.212 A  
HETATM   27  C   UNL     1     -10.142   8.924  70.444  1.00  0.00    -0.232 C  
ENDBRANCH  10  11
ENDBRANCH   9  10
ENDBRANCH   8   9
TORSDOF 3
ENDMDL
MODEL      186
REMARK 921   NORMALIZED FREE ENERGY PREDICTED BY IDOCK:   -3.67 KCAL/MOL
REMARK 922        TOTAL FREE ENERGY PREDICTED BY IDOCK:   -4.76 KCAL/MOL
REMARK 923 INTER-LIGAND FREE ENERGY PREDICTED BY IDOCK:   -4.27 KCAL/MOL
REMARK 924 INTRA-LIGAND FREE ENERGY PREDICTED BY IDOCK:   -0.49 KCAL/MOL
REMARK 927      BINDING AFFINITY PREDICTED BY RF-SCORE:    0.00 PKD
ROOT
HETATM    1  C   UNL     1      -7.026   8.334  65.609  1.00  0.00    -0.067 C  
HETATM    2  N   UNL     1      -7.949   7.222  65.773  1.00  0.00    -0.115 NA 
HETATM    3  C   UNL     1      -7.894   6.211  64.735  1.00  0.00    -0.109 C  
HETATM    4  C   UNL     1      -8.828   5.037  64.926  1.00  0.00    -0.140 C  
HETATM    5  C   UNL     1      -9.820   5.096  66.065  1.00  0.00    -0.163 C  
HETATM    6  N   UNL     1      -9.758   6.254  66.933  1.00  0.00    -0.145 NA 
HETATM    7  H   UNL     1     -10.428   6.327  67.699  1.00  0.00     0.000 HD 
HETATM    8  C   UNL     1      -8.897   7.188  66.776  1.00  0.00    -0.130 C  
ENDROOT
BRANCH   8   9
HETATM    9  C   UNL     1      -8.968   8.379  67.791  1.00  0.00    -0.136 C  
BRANCH   9  10
HETATM   10  O   UNL     1      -9.612   9.581  67.378  1.00  0.00    -0.136 OA 
BRANCH  10  11
HETATM   11  C   UNL     1      -9.334  10.691  68.143  1.00  0.00    -0.151 C  
HETATM   12  C   UNL     1      -9.085  11.919  67.196  1.00  0.00    -0.178 C  
HETATM   13  O   UNL     1      -9.311  10.701  69.368  1.00  0.00    -0.163 OA 
HETATM   14  C   UNL     1      -7.975  12.806  67.810  1.00  0.00    -0.157 A  
HETATM   15  O   UNL     1      -8.582  11.458  65.935  1.00  0.00    -0.301 OA 
HETATM   16  C   UNL     1     -10.472  12.641  66.964  1.00  0.00    -0.244 C  
HETATM   17  C   UNL     1     -10.416  13.940  66.132  1.00  0.00    -0.297 C  
HETATM   18  C   UNL     1      -6.623  12.618  67.449  1.00  0.00    -0.145 A  
HETATM   19  H   UNL     1      -8.431  12.201  65.362  1.00  0.00     0.000 HD 
HETATM   20  C   UNL     1     -10.214  13.708  64.637  1.00  0.00    -0.338 C  
HETATM   21  C   UNL     1      -5.598  13.400  67.996  1.00  0.00    -0.116 A  
HETATM   22  C   UNL     1      -5.900  14.388  68.927  1.00  0.00    -0.086 A  
HETATM   23  C   UNL     1     -11.278  12.789  64.045  1.00  0.00    -0.463 C  
HETATM   24  C   UNL     1     -11.453  11.503  64.836  1.00  0.00    -0.123 C  
HETATM   25  C   UNL     1      -7.220  14.579  69.321  1.00  0.00    -0.131 A  
HETATM   26  C   UNL     1      -8.245  13.790  68.779  1.00  0.00    -0.002 A  
HETATM   27  C   UNL     1     -11.577  11.760  66.331  1.00  0.00    -0.237 C  
ENDBRANCH  10  11
ENDBRANCH   9  10
ENDBRANCH   8   9
TORSDOF 3
ENDMDL
MODEL      187
REMARK 921   NORMALIZED FREE ENERGY PREDICTED BY IDOCK:   -3.63 KCAL/MOL
REMARK 922        TOTAL FREE ENERGY PREDICTED BY IDOCK:   -4.72 KCAL/MOL
REMARK 923 INTER-LIGAND FREE ENERGY PREDICTED BY IDOCK:   -4.00 KCAL/MOL
REMARK 924 INTRA-LIGAND FREE ENERGY PREDICTED BY IDOCK:   -0.72 KCAL/MOL
REMARK 927      BINDING AFFINITY PREDICTED BY RF-SCORE:    0.00 PKD
ROOT
HETATM    1  C   UNL     1      -5.707   9.956  71.671  1.00  0.00     0.045 C  
HETATM    2  N   UNL     1      -5.668   8.504  71.609  1.00  0.00    -0.039 NA 
HETATM    3  C   UNL     1      -5.191   7.843  72.809  1.00  0.00    -0.036 C  
HETATM    4  C   UNL     1      -5.187   6.331  72.756  1.00  0.00    -0.031 C  
HETATM    5  C   UNL     1      -5.519   5.666  71.440  1.00  0.00    -0.016 C  
HETATM    6  N   UNL     1      -5.881   6.530  70.337  1.00  0.00    -0.022 NA 
HETATM    7  H   UNL     1      -6.093   6.109  69.433  1.00  0.00     0.000 HD 
HETATM    8  C   UNL     1      -5.946   7.805  70.451  1.00  0.00    -0.030 C  
ENDROOT
BRANCH   8   9
HETATM    9  C   UNL     1      -6.341   8.601  69.163  1.00  0.00    -0.043 C  
BRANCH   9  10
HETATM   10  O   UNL     1      -7.722   8.708  68.831  1.00  0.00    -0.096 OA 
BRANCH  10  11
HETATM   11  C   UNL     1      -8.249   9.978  68.902  1.00  0.00    -0.121 C  
HETATM   12  C   UNL     1      -9.777   9.884  69.249  1.00  0.00    -0.208 C  
HETATM   13  O   UNL     1      -7.602  11.007  68.739  1.00  0.00    -0.110 OA 
HETATM   14  C   UNL     1     -10.532  11.001  68.489  1.00  0.00    -0.210 A  
HETATM   15  O   UNL     1     -10.303   8.640  68.763  1.00  0.00    -0.208 OA 
HETATM   16  C   UNL     1      -9.921   9.923  70.822  1.00  0.00    -0.009 C  
HETATM   17  C   UNL     1     -11.368   9.940  71.358  1.00  0.00    -0.344 C  
HETATM   18  C   UNL     1     -11.097  10.753  67.219  1.00  0.00    -0.339 A  
HETATM   19  H   UNL     1     -11.228   8.583  68.973  1.00  0.00     0.000 HD 
HETATM   20  C   UNL     1     -12.078   8.592  71.264  1.00  0.00    -0.323 C  
HETATM   21  C   UNL     1     -11.776  11.749  66.507  1.00  0.00    -0.149 A  
HETATM   22  C   UNL     1     -11.902  13.024  67.045  1.00  0.00    -0.437 A  
HETATM   23  C   UNL     1     -11.305   7.481  71.967  1.00  0.00    -0.314 C  
HETATM   24  C   UNL     1      -9.845   7.423  71.548  1.00  0.00    -0.185 C  
HETATM   25  C   UNL     1     -11.333  13.306  68.283  1.00  0.00    -0.335 A  
HETATM   26  C   UNL     1     -10.646  12.310  68.992  1.00  0.00    -0.104 A  
HETATM   27  C   UNL     1      -9.183   8.794  71.582  1.00  0.00    -0.333 C  
ENDBRANCH  10  11
ENDBRANCH   9  10
ENDBRANCH   8   9
TORSDOF 3
ENDMDL
MODEL      188
REMARK 921   NORMALIZED FREE ENERGY PREDICTED BY IDOCK:   -3.63 KCAL/MOL
REMARK 922        TOTAL FREE ENERGY PREDICTED BY IDOCK:   -4.72 KCAL/MOL
REMARK 923 INTER-LIGAND FREE ENERGY PREDICTED BY IDOCK:   -4.24 KCAL/MOL
REMARK 924 INTRA-LIGAND FREE ENERGY PREDICTED BY IDOCK:   -0.48 KCAL/MOL
REMARK 927      BINDING AFFINITY PREDICTED BY RF-SCORE:    0.00 PKD
ROOT
HETATM    1  C   UNL     1      -6.023   5.097  66.782  1.00  0.00    -0.023 C  
HETATM    2  N   UNL     1      -6.901   3.957  66.570  1.00  0.00    -0.056 NA 
HETATM    3  C   UNL     1      -6.312   2.845  65.849  1.00  0.00    -0.028 C  
HETATM    4  C   UNL     1      -7.215   1.646  65.662  1.00  0.00    -0.052 C  
HETATM    5  C   UNL     1      -8.659   1.770  66.090  1.00  0.00    -0.112 C  
HETATM    6  N   UNL     1      -9.058   3.016  66.711  1.00  0.00    -0.162 NA 
HETATM    7  H   UNL     1     -10.030   3.132  66.994  1.00  0.00     0.000 HD 
HETATM    8  C   UNL     1      -8.237   3.977  66.919  1.00  0.00    -0.100 C  
ENDROOT
BRANCH   8   9
HETATM    9  C   UNL     1      -8.825   5.263  67.589  1.00  0.00    -0.105 C  
BRANCH   9  10
HETATM   10  O   UNL     1      -8.591   5.469  68.979  1.00  0.00    -0.103 OA 
BRANCH  10  11
HETATM   11  C   UNL     1      -9.335   4.677  69.825  1.00  0.00    -0.145 C  
HETATM   12  C   UNL     1      -9.665   5.486  71.130  1.00  0.00    -0.174 C  
HETATM   13  O   UNL     1      -9.691   3.532  69.570  1.00  0.00    -0.159 OA 
HETATM   14  C   UNL     1      -9.631   4.520  72.338  1.00  0.00    -0.193 A  
HETATM   15  O   UNL     1      -8.637   6.459  71.363  1.00  0.00    -0.129 OA 
HETATM   16  C   UNL     1     -11.039   6.233  70.903  1.00  0.00    -0.366 C  
HETATM   17  C   UNL     1     -11.584   7.009  72.121  1.00  0.00    -0.320 C  
HETATM   18  C   UNL     1      -8.447   4.346  73.088  1.00  0.00    -0.094 A  
HETATM   19  H   UNL     1      -8.836   6.948  72.153  1.00  0.00     0.000 HD 
HETATM   20  C   UNL     1     -10.846   8.316  72.402  1.00  0.00    -0.421 C  
HETATM   21  C   UNL     1      -8.387   3.471  74.180  1.00  0.00    -0.085 A  
HETATM   22  C   UNL     1      -9.511   2.739  74.546  1.00  0.00    -0.117 A  
HETATM   23  C   UNL     1     -10.834   9.244  71.191  1.00  0.00    -0.407 C  
HETATM   24  C   UNL     1     -10.368   8.551  69.922  1.00  0.00    -0.210 C  
HETATM   25  C   UNL     1     -10.685   2.870  73.811  1.00  0.00    -0.285 A  
HETATM   26  C   UNL     1     -10.741   3.741  72.713  1.00  0.00    -0.149 A  
HETATM   27  C   UNL     1     -11.067   7.215  69.706  1.00  0.00    -0.239 C  
ENDBRANCH  10  11
ENDBRANCH   9  10
ENDBRANCH   8   9
TORSDOF 3
ENDMDL
MODEL      189
REMARK 921   NORMALIZED FREE ENERGY PREDICTED BY IDOCK:   -3.61 KCAL/MOL
REMARK 922        TOTAL FREE ENERGY PREDICTED BY IDOCK:   -4.69 KCAL/MOL
REMARK 923 INTER-LIGAND FREE ENERGY PREDICTED BY IDOCK:   -3.88 KCAL/MOL
REMARK 924 INTRA-LIGAND FREE ENERGY PREDICTED BY IDOCK:   -0.81 KCAL/MOL
REMARK 927      BINDING AFFINITY PREDICTED BY RF-SCORE:    0.00 PKD
ROOT
HETATM    1  C   UNL     1      -9.649  10.533  64.249  1.00  0.00    -0.307 C  
HETATM    2  N   UNL     1     -10.456  11.282  65.200  1.00  0.00    -0.286 NA 
HETATM    3  C   UNL     1     -10.478  12.718  65.001  1.00  0.00    -0.314 C  
HETATM    4  C   UNL     1     -11.347  13.491  65.967  1.00  0.00    -0.327 C  
HETATM    5  C   UNL     1     -11.972  12.738  67.119  1.00  0.00    -0.284 C  
HETATM    6  N   UNL     1     -11.741  11.310  67.176  1.00  0.00    -0.502 NA 
HETATM    7  H   UNL     1     -12.136  10.780  67.952  1.00  0.00     0.000 HD 
HETATM    8  C   UNL     1     -11.060  10.686  66.289  1.00  0.00     0.154 C  
ENDROOT
BRANCH   8   9
HETATM    9  C   UNL     1     -10.890   9.143  66.499  1.00  0.00     0.301 C  
BRANCH   9  10
HETATM   10  O   UNL     1      -9.743   8.680  67.206  1.00  0.00    -0.162 OA 
BRANCH  10  11
HETATM   11  C   UNL     1      -9.826   8.755  68.578  1.00  0.00    -0.168 C  
HETATM   12  C   UNL     1      -8.381   8.898  69.174  1.00  0.00    -0.124 C  
HETATM   13  O   UNL     1     -10.876   8.733  69.211  1.00  0.00    -0.187 OA 
HETATM   14  C   UNL     1      -8.310   8.113  70.506  1.00  0.00    -0.123 A  
HETATM   15  O   UNL     1      -7.434   8.281  68.291  1.00  0.00    -0.093 OA 
HETATM   16  C   UNL     1      -8.053  10.441  69.283  1.00  0.00    -0.159 C  
HETATM   17  C   UNL     1      -6.703  10.789  69.945  1.00  0.00    -0.156 C  
HETATM   18  C   UNL     1      -7.876   6.770  70.527  1.00  0.00    -0.105 A  
HETATM   19  H   UNL     1      -6.560   8.368  68.652  1.00  0.00     0.000 HD 
HETATM   20  C   UNL     1      -5.492  10.529  69.052  1.00  0.00    -0.041 C  
HETATM   21  C   UNL     1      -7.811   6.034  71.716  1.00  0.00    -0.102 A  
HETATM   22  C   UNL     1      -8.188   6.622  72.918  1.00  0.00    -0.108 A  
HETATM   23  C   UNL     1      -5.590  11.261  67.718  1.00  0.00    -0.044 C  
HETATM   24  C   UNL     1      -6.917  11.029  67.014  1.00  0.00    -0.117 C  
HETATM   25  C   UNL     1      -8.644   7.936  72.926  1.00  0.00    -0.236 A  
HETATM   26  C   UNL     1      -8.716   8.670  71.733  1.00  0.00    -0.266 A  
HETATM   27  C   UNL     1      -8.104  11.223  67.948  1.00  0.00    -0.121 C  
ENDBRANCH  10  11
ENDBRANCH   9  10
ENDBRANCH   8   9
TORSDOF 3
ENDMDL
MODEL      190
REMARK 921   NORMALIZED FREE ENERGY PREDICTED BY IDOCK:   -3.59 KCAL/MOL
REMARK 922        TOTAL FREE ENERGY PREDICTED BY IDOCK:   -4.67 KCAL/MOL
REMARK 923 INTER-LIGAND FREE ENERGY PREDICTED BY IDOCK:   -4.15 KCAL/MOL
REMARK 924 INTRA-LIGAND FREE ENERGY PREDICTED BY IDOCK:   -0.52 KCAL/MOL
REMARK 927      BINDING AFFINITY PREDICTED BY RF-SCORE:    0.00 PKD
ROOT
HETATM    1  C   UNL     1      -6.540   3.388  64.554  1.00  0.00    -0.035 C  
HETATM    2  N   UNL     1      -7.968   3.325  64.285  1.00  0.00    -0.082 NA 
HETATM    3  C   UNL     1      -8.381   2.280  63.368  1.00  0.00    -0.081 C  
HETATM    4  C   UNL     1      -9.870   2.192  63.117  1.00  0.00    -0.105 C  
HETATM    5  C   UNL     1     -10.753   3.271  63.702  1.00  0.00    -0.247 C  
HETATM    6  N   UNL     1     -10.111   4.279  64.518  1.00  0.00    -0.358 NA 
HETATM    7  H   UNL     1     -10.681   5.028  64.910  1.00  0.00     0.000 HD 
HETATM    8  C   UNL     1      -8.854   4.268  64.766  1.00  0.00    -0.140 C  
ENDROOT
BRANCH   8   9
HETATM    9  C   UNL     1      -8.309   5.435  65.655  1.00  0.00    -0.130 C  
BRANCH   9  10
HETATM   10  O   UNL     1      -8.311   5.266  67.070  1.00  0.00    -0.108 OA 
BRANCH  10  11
HETATM   11  C   UNL     1      -9.436   5.726  67.716  1.00  0.00    -0.112 C  
HETATM   12  C   UNL     1      -9.003   6.659  68.902  1.00  0.00    -0.130 C  
HETATM   13  O   UNL     1     -10.585   5.453  67.387  1.00  0.00    -0.216 OA 
HETATM   14  C   UNL     1      -9.976   6.446  70.086  1.00  0.00    -0.201 A  
HETATM   15  O   UNL     1      -7.705   6.268  69.371  1.00  0.00    -0.096 OA 
HETATM   16  C   UNL     1      -8.927   8.138  68.351  1.00  0.00    -0.136 C  
HETATM   17  C   UNL     1      -8.610   9.224  69.401  1.00  0.00    -0.142 C  
HETATM   18  C   UNL     1      -9.683   5.504  71.098  1.00  0.00    -0.226 A  
HETATM   19  H   UNL     1      -7.443   6.833  70.088  1.00  0.00     0.000 HD 
HETATM   20  C   UNL     1      -7.149   9.246  69.845  1.00  0.00    -0.064 C  
HETATM   21  C   UNL     1     -10.550   5.285  72.175  1.00  0.00    -0.281 A  
HETATM   22  C   UNL     1     -11.740   5.999  72.265  1.00  0.00    -0.338 A  
HETATM   23  C   UNL     1      -6.190   9.402  68.670  1.00  0.00    -0.044 C  
HETATM   24  C   UNL     1      -6.463   8.411  67.551  1.00  0.00    -0.058 C  
HETATM   25  C   UNL     1     -12.068   6.914  71.270  1.00  0.00    -0.419 A  
HETATM   26  C   UNL     1     -11.203   7.127  70.188  1.00  0.00    -0.295 A  
HETATM   27  C   UNL     1      -7.939   8.357  67.179  1.00  0.00    -0.104 C  
ENDBRANCH  10  11
ENDBRANCH   9  10
ENDBRANCH   8   9
TORSDOF 3
ENDMDL
MODEL      191
REMARK 921   NORMALIZED FREE ENERGY PREDICTED BY IDOCK:   -3.57 KCAL/MOL
REMARK 922        TOTAL FREE ENERGY PREDICTED BY IDOCK:   -4.65 KCAL/MOL
REMARK 923 INTER-LIGAND FREE ENERGY PREDICTED BY IDOCK:   -4.33 KCAL/MOL
REMARK 924 INTRA-LIGAND FREE ENERGY PREDICTED BY IDOCK:   -0.32 KCAL/MOL
REMARK 927      BINDING AFFINITY PREDICTED BY RF-SCORE:    0.00 PKD
ROOT
HETATM    1  C   UNL     1     -12.372   7.210  71.172  1.00  0.00    -0.364 C  
HETATM    2  N   UNL     1     -11.145   7.550  71.875  1.00  0.00    -0.234 NA 
HETATM    3  C   UNL     1     -11.073   7.102  73.252  1.00  0.00    -0.212 C  
HETATM    4  C   UNL     1      -9.781   7.423  73.970  1.00  0.00    -0.215 C  
HETATM    5  C   UNL     1      -8.773   8.296  73.261  1.00  0.00    -0.215 C  
HETATM    6  N   UNL     1      -9.093   8.710  71.911  1.00  0.00    -0.248 NA 
HETATM    7  H   UNL     1      -8.437   9.314  71.415  1.00  0.00     0.000 HD 
HETATM    8  C   UNL     1     -10.167   8.348  71.315  1.00  0.00    -0.212 C  
ENDROOT
BRANCH   8   9
HETATM    9  C   UNL     1     -10.374   8.890  69.861  1.00  0.00    -0.206 C  
BRANCH   9  10
HETATM   10  O   UNL     1     -10.433   7.951  68.791  1.00  0.00    -0.207 OA 
BRANCH  10  11
HETATM   11  C   UNL     1     -10.100   8.447  67.551  1.00  0.00    -0.218 C  
HETATM   12  C   UNL     1      -8.971   7.553  66.925  1.00  0.00    -0.135 C  
HETATM   13  O   UNL     1     -10.629   9.423  67.030  1.00  0.00    -0.251 OA 
HETATM   14  C   UNL     1      -8.002   8.458  66.127  1.00  0.00    -0.100 A  
HETATM   15  O   UNL     1      -8.195   6.956  67.973  1.00  0.00    -0.114 OA 
HETATM   16  C   UNL     1      -9.669   6.409  66.087  1.00  0.00    -0.004 C  
HETATM   17  C   UNL     1      -8.715   5.479  65.308  1.00  0.00    -0.136 C  
HETATM   18  C   UNL     1      -6.845   8.989  66.739  1.00  0.00    -0.080 A  
HETATM   19  H   UNL     1      -7.512   6.415  67.595  1.00  0.00     0.000 HD 
HETATM   20  C   UNL     1      -7.978   4.472  66.189  1.00  0.00    -0.099 C  
HETATM   21  C   UNL     1      -5.957   9.818  66.042  1.00  0.00    -0.064 A  
HETATM   22  C   UNL     1      -6.208  10.144  64.714  1.00  0.00    -0.130 A  
HETATM   23  C   UNL     1      -8.935   3.618  67.015  1.00  0.00    -0.159 C  
HETATM   24  C   UNL     1      -9.958   4.446  67.775  1.00  0.00    -0.098 C  
HETATM   25  C   UNL     1      -7.353   9.657  64.092  1.00  0.00    -0.122 A  
HETATM   26  C   UNL     1      -8.246   8.833  64.793  1.00  0.00    -0.163 A  
HETATM   27  C   UNL     1     -10.623   5.491  66.889  1.00  0.00    -0.348 C  
ENDBRANCH  10  11
ENDBRANCH   9  10
ENDBRANCH   8   9
TORSDOF 3
ENDMDL
MODEL      192
REMARK 921   NORMALIZED FREE ENERGY PREDICTED BY IDOCK:   -3.55 KCAL/MOL
REMARK 922        TOTAL FREE ENERGY PREDICTED BY IDOCK:   -4.62 KCAL/MOL
REMARK 923 INTER-LIGAND FREE ENERGY PREDICTED BY IDOCK:   -4.00 KCAL/MOL
REMARK 924 INTRA-LIGAND FREE ENERGY PREDICTED BY IDOCK:   -0.62 KCAL/MOL
REMARK 927      BINDING AFFINITY PREDICTED BY RF-SCORE:    0.00 PKD
ROOT
HETATM    1  C   UNL     1      -7.760   7.159  63.979  1.00  0.00    -0.123 C  
HETATM    2  N   UNL     1      -7.565   5.974  64.800  1.00  0.00    -0.083 NA 
HETATM    3  C   UNL     1      -6.836   4.892  64.167  1.00  0.00    -0.048 C  
HETATM    4  C   UNL     1      -6.602   3.676  65.035  1.00  0.00    -0.040 C  
HETATM    5  C   UNL     1      -7.267   3.633  66.391  1.00  0.00    -0.064 C  
HETATM    6  N   UNL     1      -8.032   4.796  66.788  1.00  0.00    -0.103 NA 
HETATM    7  H   UNL     1      -8.506   4.786  67.691  1.00  0.00     0.000 HD 
HETATM    8  C   UNL     1      -8.138   5.837  66.049  1.00  0.00    -0.110 C  
ENDROOT
BRANCH   8   9
HETATM    9  C   UNL     1      -9.012   7.007  66.614  1.00  0.00    -0.142 C  
BRANCH   9  10
HETATM   10  O   UNL     1      -8.576   7.663  67.801  1.00  0.00    -0.121 OA 
BRANCH  10  11
HETATM   11  C   UNL     1      -9.241   7.303  68.951  1.00  0.00    -0.141 C  
HETATM   12  C   UNL     1      -9.559   8.593  69.787  1.00  0.00    -0.171 C  
HETATM   13  O   UNL     1      -9.545   6.152  69.245  1.00  0.00    -0.132 OA 
HETATM   14  C   UNL     1      -9.424   8.259  71.292  1.00  0.00    -0.219 A  
HETATM   15  O   UNL     1      -8.576   9.600  69.508  1.00  0.00    -0.143 OA 
HETATM   16  C   UNL     1     -10.979   9.123  69.339  1.00  0.00    -0.108 C  
HETATM   17  C   UNL     1     -11.514  10.339  70.124  1.00  0.00    -0.383 C  
HETATM   18  C   UNL     1      -8.202   8.469  71.969  1.00  0.00    -0.192 A  
HETATM   19  H   UNL     1      -8.768  10.381  70.014  1.00  0.00     0.000 HD 
HETATM   20  C   UNL     1     -10.836  11.658  69.759  1.00  0.00     0.111 C  
HETATM   21  C   UNL     1      -8.051   8.166  73.328  1.00  0.00    -0.246 A  
HETATM   22  C   UNL     1      -9.118   7.638  74.045  1.00  0.00    -0.280 A  
HETATM   23  C   UNL     1     -10.923  11.958  68.266  1.00  0.00    -0.273 C  
HETATM   24  C   UNL     1     -10.474  10.791  67.403  1.00  0.00    -0.268 C  
HETATM   25  C   UNL     1     -10.327   7.397  73.399  1.00  0.00    -0.411 A  
HETATM   26  C   UNL     1     -10.475   7.692  72.036  1.00  0.00    -0.258 A  
HETATM   27  C   UNL     1     -11.109   9.477  67.837  1.00  0.00    -0.053 C  
ENDBRANCH  10  11
ENDBRANCH   9  10
ENDBRANCH   8   9
TORSDOF 3
ENDMDL
MODEL      193
REMARK 921   NORMALIZED FREE ENERGY PREDICTED BY IDOCK:   -3.52 KCAL/MOL
REMARK 922        TOTAL FREE ENERGY PREDICTED BY IDOCK:   -4.59 KCAL/MOL
REMARK 923 INTER-LIGAND FREE ENERGY PREDICTED BY IDOCK:   -4.02 KCAL/MOL
REMARK 924 INTRA-LIGAND FREE ENERGY PREDICTED BY IDOCK:   -0.57 KCAL/MOL
REMARK 927      BINDING AFFINITY PREDICTED BY RF-SCORE:    0.00 PKD
ROOT
HETATM    1  C   UNL     1      -5.806   9.872  71.101  1.00  0.00    -0.058 C  
HETATM    2  N   UNL     1      -5.607   8.491  70.691  1.00  0.00    -0.028 NA 
HETATM    3  C   UNL     1      -5.422   7.543  71.773  1.00  0.00    -0.036 C  
HETATM    4  C   UNL     1      -5.253   6.101  71.347  1.00  0.00    -0.018 C  
HETATM    5  C   UNL     1      -5.136   5.806  69.869  1.00  0.00    -0.005 C  
HETATM    6  N   UNL     1      -5.259   6.927  68.961  1.00  0.00    -0.013 NA 
HETATM    7  H   UNL     1      -5.166   6.759  67.960  1.00  0.00     0.000 HD 
HETATM    8  C   UNL     1      -5.479   8.122  69.367  1.00  0.00    -0.030 C  
ENDROOT
BRANCH   8   9
HETATM    9  C   UNL     1      -5.574   9.227  68.261  1.00  0.00    -0.038 C  
BRANCH   9  10
HETATM   10  O   UNL     1      -6.414   8.986  67.136  1.00  0.00    -0.059 OA 
BRANCH  10  11
HETATM   11  C   UNL     1      -7.449   9.879  66.971  1.00  0.00    -0.091 C  
HETATM   12  C   UNL     1      -8.715   9.110  66.451  1.00  0.00    -0.130 C  
HETATM   13  O   UNL     1      -7.377  11.078  67.219  1.00  0.00    -0.096 OA 
HETATM   14  C   UNL     1      -9.476  10.018  65.455  1.00  0.00    -0.296 A  
HETATM   15  O   UNL     1      -8.303   7.954  65.709  1.00  0.00    -0.122 OA 
HETATM   16  C   UNL     1      -9.549   8.643  67.709  1.00  0.00    -0.178 C  
HETATM   17  C   UNL     1     -10.892   7.949  67.397  1.00  0.00    -0.172 C  
HETATM   18  C   UNL     1      -9.215   9.944  64.069  1.00  0.00    -0.302 A  
HETATM   19  H   UNL     1      -9.069   7.489  65.393  1.00  0.00     0.000 HD 
HETATM   20  C   UNL     1     -10.745   6.519  66.883  1.00  0.00    -0.403 C  
HETATM   21  C   UNL     1      -9.883  10.760  63.148  1.00  0.00    -0.378 A  
HETATM   22  C   UNL     1     -10.826  11.680  63.591  1.00  0.00    -0.503 A  
HETATM   23  C   UNL     1      -9.947   5.640  67.842  1.00  0.00    -0.174 C  
HETATM   24  C   UNL     1      -8.628   6.269  68.258  1.00  0.00    -0.117 C  
HETATM   25  C   UNL     1     -11.087  11.793  64.953  1.00  0.00    -0.345 A  
HETATM   26  C   UNL     1     -10.412  10.981  65.875  1.00  0.00    -0.300 A  
HETATM   27  C   UNL     1      -8.795   7.718  68.696  1.00  0.00    -0.131 C  
ENDBRANCH  10  11
ENDBRANCH   9  10
ENDBRANCH   8   9
TORSDOF 3
ENDMDL
MODEL      194
REMARK 921   NORMALIZED FREE ENERGY PREDICTED BY IDOCK:   -3.49 KCAL/MOL
REMARK 922        TOTAL FREE ENERGY PREDICTED BY IDOCK:   -4.55 KCAL/MOL
REMARK 923 INTER-LIGAND FREE ENERGY PREDICTED BY IDOCK:   -3.98 KCAL/MOL
REMARK 924 INTRA-LIGAND FREE ENERGY PREDICTED BY IDOCK:   -0.57 KCAL/MOL
REMARK 927      BINDING AFFINITY PREDICTED BY RF-SCORE:    0.00 PKD
ROOT
HETATM    1  C   UNL     1      -6.818  10.913  66.637  1.00  0.00    -0.127 C  
HETATM    2  N   UNL     1      -7.155  10.124  65.463  1.00  0.00    -0.132 NA 
HETATM    3  C   UNL     1      -6.258  10.277  64.333  1.00  0.00    -0.111 C  
HETATM    4  C   UNL     1      -6.588   9.428  63.126  1.00  0.00    -0.100 C  
HETATM    5  C   UNL     1      -7.877   8.638  63.144  1.00  0.00    -0.153 C  
HETATM    6  N   UNL     1      -8.674   8.704  64.352  1.00  0.00    -0.403 NA 
HETATM    7  H   UNL     1      -9.556   8.195  64.385  1.00  0.00     0.000 HD 
HETATM    8  C   UNL     1      -8.313   9.377  65.380  1.00  0.00    -0.137 C  
ENDROOT
BRANCH   8   9
HETATM    9  C   UNL     1      -9.290   9.359  66.603  1.00  0.00    -0.163 C  
BRANCH   9  10
HETATM   10  O   UNL     1      -9.381   8.166  67.378  1.00  0.00    -0.137 OA 
BRANCH  10  11
HETATM   11  C   UNL     1      -8.932   8.271  68.675  1.00  0.00    -0.137 C  
HETATM   12  C   UNL     1      -9.043   6.869  69.373  1.00  0.00    -0.141 C  
HETATM   13  O   UNL     1      -8.499   9.302  69.178  1.00  0.00    -0.125 OA 
HETATM   14  C   UNL     1      -9.444   7.078  70.853  1.00  0.00    -0.160 A  
HETATM   15  O   UNL     1     -10.104   6.115  68.770  1.00  0.00    -0.149 OA 
HETATM   16  C   UNL     1      -7.677   6.106  69.146  1.00  0.00    -0.100 C  
HETATM   17  C   UNL     1      -7.555   4.737  69.848  1.00  0.00    -0.055 C  
HETATM   18  C   UNL     1     -10.802   7.058  71.240  1.00  0.00    -0.260 A  
HETATM   19  H   UNL     1     -10.171   5.267  69.192  1.00  0.00     0.000 HD 
HETATM   20  C   UNL     1      -8.361   3.626  69.179  1.00  0.00    -0.085 C  
HETATM   21  C   UNL     1     -11.192   7.254  72.570  1.00  0.00    -0.342 A  
HETATM   22  C   UNL     1     -10.232   7.482  73.549  1.00  0.00    -0.380 A  
HETATM   23  C   UNL     1      -8.002   3.458  67.706  1.00  0.00    -0.080 C  
HETATM   24  C   UNL     1      -8.034   4.770  66.939  1.00  0.00    -0.103 C  
HETATM   25  C   UNL     1      -8.889   7.532  73.194  1.00  0.00    -0.210 A  
HETATM   26  C   UNL     1      -8.499   7.344  71.860  1.00  0.00    -0.117 A  
HETATM   27  C   UNL     1      -7.285   5.879  67.666  1.00  0.00    -0.076 C  
ENDBRANCH  10  11
ENDBRANCH   9  10
ENDBRANCH   8   9
TORSDOF 3
ENDMDL
MODEL      195
REMARK 921   NORMALIZED FREE ENERGY PREDICTED BY IDOCK:   -3.44 KCAL/MOL
REMARK 922        TOTAL FREE ENERGY PREDICTED BY IDOCK:   -4.50 KCAL/MOL
REMARK 923 INTER-LIGAND FREE ENERGY PREDICTED BY IDOCK:   -4.41 KCAL/MOL
REMARK 924 INTRA-LIGAND FREE ENERGY PREDICTED BY IDOCK:   -0.08 KCAL/MOL
REMARK 927      BINDING AFFINITY PREDICTED BY RF-SCORE:    0.00 PKD
ROOT
HETATM    1  C   UNL     1     -11.013   9.829  67.415  1.00  0.00    -0.106 C  
HETATM    2  N   UNL     1     -11.272  10.982  68.263  1.00  0.00    -0.253 NA 
HETATM    3  C   UNL     1     -11.183  12.270  67.603  1.00  0.00    -0.290 C  
HETATM    4  C   UNL     1     -11.489  13.466  68.476  1.00  0.00    -0.345 C  
HETATM    5  C   UNL     1     -11.697  13.231  69.955  1.00  0.00    -0.259 C  
HETATM    6  N   UNL     1     -11.651  11.860  70.417  1.00  0.00    -0.503 NA 
HETATM    7  H   UNL     1     -11.771  11.674  71.413  1.00  0.00     0.000 HD 
HETATM    8  C   UNL     1     -11.465  10.870  69.625  1.00  0.00    -0.305 C  
ENDROOT
BRANCH   8   9
HETATM    9  C   UNL     1     -11.429   9.449  70.281  1.00  0.00    -0.180 C  
BRANCH   9  10
HETATM   10  O   UNL     1     -10.337   8.589  69.969  1.00  0.00    -0.200 OA 
BRANCH  10  11
HETATM   11  C   UNL     1     -10.304   7.402  70.666  1.00  0.00    -0.212 C  
HETATM   12  C   UNL     1      -8.937   6.681  70.390  1.00  0.00    -0.152 C  
HETATM   13  O   UNL     1     -11.203   7.002  71.397  1.00  0.00    -0.241 OA 
HETATM   14  C   UNL     1      -9.181   5.154  70.330  1.00  0.00    -0.193 A  
HETATM   15  O   UNL     1      -8.446   7.062  69.098  1.00  0.00    -0.127 OA 
HETATM   16  C   UNL     1      -7.908   7.156  71.492  1.00  0.00    -0.093 C  
HETATM   17  C   UNL     1      -6.523   6.476  71.447  1.00  0.00    -0.050 C  
HETATM   18  C   UNL     1      -9.439   4.515  69.097  1.00  0.00    -0.233 A  
HETATM   19  H   UNL     1      -7.618   6.626  68.930  1.00  0.00     0.000 HD 
HETATM   20  C   UNL     1      -5.630   6.967  70.310  1.00  0.00    -0.023 C  
HETATM   21  C   UNL     1      -9.672   3.136  69.016  1.00  0.00     0.064 A  
HETATM   22  C   UNL     1      -9.660   2.361  70.170  1.00  0.00    -0.076 A  
HETATM   23  C   UNL     1      -5.436   8.479  70.340  1.00  0.00    -0.021 C  
HETATM   24  C   UNL     1      -6.747   9.240  70.446  1.00  0.00    -0.073 C  
HETATM   25  C   UNL     1      -9.434   2.966  71.402  1.00  0.00    -0.216 A  
HETATM   26  C   UNL     1      -9.209   4.348  71.483  1.00  0.00    -0.190 A  
HETATM   27  C   UNL     1      -7.648   8.681  71.539  1.00  0.00    -0.134 C  
ENDBRANCH  10  11
ENDBRANCH   9  10
ENDBRANCH   8   9
TORSDOF 3
ENDMDL
MODEL      196
REMARK 921   NORMALIZED FREE ENERGY PREDICTED BY IDOCK:   -3.43 KCAL/MOL
REMARK 922        TOTAL FREE ENERGY PREDICTED BY IDOCK:   -4.48 KCAL/MOL
REMARK 923 INTER-LIGAND FREE ENERGY PREDICTED BY IDOCK:   -3.96 KCAL/MOL
REMARK 924 INTRA-LIGAND FREE ENERGY PREDICTED BY IDOCK:   -0.53 KCAL/MOL
REMARK 927      BINDING AFFINITY PREDICTED BY RF-SCORE:    0.00 PKD
ROOT
HETATM    1  C   UNL     1     -12.383   7.129  71.051  1.00  0.00    -0.334 C  
HETATM    2  N   UNL     1     -11.183   6.369  71.359  1.00  0.00    -0.276 NA 
HETATM    3  C   UNL     1     -10.727   6.457  72.733  1.00  0.00    -0.239 C  
HETATM    4  C   UNL     1      -9.499   5.636  73.060  1.00  0.00    -0.155 C  
HETATM    5  C   UNL     1      -8.784   4.944  71.923  1.00  0.00    -0.128 C  
HETATM    6  N   UNL     1      -9.368   5.066  70.604  1.00  0.00    -0.152 NA 
HETATM    7  H   UNL     1      -8.896   4.624  69.816  1.00  0.00     0.000 HD 
HETATM    8  C   UNL     1     -10.455   5.710  70.388  1.00  0.00    -0.285 C  
ENDROOT
BRANCH   8   9
HETATM    9  C   UNL     1     -10.951   5.761  68.904  1.00  0.00    -0.180 C  
BRANCH   9  10
HETATM   10  O   UNL     1      -9.977   5.853  67.869  1.00  0.00    -0.118 OA 
BRANCH  10  11
HETATM   11  C   UNL     1      -9.602   4.654  67.305  1.00  0.00    -0.175 C  
HETATM   12  C   UNL     1      -8.900   4.930  65.928  1.00  0.00    -0.130 C  
HETATM   13  O   UNL     1      -9.779   3.558  67.825  1.00  0.00    -0.165 OA 
HETATM   14  C   UNL     1      -9.285   3.805  64.937  1.00  0.00    -0.148 A  
HETATM   15  O   UNL     1      -9.405   6.150  65.368  1.00  0.00    -0.368 OA 
HETATM   16  C   UNL     1      -7.351   5.090  66.197  1.00  0.00    -0.078 C  
HETATM   17  C   UNL     1      -6.472   5.270  64.941  1.00  0.00    -0.039 C  
HETATM   18  C   UNL     1     -10.395   3.953  64.077  1.00  0.00    -0.229 A  
HETATM   19  H   UNL     1      -8.980   6.317  64.535  1.00  0.00     0.000 HD 
HETATM   20  C   UNL     1      -6.571   6.657  64.311  1.00  0.00    -0.041 C  
HETATM   21  C   UNL     1     -10.770   2.947  63.178  1.00  0.00    -0.220 A  
HETATM   22  C   UNL     1     -10.048   1.761  63.121  1.00  0.00    -0.115 A  
HETATM   23  C   UNL     1      -6.244   7.767  65.305  1.00  0.00    -0.038 C  
HETATM   24  C   UNL     1      -7.018   7.641  66.606  1.00  0.00    -0.078 C  
HETATM   25  C   UNL     1      -8.965   1.576  63.975  1.00  0.00    -0.093 A  
HETATM   26  C   UNL     1      -8.595   2.580  64.881  1.00  0.00    -0.100 A  
HETATM   27  C   UNL     1      -6.964   6.228  67.172  1.00  0.00    -0.072 C  
ENDBRANCH  10  11
ENDBRANCH   9  10
ENDBRANCH   8   9
TORSDOF 3
ENDMDL
MODEL      197
REMARK 921   NORMALIZED FREE ENERGY PREDICTED BY IDOCK:   -3.41 KCAL/MOL
REMARK 922        TOTAL FREE ENERGY PREDICTED BY IDOCK:   -4.45 KCAL/MOL
REMARK 923 INTER-LIGAND FREE ENERGY PREDICTED BY IDOCK:   -5.14 KCAL/MOL
REMARK 924 INTRA-LIGAND FREE ENERGY PREDICTED BY IDOCK:    0.68 KCAL/MOL
REMARK 927      BINDING AFFINITY PREDICTED BY RF-SCORE:    0.00 PKD
ROOT
HETATM    1  C   UNL     1      -6.719  12.739  67.469  1.00  0.00    -0.154 C  
HETATM    2  N   UNL     1      -7.558  11.726  68.088  1.00  0.00    -0.108 NA 
HETATM    3  C   UNL     1      -7.270  10.359  67.699  1.00  0.00    -0.086 C  
HETATM    4  C   UNL     1      -8.119   9.303  68.371  1.00  0.00    -0.106 C  
HETATM    5  C   UNL     1      -9.266   9.762  69.242  1.00  0.00    -0.192 C  
HETATM    6  N   UNL     1      -9.428  11.190  69.421  1.00  0.00    -0.401 NA 
HETATM    7  H   UNL     1     -10.204  11.528  69.990  1.00  0.00     0.000 HD 
HETATM    8  C   UNL     1      -8.634  12.045  68.892  1.00  0.00     0.198 C  
ENDROOT
BRANCH   8   9
HETATM    9  C   UNL     1      -8.951  13.554  69.169  1.00  0.00     0.554 C  
BRANCH   9  10
HETATM   10  O   UNL     1     -10.311  13.976  69.136  1.00  0.00    -0.171 OA 
BRANCH  10  11
HETATM   11  C   UNL     1     -10.523  15.243  68.642  1.00  0.00    -0.235 C  
HETATM   12  C   UNL     1     -10.218  15.254  67.102  1.00  0.00    -0.252 C  
HETATM   13  O   UNL     1     -10.909  16.193  69.313  1.00  0.00    -0.264 OA 
HETATM   14  C   UNL     1      -9.568  16.608  66.731  1.00  0.00    -0.270 A  
HETATM   15  O   UNL     1      -9.246  14.243  66.799  1.00  0.00    -0.248 OA 
HETATM   16  C   UNL     1     -11.561  14.920  66.340  1.00  0.00    -0.238 C  
HETATM   17  C   UNL     1     -11.486  14.980  64.799  1.00  0.00    -0.403 C  
HETATM   18  C   UNL     1      -8.163  16.752  66.719  1.00  0.00    -0.271 A  
HETATM   19  H   UNL     1      -9.061  14.249  65.867  1.00  0.00     0.000 HD 
HETATM   20  C   UNL     1     -10.759  13.795  64.169  1.00  0.00    -0.055 C  
HETATM   21  C   UNL     1      -7.549  17.969  66.396  1.00  0.00    -0.297 A  
HETATM   22  C   UNL     1      -8.327  19.077  66.082  1.00  0.00    -0.230 A  
HETATM   23  C   UNL     1     -11.369  12.459  64.580  1.00  0.00    -0.364 C  
HETATM   24  C   UNL     1     -11.542  12.327  66.084  1.00  0.00    -0.450 C  
HETATM   25  C   UNL     1      -9.714  18.972  66.110  1.00  0.00    -0.333 A  
HETATM   26  C   UNL     1     -10.328  17.756  66.442  1.00  0.00    -0.351 A  
HETATM   27  C   UNL     1     -12.202  13.556  66.696  1.00  0.00    -0.411 C  
ENDBRANCH  10  11
ENDBRANCH   9  10
ENDBRANCH   8   9
TORSDOF 3
ENDMDL
MODEL      198
REMARK 921   NORMALIZED FREE ENERGY PREDICTED BY IDOCK:   -3.41 KCAL/MOL
REMARK 922        TOTAL FREE ENERGY PREDICTED BY IDOCK:   -4.45 KCAL/MOL
REMARK 923 INTER-LIGAND FREE ENERGY PREDICTED BY IDOCK:   -4.06 KCAL/MOL
REMARK 924 INTRA-LIGAND FREE ENERGY PREDICTED BY IDOCK:   -0.39 KCAL/MOL
REMARK 927      BINDING AFFINITY PREDICTED BY RF-SCORE:    0.00 PKD
ROOT
HETATM    1  C   UNL     1      -5.480  10.410  66.567  1.00  0.00    -0.055 C  
HETATM    2  N   UNL     1      -6.282  10.371  65.355  1.00  0.00    -0.124 NA 
HETATM    3  C   UNL     1      -5.532  10.368  64.113  1.00  0.00    -0.149 C  
HETATM    4  C   UNL     1      -6.367  10.290  62.854  1.00  0.00    -0.140 C  
HETATM    5  C   UNL     1      -7.869  10.380  62.992  1.00  0.00    -0.127 C  
HETATM    6  N   UNL     1      -8.405  10.471  64.334  1.00  0.00    -0.289 NA 
HETATM    7  H   UNL     1      -9.414  10.551  64.454  1.00  0.00     0.000 HD 
HETATM    8  C   UNL     1      -7.660  10.456  65.376  1.00  0.00    -0.131 C  
ENDROOT
BRANCH   8   9
HETATM    9  C   UNL     1      -8.390  10.576  66.756  1.00  0.00    -0.128 C  
BRANCH   9  10
HETATM   10  O   UNL     1      -8.543   9.398  67.543  1.00  0.00    -0.122 OA 
BRANCH  10  11
HETATM   11  C   UNL     1      -9.140   9.583  68.770  1.00  0.00    -0.133 C  
HETATM   12  C   UNL     1      -8.857   8.331  69.674  1.00  0.00    -0.139 C  
HETATM   13  O   UNL     1      -9.770  10.585  69.091  1.00  0.00    -0.203 OA 
HETATM   14  C   UNL     1     -10.105   8.052  70.545  1.00  0.00    -0.195 A  
HETATM   15  O   UNL     1      -8.676   7.173  68.847  1.00  0.00    -0.128 OA 
HETATM   16  C   UNL     1      -7.523   8.604  70.476  1.00  0.00    -0.071 C  
HETATM   17  C   UNL     1      -7.128   7.520  71.501  1.00  0.00    -0.062 C  
HETATM   18  C   UNL     1     -11.102   7.153  70.107  1.00  0.00    -0.301 A  
HETATM   19  H   UNL     1      -8.505   6.415  69.394  1.00  0.00     0.000 HD 
HETATM   20  C   UNL     1      -6.564   6.249  70.870  1.00  0.00    -0.053 C  
HETATM   21  C   UNL     1     -12.245   6.890  70.872  1.00  0.00    -0.404 A  
HETATM   22  C   UNL     1     -12.425   7.527  72.095  1.00  0.00    -0.228 A  
HETATM   23  C   UNL     1      -5.368   6.533  69.968  1.00  0.00    -0.014 C  
HETATM   24  C   UNL     1      -5.639   7.636  68.959  1.00  0.00    -0.022 C  
HETATM   25  C   UNL     1     -11.472   8.437  72.541  1.00  0.00    -0.422 A  
HETATM   26  C   UNL     1     -10.331   8.706  71.771  1.00  0.00    -0.386 A  
HETATM   27  C   UNL     1      -6.270   8.863  69.605  1.00  0.00    -0.039 C  
ENDBRANCH  10  11
ENDBRANCH   9  10
ENDBRANCH   8   9
TORSDOF 3
ENDMDL
MODEL      199
REMARK 921   NORMALIZED FREE ENERGY PREDICTED BY IDOCK:   -3.40 KCAL/MOL
REMARK 922        TOTAL FREE ENERGY PREDICTED BY IDOCK:   -4.45 KCAL/MOL
REMARK 923 INTER-LIGAND FREE ENERGY PREDICTED BY IDOCK:   -3.91 KCAL/MOL
REMARK 924 INTRA-LIGAND FREE ENERGY PREDICTED BY IDOCK:   -0.53 KCAL/MOL
REMARK 927      BINDING AFFINITY PREDICTED BY RF-SCORE:    0.00 PKD
ROOT
HETATM    1  C   UNL     1      -9.739  19.900  66.579  1.00  0.00    -0.433 C  
HETATM    2  N   UNL     1      -8.456  19.820  67.259  1.00  0.00    -0.305 NA 
HETATM    3  C   UNL     1      -7.469  20.797  66.841  1.00  0.00    -0.218 C  
HETATM    4  C   UNL     1      -6.148  20.736  67.575  1.00  0.00    -0.319 C  
HETATM    5  C   UNL     1      -5.924  19.595  68.540  1.00  0.00    -0.230 C  
HETATM    6  N   UNL     1      -7.023  18.673  68.739  1.00  0.00    -0.281 NA 
HETATM    7  H   UNL     1      -6.892  17.884  69.371  1.00  0.00     0.000 HD 
HETATM    8  C   UNL     1      -8.152  18.811  68.151  1.00  0.00    -0.299 C  
ENDROOT
BRANCH   8   9
HETATM    9  C   UNL     1      -9.236  17.723  68.461  1.00  0.00    -0.281 C  
BRANCH   9  10
HETATM   10  O   UNL     1      -9.045  16.411  67.940  1.00  0.00    -0.198 OA 
BRANCH  10  11
HETATM   11  C   UNL     1      -9.554  15.391  68.711  1.00  0.00    -0.209 C  
HETATM   12  C   UNL     1      -8.931  14.029  68.240  1.00  0.00    -0.190 C  
HETATM   13  O   UNL     1     -10.351  15.547  69.629  1.00  0.00    -0.247 OA 
HETATM   14  C   UNL     1     -10.007  12.923  68.350  1.00  0.00    -0.211 A  
HETATM   15  O   UNL     1      -8.582  14.116  66.851  1.00  0.00    -0.321 OA 
HETATM   16  C   UNL     1      -7.619  13.779  69.084  1.00  0.00     0.103 C  
HETATM   17  C   UNL     1      -6.911  12.430  68.832  1.00  0.00    -0.091 C  
HETATM   18  C   UNL     1     -10.825  12.602  67.244  1.00  0.00    -0.277 A  
HETATM   19  H   UNL     1      -8.205  13.292  66.565  1.00  0.00     0.000 HD 
HETATM   20  C   UNL     1      -6.149  12.370  67.510  1.00  0.00    -0.148 C  
HETATM   21  C   UNL     1     -11.812  11.612  67.320  1.00  0.00    -0.133 A  
HETATM   22  C   UNL     1     -12.013  10.920  68.509  1.00  0.00    -0.137 A  
HETATM   23  C   UNL     1      -5.126  13.494  67.381  1.00  0.00     0.245 C  
HETATM   24  C   UNL     1      -5.716  14.864  67.673  1.00  0.00    -0.026 C  
HETATM   25  C   UNL     1     -11.239  11.231  69.622  1.00  0.00    -0.321 A  
HETATM   26  C   UNL     1     -10.256  12.229  69.548  1.00  0.00     0.714 A  
HETATM   27  C   UNL     1      -6.533  14.876  68.959  1.00  0.00    -0.102 C  
ENDBRANCH  10  11
ENDBRANCH   9  10
ENDBRANCH   8   9
TORSDOF 3
ENDMDL
MODEL      200
REMARK 921   NORMALIZED FREE ENERGY PREDICTED BY IDOCK:   -3.33 KCAL/MOL
REMARK 922        TOTAL FREE ENERGY PREDICTED BY IDOCK:   -4.36 KCAL/MOL
REMARK 923 INTER-LIGAND FREE ENERGY PREDICTED BY IDOCK:   -4.10 KCAL/MOL
REMARK 924 INTRA-LIGAND FREE ENERGY PREDICTED BY IDOCK:   -0.26 KCAL/MOL
REMARK 927      BINDING AFFINITY PREDICTED BY RF-SCORE:    0.00 PKD
ROOT
HETATM    1  C   UNL     1      -8.672   6.222  70.276  1.00  0.00    -0.142 C  
HETATM    2  N   UNL     1      -9.932   6.844  70.651  1.00  0.00    -0.187 NA 
HETATM    3  C   UNL     1     -11.115   6.038  70.419  1.00  0.00    -0.329 C  
HETATM    4  C   UNL     1     -12.422   6.671  70.843  1.00  0.00    -0.183 C  
HETATM    5  C   UNL     1     -12.396   8.108  71.310  1.00  0.00    -0.265 C  
HETATM    6  N   UNL     1     -11.104   8.757  71.377  1.00  0.00    -0.267 NA 
HETATM    7  H   UNL     1     -11.059   9.732  71.672  1.00  0.00     0.000 HD 
HETATM    8  C   UNL     1     -10.013   8.154  71.080  1.00  0.00    -0.180 C  
ENDROOT
BRANCH   8   9
HETATM    9  C   UNL     1      -8.698   8.996  71.191  1.00  0.00    -0.203 C  
BRANCH   9  10
HETATM   10  O   UNL     1      -8.570  10.159  70.378  1.00  0.00     0.004 OA 
BRANCH  10  11
HETATM   11  C   UNL     1      -8.458   9.922  69.026  1.00  0.00    -0.136 C  
HETATM   12  C   UNL     1      -8.413  11.295  68.265  1.00  0.00    -0.152 C  
HETATM   13  O   UNL     1      -8.386   8.808  68.520  1.00  0.00    -0.126 OA 
HETATM   14  C   UNL     1      -9.172  11.149  66.925  1.00  0.00    -0.179 A  
HETATM   15  O   UNL     1      -9.120  12.287  69.023  1.00  0.00    -0.364 OA 
HETATM   16  C   UNL     1      -6.898  11.729  68.138  1.00  0.00    -0.066 C  
HETATM   17  C   UNL     1      -6.640  13.016  67.327  1.00  0.00    -0.004 C  
HETATM   18  C   UNL     1     -10.544  11.471  66.836  1.00  0.00    -0.284 A  
HETATM   19  H   UNL     1      -9.093  13.118  68.563  1.00  0.00     0.000 HD 
HETATM   20  C   UNL     1      -7.011  14.298  68.068  1.00  0.00    -0.149 C  
HETATM   21  C   UNL     1     -11.257  11.339  65.638  1.00  0.00    -0.074 A  
HETATM   22  C   UNL     1     -10.615  10.873  64.496  1.00  0.00    -0.335 A  
HETATM   23  C   UNL     1      -6.303  14.414  69.414  1.00  0.00    -0.122 C  
HETATM   24  C   UNL     1      -6.448  13.164  70.265  1.00  0.00     0.212 C  
HETATM   25  C   UNL     1      -9.270  10.523  64.559  1.00  0.00    -0.278 A  
HETATM   26  C   UNL     1      -8.559  10.648  65.762  1.00  0.00    -0.186 A  
HETATM   27  C   UNL     1      -6.144  11.895  69.480  1.00  0.00    -0.108 C  
ENDBRANCH  10  11
ENDBRANCH   9  10
ENDBRANCH   8   9
TORSDOF 3
ENDMDL
MODEL      201
REMARK 921   NORMALIZED FREE ENERGY PREDICTED BY IDOCK:   -3.33 KCAL/MOL
REMARK 922        TOTAL FREE ENERGY PREDICTED BY IDOCK:   -4.36 KCAL/MOL
REMARK 923 INTER-LIGAND FREE ENERGY PREDICTED BY IDOCK:   -3.87 KCAL/MOL
REMARK 924 INTRA-LIGAND FREE ENERGY PREDICTED BY IDOCK:   -0.49 KCAL/MOL
REMARK 927      BINDING AFFINITY PREDICTED BY RF-SCORE:    0.00 PKD
ROOT
HETATM    1  C   UNL     1      -9.315   9.244  65.903  1.00  0.00    -0.236 C  
HETATM    2  N   UNL     1      -8.808   7.919  65.584  1.00  0.00    -0.127 NA 
HETATM    3  C   UNL     1      -7.779   7.877  64.564  1.00  0.00    -0.125 C  
HETATM    4  C   UNL     1      -7.225   6.502  64.260  1.00  0.00    -0.069 C  
HETATM    5  C   UNL     1      -7.887   5.310  64.913  1.00  0.00    -0.095 C  
HETATM    6  N   UNL     1      -8.968   5.580  65.837  1.00  0.00    -0.153 NA 
HETATM    7  H   UNL     1      -9.444   4.794  66.279  1.00  0.00     0.000 HD 
HETATM    8  C   UNL     1      -9.351   6.769  66.122  1.00  0.00    -0.051 C  
ENDROOT
BRANCH   8   9
HETATM    9  C   UNL     1     -10.542   6.895  67.131  1.00  0.00    -0.338 C  
BRANCH   9  10
HETATM   10  O   UNL     1     -10.453   6.200  68.371  1.00  0.00    -0.180 OA 
BRANCH  10  11
HETATM   11  C   UNL     1      -9.499   6.672  69.244  1.00  0.00    -0.141 C  
HETATM   12  C   UNL     1      -9.311   5.638  70.411  1.00  0.00    -0.160 C  
HETATM   13  O   UNL     1      -8.889   7.726  69.101  1.00  0.00    -0.138 OA 
HETATM   14  C   UNL     1      -9.049   6.411  71.725  1.00  0.00    -0.143 A  
HETATM   15  O   UNL     1     -10.531   4.910  70.607  1.00  0.00    -0.202 OA 
HETATM   16  C   UNL     1      -8.173   4.628  69.985  1.00  0.00    -0.068 C  
HETATM   17  C   UNL     1      -7.773   3.587  71.052  1.00  0.00    -0.047 C  
HETATM   18  C   UNL     1     -10.117   6.753  72.584  1.00  0.00    -0.193 A  
HETATM   19  H   UNL     1     -10.418   4.285  71.313  1.00  0.00     0.000 HD 
HETATM   20  C   UNL     1      -8.791   2.464  71.231  1.00  0.00    -0.125 C  
HETATM   21  C   UNL     1      -9.909   7.460  73.774  1.00  0.00    -0.331 A  
HETATM   22  C   UNL     1      -8.624   7.851  74.135  1.00  0.00    -0.296 A  
HETATM   23  C   UNL     1      -9.088   1.739  69.923  1.00  0.00    -0.151 C  
HETATM   24  C   UNL     1      -9.434   2.688  68.788  1.00  0.00    -0.183 C  
HETATM   25  C   UNL     1      -7.555   7.550  73.297  1.00  0.00    -0.118 A  
HETATM   26  C   UNL     1      -7.766   6.849  72.100  1.00  0.00    -0.093 A  
HETATM   27  C   UNL     1      -8.443   3.840  68.680  1.00  0.00    -0.102 C  
ENDBRANCH  10  11
ENDBRANCH   9  10
ENDBRANCH   8   9
TORSDOF 3
ENDMDL
MODEL      202
REMARK 921   NORMALIZED FREE ENERGY PREDICTED BY IDOCK:   -3.28 KCAL/MOL
REMARK 922        TOTAL FREE ENERGY PREDICTED BY IDOCK:   -4.30 KCAL/MOL
REMARK 923 INTER-LIGAND FREE ENERGY PREDICTED BY IDOCK:   -4.68 KCAL/MOL
REMARK 924 INTRA-LIGAND FREE ENERGY PREDICTED BY IDOCK:    0.38 KCAL/MOL
REMARK 927      BINDING AFFINITY PREDICTED BY RF-SCORE:    0.00 PKD
ROOT
HETATM    1  C   UNL     1     -12.991  10.303  71.614  1.00  0.00    -0.465 C  
HETATM    2  N   UNL     1     -12.213   9.239  70.998  1.00  0.00    -0.281 NA 
HETATM    3  C   UNL     1     -11.922   8.106  71.854  1.00  0.00    -0.320 C  
HETATM    4  C   UNL     1     -11.146   6.985  71.201  1.00  0.00    -0.288 C  
HETATM    5  C   UNL     1     -10.619   7.207  69.802  1.00  0.00    -0.234 C  
HETATM    6  N   UNL     1     -10.955   8.462  69.162  1.00  0.00    -0.430 NA 
HETATM    7  H   UNL     1     -10.597   8.645  68.225  1.00  0.00     0.000 HD 
HETATM    8  C   UNL     1     -11.682   9.351  69.728  1.00  0.00     0.238 C  
ENDROOT
BRANCH   8   9
HETATM    9  C   UNL     1     -11.945  10.661  68.911  1.00  0.00    -0.058 C  
BRANCH   9  10
HETATM   10  O   UNL     1     -12.136  11.877  69.627  1.00  0.00    -0.286 OA 
BRANCH  10  11
HETATM   11  C   UNL     1     -11.089  12.769  69.564  1.00  0.00     0.022 C  
HETATM   12  C   UNL     1     -11.630  14.219  69.828  1.00  0.00    -0.293 C  
HETATM   13  O   UNL     1      -9.922  12.455  69.356  1.00  0.00     0.412 OA 
HETATM   14  C   UNL     1     -10.849  15.214  68.938  1.00  0.00    -0.241 A  
HETATM   15  O   UNL     1     -13.002  14.301  69.416  1.00  0.00    -0.304 OA 
HETATM   16  C   UNL     1     -11.543  14.493  71.382  1.00  0.00    -0.117 C  
HETATM   17  C   UNL     1     -11.943  15.915  71.831  1.00  0.00    -0.588 C  
HETATM   18  C   UNL     1     -11.335  15.573  67.662  1.00  0.00    -0.260 A  
HETATM   19  H   UNL     1     -13.330  15.178  69.576  1.00  0.00     0.000 HD 
HETATM   20  C   UNL     1     -13.448  16.171  71.805  1.00  0.00     0.515 C  
HETATM   21  C   UNL     1     -10.642  16.464  66.832  1.00  0.00    -0.252 A  
HETATM   22  C   UNL     1      -9.438  17.014  67.256  1.00  0.00    -0.240 A  
HETATM   23  C   UNL     1     -14.221  15.156  72.640  1.00  0.00    -0.300 C  
HETATM   24  C   UNL     1     -13.850  13.719  72.313  1.00  0.00    -0.679 C  
HETATM   25  C   UNL     1      -8.921  16.660  68.498  1.00  0.00    -0.235 A  
HETATM   26  C   UNL     1      -9.611  15.761  69.325  1.00  0.00    -0.270 A  
HETATM   27  C   UNL     1     -12.342  13.510  72.273  1.00  0.00     0.269 C  
ENDBRANCH  10  11
ENDBRANCH   9  10
ENDBRANCH   8   9
TORSDOF 3
ENDMDL
MODEL      203
REMARK 921   NORMALIZED FREE ENERGY PREDICTED BY IDOCK:   -3.25 KCAL/MOL
REMARK 922        TOTAL FREE ENERGY PREDICTED BY IDOCK:   -4.27 KCAL/MOL
REMARK 923 INTER-LIGAND FREE ENERGY PREDICTED BY IDOCK:   -4.29 KCAL/MOL
REMARK 924 INTRA-LIGAND FREE ENERGY PREDICTED BY IDOCK:    0.02 KCAL/MOL
REMARK 927      BINDING AFFINITY PREDICTED BY RF-SCORE:    0.00 PKD
ROOT
HETATM    1  C   UNL     1      -9.626  10.582  64.302  1.00  0.00    -0.307 C  
HETATM    2  N   UNL     1      -9.772  11.105  65.651  1.00  0.00    -0.215 NA 
HETATM    3  C   UNL     1      -9.637  12.543  65.778  1.00  0.00    -0.129 C  
HETATM    4  C   UNL     1      -9.826  13.089  67.176  1.00  0.00    -0.230 C  
HETATM    5  C   UNL     1      -9.975  12.101  68.310  1.00  0.00    -0.212 C  
HETATM    6  N   UNL     1      -9.990  10.696  67.963  1.00  0.00    -0.157 NA 
HETATM    7  H   UNL     1     -10.071  10.007  68.711  1.00  0.00     0.000 HD 
HETATM    8  C   UNL     1      -9.904  10.283  66.753  1.00  0.00    -0.197 C  
ENDROOT
BRANCH   8   9
HETATM    9  C   UNL     1      -9.922   8.732  66.543  1.00  0.00    -0.290 C  
BRANCH   9  10
HETATM   10  O   UNL     1      -8.678   8.039  66.520  1.00  0.00    -0.131 OA 
BRANCH  10  11
HETATM   11  C   UNL     1      -8.324   7.424  67.700  1.00  0.00    -0.118 C  
HETATM   12  C   UNL     1      -9.026   6.022  67.782  1.00  0.00    -0.111 C  
HETATM   13  O   UNL     1      -7.562   7.906  68.531  1.00  0.00    -0.100 OA 
HETATM   14  C   UNL     1      -9.424   5.748  69.251  1.00  0.00    -0.159 A  
HETATM   15  O   UNL     1     -10.248   6.054  67.032  1.00  0.00    -0.160 OA 
HETATM   16  C   UNL     1      -8.054   4.956  67.136  1.00  0.00    -0.107 C  
HETATM   17  C   UNL     1      -8.531   3.489  67.212  1.00  0.00    -0.103 C  
HETATM   18  C   UNL     1     -10.707   6.099  69.727  1.00  0.00    -0.376 A  
HETATM   19  H   UNL     1     -10.673   5.205  67.081  1.00  0.00     0.000 HD 
HETATM   20  C   UNL     1      -9.653   3.153  66.234  1.00  0.00     0.028 C  
HETATM   21  C   UNL     1     -11.089   5.870  71.054  1.00  0.00    -0.315 A  
HETATM   22  C   UNL     1     -10.193   5.290  71.945  1.00  0.00    -0.264 A  
HETATM   23  C   UNL     1      -9.278   3.475  64.791  1.00  0.00    -0.142 C  
HETATM   24  C   UNL     1      -8.737   4.885  64.623  1.00  0.00    -0.152 C  
HETATM   25  C   UNL     1      -8.914   4.957  71.512  1.00  0.00    -0.160 A  
HETATM   26  C   UNL     1      -8.529   5.194  70.185  1.00  0.00    -0.102 A  
HETATM   27  C   UNL     1      -7.671   5.218  65.659  1.00  0.00    -0.087 C  
ENDBRANCH  10  11
ENDBRANCH   9  10
ENDBRANCH   8   9
TORSDOF 3
ENDMDL
MODEL      204
REMARK 921   NORMALIZED FREE ENERGY PREDICTED BY IDOCK:   -3.22 KCAL/MOL
REMARK 922        TOTAL FREE ENERGY PREDICTED BY IDOCK:   -4.23 KCAL/MOL
REMARK 923 INTER-LIGAND FREE ENERGY PREDICTED BY IDOCK:   -4.36 KCAL/MOL
REMARK 924 INTRA-LIGAND FREE ENERGY PREDICTED BY IDOCK:    0.13 KCAL/MOL
REMARK 927      BINDING AFFINITY PREDICTED BY RF-SCORE:    0.00 PKD
ROOT
HETATM    1  C   UNL     1     -10.183  19.580  67.510  1.00  0.00    -0.424 C  
HETATM    2  N   UNL     1      -8.847  19.321  68.023  1.00  0.00    -0.307 NA 
HETATM    3  C   UNL     1      -7.865  20.352  67.745  1.00  0.00    -0.210 C  
HETATM    4  C   UNL     1      -6.485  20.099  68.311  1.00  0.00    -0.326 C  
HETATM    5  C   UNL     1      -6.218  18.760  68.960  1.00  0.00    -0.240 C  
HETATM    6  N   UNL     1      -7.330  17.837  69.049  1.00  0.00    -0.224 NA 
HETATM    7  H   UNL     1      -7.173  16.920  69.466  1.00  0.00     0.000 HD 
HETATM    8  C   UNL     1      -8.503  18.127  68.623  1.00  0.00    -0.270 C  
ENDROOT
BRANCH   8   9
HETATM    9  C   UNL     1      -9.595  17.016  68.780  1.00  0.00    -0.269 C  
BRANCH   9  10
HETATM   10  O   UNL     1      -9.724  16.044  67.747  1.00  0.00    -0.219 OA 
BRANCH  10  11
HETATM   11  C   UNL     1      -8.592  15.304  67.490  1.00  0.00    -0.177 C  
HETATM   12  C   UNL     1      -8.996  13.799  67.289  1.00  0.00    -0.224 C  
HETATM   13  O   UNL     1      -7.461  15.769  67.413  1.00  0.00    -0.156 OA 
HETATM   14  C   UNL     1      -7.890  12.901  67.893  1.00  0.00    -0.151 A  
HETATM   15  O   UNL     1     -10.192  13.521  68.031  1.00  0.00    -0.230 OA 
HETATM   16  C   UNL     1      -9.281  13.575  65.751  1.00  0.00     0.286 C  
HETATM   17  C   UNL     1      -9.600  12.123  65.338  1.00  0.00    -0.112 C  
HETATM   18  C   UNL     1      -7.979  12.449  69.228  1.00  0.00     0.570 A  
HETATM   19  H   UNL     1     -10.436  12.610  67.910  1.00  0.00     0.000 HD 
HETATM   20  C   UNL     1     -11.001  11.662  65.730  1.00  0.00    -0.329 C  
HETATM   21  C   UNL     1      -6.988  11.643  69.801  1.00  0.00     0.132 A  
HETATM   22  C   UNL     1      -5.875  11.273  69.054  1.00  0.00    -0.041 A  
HETATM   23  C   UNL     1     -12.087  12.580  65.179  1.00  0.00    -0.503 C  
HETATM   24  C   UNL     1     -11.829  14.047  65.483  1.00  0.00    -0.370 C  
HETATM   25  C   UNL     1      -5.747  11.724  67.745  1.00  0.00    -0.057 A  
HETATM   26  C   UNL     1      -6.736  12.538  67.174  1.00  0.00    -0.060 A  
HETATM   27  C   UNL     1     -10.401  14.460  65.151  1.00  0.00    -0.447 C  
ENDBRANCH  10  11
ENDBRANCH   9  10
ENDBRANCH   8   9
TORSDOF 3
ENDMDL
MODEL      205
REMARK 921   NORMALIZED FREE ENERGY PREDICTED BY IDOCK:   -3.18 KCAL/MOL
REMARK 922        TOTAL FREE ENERGY PREDICTED BY IDOCK:   -4.19 KCAL/MOL
REMARK 923 INTER-LIGAND FREE ENERGY PREDICTED BY IDOCK:   -3.63 KCAL/MOL
REMARK 924 INTRA-LIGAND FREE ENERGY PREDICTED BY IDOCK:   -0.56 KCAL/MOL
REMARK 927      BINDING AFFINITY PREDICTED BY RF-SCORE:    0.00 PKD
ROOT
HETATM    1  C   UNL     1      -6.335   7.019  64.125  1.00  0.00    -0.039 C  
HETATM    2  N   UNL     1      -7.027   5.772  64.408  1.00  0.00    -0.050 NA 
HETATM    3  C   UNL     1      -6.412   4.581  63.852  1.00  0.00    -0.037 C  
HETATM    4  C   UNL     1      -7.112   3.281  64.178  1.00  0.00    -0.053 C  
HETATM    5  C   UNL     1      -8.439   3.349  64.899  1.00  0.00    -0.101 C  
HETATM    6  N   UNL     1      -8.914   4.662  65.283  1.00  0.00    -0.143 NA 
HETATM    7  H   UNL     1      -9.814   4.738  65.755  1.00  0.00     0.000 HD 
HETATM    8  C   UNL     1      -8.247   5.731  65.053  1.00  0.00    -0.137 C  
ENDROOT
BRANCH   8   9
HETATM    9  C   UNL     1      -8.901   7.075  65.519  1.00  0.00     0.049 C  
BRANCH   9  10
HETATM   10  O   UNL     1      -9.110   7.277  66.913  1.00  0.00    -0.130 OA 
BRANCH  10  11
HETATM   11  C   UNL     1      -8.224   8.136  67.523  1.00  0.00    -0.123 C  
HETATM   12  C   UNL     1      -9.009   9.066  68.516  1.00  0.00    -0.133 C  
HETATM   13  O   UNL     1      -7.015   8.142  67.324  1.00  0.00    -0.072 OA 
HETATM   14  C   UNL     1      -8.370  10.474  68.492  1.00  0.00    -0.129 A  
HETATM   15  O   UNL     1     -10.358   9.226  68.058  1.00  0.00    -0.199 OA 
HETATM   16  C   UNL     1      -9.027   8.358  69.930  1.00  0.00    -0.142 C  
HETATM   17  C   UNL     1      -9.674   9.170  71.072  1.00  0.00    -0.359 C  
HETATM   18  C   UNL     1      -8.861  11.472  67.621  1.00  0.00    -0.152 A  
HETATM   19  H   UNL     1     -10.834   9.789  68.658  1.00  0.00     0.000 HD 
HETATM   20  C   UNL     1     -11.199   9.222  71.007  1.00  0.00    -0.392 C  
HETATM   21  C   UNL     1      -8.295  12.752  67.573  1.00  0.00    -0.179 A  
HETATM   22  C   UNL     1      -7.216  13.066  68.391  1.00  0.00    -0.110 A  
HETATM   23  C   UNL     1     -11.824   7.831  70.976  1.00  0.00    -0.290 C  
HETATM   24  C   UNL     1     -11.207   6.931  69.918  1.00  0.00    -0.334 C  
HETATM   25  C   UNL     1      -6.695  12.096  69.241  1.00  0.00    -0.084 A  
HETATM   26  C   UNL     1      -7.257  10.812  69.283  1.00  0.00    -0.122 A  
HETATM   27  C   UNL     1      -9.684   6.957  69.959  1.00  0.00    -0.170 C  
ENDBRANCH  10  11
ENDBRANCH   9  10
ENDBRANCH   8   9
TORSDOF 3
ENDMDL
MODEL      206
REMARK 921   NORMALIZED FREE ENERGY PREDICTED BY IDOCK:   -3.08 KCAL/MOL
REMARK 922        TOTAL FREE ENERGY PREDICTED BY IDOCK:   -4.07 KCAL/MOL
REMARK 923 INTER-LIGAND FREE ENERGY PREDICTED BY IDOCK:   -4.20 KCAL/MOL
REMARK 924 INTRA-LIGAND FREE ENERGY PREDICTED BY IDOCK:    0.13 KCAL/MOL
REMARK 927      BINDING AFFINITY PREDICTED BY RF-SCORE:    0.00 PKD
ROOT
HETATM    1  C   UNL     1     -10.719   5.550  73.281  1.00  0.00    -0.274 C  
HETATM    2  N   UNL     1      -9.501   6.329  73.437  1.00  0.00    -0.138 NA 
HETATM    3  C   UNL     1      -8.552   5.811  74.404  1.00  0.00    -0.114 C  
HETATM    4  C   UNL     1      -7.269   6.602  74.538  1.00  0.00    -0.099 C  
HETATM    5  C   UNL     1      -7.161   7.911  73.791  1.00  0.00    -0.126 C  
HETATM    6  N   UNL     1      -8.276   8.282  72.945  1.00  0.00    -0.259 NA 
HETATM    7  H   UNL     1      -8.236   9.169  72.443  1.00  0.00     0.000 HD 
HETATM    8  C   UNL     1      -9.311   7.541  72.804  1.00  0.00    -0.167 C  
ENDROOT
BRANCH   8   9
HETATM    9  C   UNL     1     -10.437   8.088  71.864  1.00  0.00    -0.236 C  
BRANCH   9  10
HETATM   10  O   UNL     1     -10.444   7.669  70.502  1.00  0.00    -0.214 OA 
BRANCH  10  11
HETATM   11  C   UNL     1      -9.212   7.636  69.889  1.00  0.00    -0.147 C  
HETATM   12  C   UNL     1      -9.316   8.332  68.486  1.00  0.00    -0.138 C  
HETATM   13  O   UNL     1      -8.202   7.153  70.389  1.00  0.00    -0.122 OA 
HETATM   14  C   UNL     1      -8.403   7.581  67.487  1.00  0.00    -0.117 A  
HETATM   15  O   UNL     1     -10.654   8.203  67.985  1.00  0.00    -0.344 OA 
HETATM   16  C   UNL     1      -8.985   9.865  68.680  1.00  0.00    -0.128 C  
HETATM   17  C   UNL     1      -8.939  10.705  67.386  1.00  0.00    -0.138 C  
HETATM   18  C   UNL     1      -8.917   6.536  66.688  1.00  0.00    -0.144 A  
HETATM   19  H   UNL     1     -10.717   8.624  67.135  1.00  0.00     0.000 HD 
HETATM   20  C   UNL     1     -10.315  11.011  66.798  1.00  0.00    -0.284 C  
HETATM   21  C   UNL     1      -8.111   5.834  65.784  1.00  0.00    -0.116 A  
HETATM   22  C   UNL     1      -6.764   6.156  65.660  1.00  0.00    -0.048 A  
HETATM   23  C   UNL     1     -11.231  11.702  67.803  1.00  0.00    -0.333 C  
HETATM   24  C   UNL     1     -11.294  10.979  69.138  1.00  0.00    -0.348 C  
HETATM   25  C   UNL     1      -6.223   7.163  66.452  1.00  0.00    -0.040 A  
HETATM   26  C   UNL     1      -7.030   7.860  67.364  1.00  0.00    -0.075 A  
HETATM   27  C   UNL     1      -9.911  10.622  69.663  1.00  0.00    -0.052 C  
ENDBRANCH  10  11
ENDBRANCH   9  10
ENDBRANCH   8   9
TORSDOF 3
ENDMDL
MODEL      207
REMARK 921   NORMALIZED FREE ENERGY PREDICTED BY IDOCK:   -3.03 KCAL/MOL
REMARK 922        TOTAL FREE ENERGY PREDICTED BY IDOCK:   -4.01 KCAL/MOL
REMARK 923 INTER-LIGAND FREE ENERGY PREDICTED BY IDOCK:   -3.47 KCAL/MOL
REMARK 924 INTRA-LIGAND FREE ENERGY PREDICTED BY IDOCK:   -0.54 KCAL/MOL
REMARK 927      BINDING AFFINITY PREDICTED BY RF-SCORE:    0.00 PKD
ROOT
HETATM    1  C   UNL     1      -7.556   4.240  69.429  1.00  0.00    -0.054 C  
HETATM    2  N   UNL     1      -8.374   4.467  70.609  1.00  0.00    -0.073 NA 
HETATM    3  C   UNL     1      -9.185   3.340  71.029  1.00  0.00    -0.129 C  
HETATM    4  C   UNL     1     -10.007   3.565  72.279  1.00  0.00    -0.236 C  
HETATM    5  C   UNL     1     -10.033   4.955  72.870  1.00  0.00    -0.157 C  
HETATM    6  N   UNL     1      -9.212   5.960  72.229  1.00  0.00    -0.145 NA 
HETATM    7  H   UNL     1      -9.225   6.911  72.598  1.00  0.00     0.000 HD 
HETATM    8  C   UNL     1      -8.471   5.703  71.217  1.00  0.00    -0.128 C  
ENDROOT
BRANCH   8   9
HETATM    9  C   UNL     1      -7.652   6.901  70.630  1.00  0.00    -0.094 C  
BRANCH   9  10
HETATM   10  O   UNL     1      -8.273   7.729  69.652  1.00  0.00    -0.123 OA 
BRANCH  10  11
HETATM   11  C   UNL     1      -7.464   8.117  68.608  1.00  0.00    -0.098 C  
HETATM   12  C   UNL     1      -8.355   8.715  67.461  1.00  0.00    -0.120 C  
HETATM   13  O   UNL     1      -6.242   8.021  68.604  1.00  0.00    -0.042 OA 
HETATM   14  C   UNL     1      -7.747   8.315  66.096  1.00  0.00    -0.097 A  
HETATM   15  O   UNL     1      -9.661   8.125  67.510  1.00  0.00    -0.148 OA 
HETATM   16  C   UNL     1      -8.484  10.271  67.710  1.00  0.00    -0.114 C  
HETATM   17  C   UNL     1      -9.248  11.058  66.624  1.00  0.00    -0.182 C  
HETATM   18  C   UNL     1      -8.179   7.146  65.431  1.00  0.00    -0.137 A  
HETATM   19  H   UNL     1     -10.200   8.486  66.816  1.00  0.00     0.000 HD 
HETATM   20  C   UNL     1     -10.761  10.860  66.666  1.00  0.00    -0.289 C  
HETATM   21  C   UNL     1      -7.638   6.755  64.199  1.00  0.00    -0.105 A  
HETATM   22  C   UNL     1      -6.644   7.522  63.603  1.00  0.00    -0.053 A  
HETATM   23  C   UNL     1     -11.351  11.204  68.030  1.00  0.00    -0.380 C  
HETATM   24  C   UNL     1     -10.623  10.522  69.176  1.00  0.00    -0.258 C  
HETATM   25  C   UNL     1      -6.180   8.665  64.246  1.00  0.00    -0.067 A  
HETATM   26  C   UNL     1      -6.716   9.051  65.483  1.00  0.00    -0.072 A  
HETATM   27  C   UNL     1      -9.111  10.673  69.068  1.00  0.00    -0.174 C  
ENDBRANCH  10  11
ENDBRANCH   9  10
ENDBRANCH   8   9
TORSDOF 3
ENDMDL
MODEL      208
REMARK 921   NORMALIZED FREE ENERGY PREDICTED BY IDOCK:   -3.03 KCAL/MOL
REMARK 922        TOTAL FREE ENERGY PREDICTED BY IDOCK:   -4.01 KCAL/MOL
REMARK 923 INTER-LIGAND FREE ENERGY PREDICTED BY IDOCK:   -3.57 KCAL/MOL
REMARK 924 INTRA-LIGAND FREE ENERGY PREDICTED BY IDOCK:   -0.45 KCAL/MOL
REMARK 927      BINDING AFFINITY PREDICTED BY RF-SCORE:    0.00 PKD
ROOT
HETATM    1  C   UNL     1      -9.091   6.448  70.837  1.00  0.00    -0.151 C  
HETATM    2  N   UNL     1      -8.866   6.243  69.415  1.00  0.00    -0.127 NA 
HETATM    3  C   UNL     1      -8.611   4.872  69.018  1.00  0.00    -0.084 C  
HETATM    4  C   UNL     1      -8.415   4.654  67.534  1.00  0.00    -0.104 C  
HETATM    5  C   UNL     1      -8.345   5.871  66.641  1.00  0.00    -0.110 C  
HETATM    6  N   UNL     1      -8.537   7.162  67.269  1.00  0.00    -0.121 NA 
HETATM    7  H   UNL     1      -8.478   8.001  66.693  1.00  0.00     0.000 HD 
HETATM    8  C   UNL     1      -8.778   7.291  68.521  1.00  0.00    -0.123 C  
ENDROOT
BRANCH   8   9
HETATM    9  C   UNL     1      -8.949   8.754  69.050  1.00  0.00    -0.137 C  
BRANCH   9  10
HETATM   10  O   UNL     1      -8.472   9.826  68.241  1.00  0.00    -0.113 OA 
BRANCH  10  11
HETATM   11  C   UNL     1      -8.160  10.983  68.919  1.00  0.00    -0.135 C  
HETATM   12  C   UNL     1      -8.431  12.216  67.985  1.00  0.00    -0.170 C  
HETATM   13  O   UNL     1      -7.756  11.021  70.075  1.00  0.00     0.186 OA 
HETATM   14  C   UNL     1      -7.351  13.291  68.251  1.00  0.00    -0.113 A  
HETATM   15  O   UNL     1      -8.279  11.822  66.614  1.00  0.00    -0.225 OA 
HETATM   16  C   UNL     1      -9.922  12.685  68.222  1.00  0.00    -0.229 C  
HETATM   17  C   UNL     1     -10.349  13.957  67.460  1.00  0.00    -0.245 C  
HETATM   18  C   UNL     1      -6.169  13.329  67.480  1.00  0.00    -0.114 A  
HETATM   19  H   UNL     1      -8.443  12.568  66.049  1.00  0.00     0.000 HD 
HETATM   20  C   UNL     1     -10.590  13.732  65.969  1.00  0.00    -0.290 C  
HETATM   21  C   UNL     1      -5.171  14.286  67.706  1.00  0.00     0.007 A  
HETATM   22  C   UNL     1      -5.328  15.227  68.718  1.00  0.00    -0.094 A  
HETATM   23  C   UNL     1     -11.615  12.634  65.708  1.00  0.00    -0.431 C  
HETATM   24  C   UNL     1     -11.314  11.353  66.469  1.00  0.00    -0.195 C  
HETATM   25  C   UNL     1      -6.470  15.198  69.511  1.00  0.00    -0.151 A  
HETATM   26  C   UNL     1      -7.465  14.234  69.289  1.00  0.00    -0.022 A  
HETATM   27  C   UNL     1     -11.004  11.616  67.937  1.00  0.00    -0.277 C  
ENDBRANCH  10  11
ENDBRANCH   9  10
ENDBRANCH   8   9
TORSDOF 3
ENDMDL
MODEL      209
REMARK 921   NORMALIZED FREE ENERGY PREDICTED BY IDOCK:   -2.89 KCAL/MOL
REMARK 922        TOTAL FREE ENERGY PREDICTED BY IDOCK:   -3.84 KCAL/MOL
REMARK 923 INTER-LIGAND FREE ENERGY PREDICTED BY IDOCK:   -3.77 KCAL/MOL
REMARK 924 INTRA-LIGAND FREE ENERGY PREDICTED BY IDOCK:   -0.07 KCAL/MOL
REMARK 927      BINDING AFFINITY PREDICTED BY RF-SCORE:    0.00 PKD
ROOT
HETATM    1  C   UNL     1      -7.247   4.752  62.822  1.00  0.00    -0.039 C  
HETATM    2  N   UNL     1      -7.291   3.857  63.967  1.00  0.00    -0.054 NA 
HETATM    3  C   UNL     1      -7.318   2.443  63.649  1.00  0.00    -0.053 C  
HETATM    4  C   UNL     1      -7.325   1.512  64.841  1.00  0.00    -0.053 C  
HETATM    5  C   UNL     1      -7.461   2.122  66.217  1.00  0.00    -0.066 C  
HETATM    6  N   UNL     1      -7.509   3.567  66.296  1.00  0.00    -0.076 NA 
HETATM    7  H   UNL     1      -7.618   4.004  67.211  1.00  0.00     0.000 HD 
HETATM    8  C   UNL     1      -7.422   4.317  65.262  1.00  0.00    -0.073 C  
ENDROOT
BRANCH   8   9
HETATM    9  C   UNL     1      -7.504   5.861  65.512  1.00  0.00    -0.082 C  
BRANCH   9  10
HETATM   10  O   UNL     1      -8.760   6.509  65.332  1.00  0.00    -0.115 OA 
BRANCH  10  11
HETATM   11  C   UNL     1      -9.660   6.344  66.360  1.00  0.00    -0.113 C  
HETATM   12  C   UNL     1      -9.458   7.492  67.411  1.00  0.00    -0.142 C  
HETATM   13  O   UNL     1     -10.494   5.446  66.414  1.00  0.00    -0.254 OA 
HETATM   14  C   UNL     1      -9.691   6.918  68.829  1.00  0.00    -0.137 A  
HETATM   15  O   UNL     1      -8.096   7.941  67.376  1.00  0.00    -0.119 OA 
HETATM   16  C   UNL     1     -10.405   8.692  67.006  1.00  0.00    -0.368 C  
HETATM   17  C   UNL     1     -10.421   9.886  67.983  1.00  0.00    -0.266 C  
HETATM   18  C   UNL     1      -8.610   6.421  69.590  1.00  0.00    -0.134 A  
HETATM   19  H   UNL     1      -7.974   8.635  68.012  1.00  0.00     0.000 HD 
HETATM   20  C   UNL     1      -9.173  10.762  67.909  1.00  0.00    -0.151 C  
HETATM   21  C   UNL     1      -8.795   5.888  70.872  1.00  0.00    -0.141 A  
HETATM   22  C   UNL     1     -10.070   5.831  71.424  1.00  0.00    -0.249 A  
HETATM   23  C   UNL     1      -8.915  11.283  66.499  1.00  0.00    -0.189 C  
HETATM   24  C   UNL     1      -8.941  10.183  65.451  1.00  0.00    -0.208 C  
HETATM   25  C   UNL     1     -11.157   6.289  70.688  1.00  0.00    -0.389 A  
HETATM   26  C   UNL     1     -10.973   6.816  69.401  1.00  0.00    -0.321 A  
HETATM   27  C   UNL     1     -10.159   9.280  65.595  1.00  0.00     0.025 C  
ENDBRANCH  10  11
ENDBRANCH   9  10
ENDBRANCH   8   9
TORSDOF 3
ENDMDL
MODEL      210
REMARK 921   NORMALIZED FREE ENERGY PREDICTED BY IDOCK:   -2.83 KCAL/MOL
REMARK 922        TOTAL FREE ENERGY PREDICTED BY IDOCK:   -3.78 KCAL/MOL
REMARK 923 INTER-LIGAND FREE ENERGY PREDICTED BY IDOCK:   -3.20 KCAL/MOL
REMARK 924 INTRA-LIGAND FREE ENERGY PREDICTED BY IDOCK:   -0.58 KCAL/MOL
REMARK 927      BINDING AFFINITY PREDICTED BY RF-SCORE:    0.00 PKD
ROOT
HETATM    1  C   UNL     1      -8.018  10.315  66.577  1.00  0.00    -0.118 C  
HETATM    2  N   UNL     1      -7.381   9.033  66.325  1.00  0.00    -0.090 NA 
HETATM    3  C   UNL     1      -6.028   9.102  65.807  1.00  0.00    -0.051 C  
HETATM    4  C   UNL     1      -5.353   7.767  65.581  1.00  0.00    -0.029 C  
HETATM    5  C   UNL     1      -6.180   6.515  65.757  1.00  0.00    -0.038 C  
HETATM    6  N   UNL     1      -7.550   6.685  66.194  1.00  0.00    -0.084 NA 
HETATM    7  H   UNL     1      -8.135   5.857  66.304  1.00  0.00     0.000 HD 
HETATM    8  C   UNL     1      -8.055   7.834  66.449  1.00  0.00    -0.109 C  
ENDROOT
BRANCH   8   9
HETATM    9  C   UNL     1      -9.554   7.852  66.901  1.00  0.00    -0.203 C  
BRANCH   9  10
HETATM   10  O   UNL     1      -9.840   7.771  68.294  1.00  0.00    -0.158 OA 
BRANCH  10  11
HETATM   11  C   UNL     1      -9.554   6.562  68.886  1.00  0.00    -0.127 C  
HETATM   12  C   UNL     1      -9.550   6.740  70.446  1.00  0.00    -0.169 C  
HETATM   13  O   UNL     1      -9.359   5.519  68.272  1.00  0.00    -0.108 OA 
HETATM   14  C   UNL     1      -8.446   5.839  71.048  1.00  0.00    -0.123 A  
HETATM   15  O   UNL     1      -9.194   8.090  70.773  1.00  0.00    -0.153 OA 
HETATM   16  C   UNL     1     -11.013   6.453  70.970  1.00  0.00    -0.328 C  
HETATM   17  C   UNL     1     -11.189   6.482  72.503  1.00  0.00    -0.298 C  
HETATM   18  C   UNL     1      -7.147   6.347  71.273  1.00  0.00    -0.077 A  
HETATM   19  H   UNL     1      -9.191   8.198  71.717  1.00  0.00     0.000 HD 
HETATM   20  C   UNL     1     -11.182   7.888  73.099  1.00  0.00    -0.209 C  
HETATM   21  C   UNL     1      -6.127   5.550  71.809  1.00  0.00    -0.030 A  
HETATM   22  C   UNL     1      -6.378   4.220  72.126  1.00  0.00    -0.021 A  
HETATM   23  C   UNL     1     -12.236   8.790  72.465  1.00  0.00    -0.347 C  
HETATM   24  C   UNL     1     -12.184   8.780  70.946  1.00  0.00    -0.148 C  
HETATM   25  C   UNL     1      -7.640   3.685  71.891  1.00  0.00    -0.057 A  
HETATM   26  C   UNL     1      -8.659   4.481  71.348  1.00  0.00    -0.127 A  
HETATM   27  C   UNL     1     -12.117   7.367  70.383  1.00  0.00     0.006 C  
ENDBRANCH  10  11
ENDBRANCH   9  10
ENDBRANCH   8   9
TORSDOF 3
ENDMDL
MODEL      211
REMARK 921   NORMALIZED FREE ENERGY PREDICTED BY IDOCK:   -2.82 KCAL/MOL
REMARK 922        TOTAL FREE ENERGY PREDICTED BY IDOCK:   -3.77 KCAL/MOL
REMARK 923 INTER-LIGAND FREE ENERGY PREDICTED BY IDOCK:   -3.42 KCAL/MOL
REMARK 924 INTRA-LIGAND FREE ENERGY PREDICTED BY IDOCK:   -0.34 KCAL/MOL
REMARK 927      BINDING AFFINITY PREDICTED BY RF-SCORE:    0.00 PKD
ROOT
HETATM    1  C   UNL     1     -11.070   6.425  73.561  1.00  0.00     0.053 C  
HETATM    2  N   UNL     1     -10.221   5.450  72.895  1.00  0.00    -0.179 NA 
HETATM    3  C   UNL     1     -10.194   4.133  73.501  1.00  0.00    -0.153 C  
HETATM    4  C   UNL     1      -9.339   3.110  72.785  1.00  0.00    -0.135 C  
HETATM    5  C   UNL     1      -8.488   3.580  71.628  1.00  0.00    -0.076 C  
HETATM    6  N   UNL     1      -8.604   4.972  71.247  1.00  0.00    -0.123 NA 
HETATM    7  H   UNL     1      -8.028   5.320  70.481  1.00  0.00     0.000 HD 
HETATM    8  C   UNL     1      -9.401   5.784  71.835  1.00  0.00    -0.151 C  
ENDROOT
BRANCH   8   9
HETATM    9  C   UNL     1      -9.401   7.261  71.315  1.00  0.00    -0.154 C  
BRANCH   9  10
HETATM   10  O   UNL     1     -10.076   7.546  70.093  1.00  0.00    -0.192 OA 
BRANCH  10  11
HETATM   11  C   UNL     1      -9.950   8.840  69.638  1.00  0.00    -0.191 C  
HETATM   12  C   UNL     1      -9.011   8.854  68.380  1.00  0.00    -0.134 C  
HETATM   13  O   UNL     1     -10.509   9.808  70.140  1.00  0.00    -0.247 OA 
HETATM   14  C   UNL     1      -8.156  10.144  68.409  1.00  0.00    -0.104 A  
HETATM   15  O   UNL     1      -8.090   7.758  68.456  1.00  0.00    -0.120 OA 
HETATM   16  C   UNL     1      -9.917   8.676  67.097  1.00  0.00    -0.297 C  
HETATM   17  C   UNL     1      -9.180   8.764  65.744  1.00  0.00    -0.269 C  
HETATM   18  C   UNL     1      -6.877  10.146  69.008  1.00  0.00    -0.056 A  
HETATM   19  H   UNL     1      -7.521   7.767  67.695  1.00  0.00     0.000 HD 
HETATM   20  C   UNL     1      -8.352   7.526  65.409  1.00  0.00    -0.129 C  
HETATM   21  C   UNL     1      -6.087  11.301  69.057  1.00  0.00    -0.052 A  
HETATM   22  C   UNL     1      -6.561  12.490  68.513  1.00  0.00    -0.077 A  
HETATM   23  C   UNL     1      -9.186   6.249  65.434  1.00  0.00     0.252 C  
HETATM   24  C   UNL     1     -10.001   6.102  66.708  1.00  0.00    -0.218 C  
HETATM   25  C   UNL     1      -7.827  12.525  67.939  1.00  0.00    -0.144 A  
HETATM   26  C   UNL     1      -8.621  11.369  67.898  1.00  0.00    -0.140 A  
HETATM   27  C   UNL     1     -10.758   7.376  67.057  1.00  0.00    -0.389 C  
ENDBRANCH  10  11
ENDBRANCH   9  10
ENDBRANCH   8   9
TORSDOF 3
ENDMDL
MODEL      212
REMARK 921   NORMALIZED FREE ENERGY PREDICTED BY IDOCK:   -2.81 KCAL/MOL
REMARK 922        TOTAL FREE ENERGY PREDICTED BY IDOCK:   -3.75 KCAL/MOL
REMARK 923 INTER-LIGAND FREE ENERGY PREDICTED BY IDOCK:   -3.36 KCAL/MOL
REMARK 924 INTRA-LIGAND FREE ENERGY PREDICTED BY IDOCK:   -0.39 KCAL/MOL
REMARK 927      BINDING AFFINITY PREDICTED BY RF-SCORE:    0.00 PKD
ROOT
HETATM    1  C   UNL     1      -6.284   3.188  64.536  1.00  0.00    -0.023 C  
HETATM    2  N   UNL     1      -7.722   3.333  64.369  1.00  0.00    -0.076 NA 
HETATM    3  C   UNL     1      -8.329   2.434  63.407  1.00  0.00    -0.085 C  
HETATM    4  C   UNL     1      -9.830   2.560  63.262  1.00  0.00    -0.108 C  
HETATM    5  C   UNL     1     -10.521   3.687  63.994  1.00  0.00    -0.265 C  
HETATM    6  N   UNL     1      -9.699   4.529  64.837  1.00  0.00    -0.293 NA 
HETATM    7  H   UNL     1     -10.137   5.308  65.328  1.00  0.00     0.000 HD 
HETATM    8  C   UNL     1      -8.442   4.335  64.988  1.00  0.00    -0.117 C  
ENDROOT
BRANCH   8   9
HETATM    9  C   UNL     1      -7.689   5.341  65.923  1.00  0.00    -0.091 C  
BRANCH   9  10
HETATM   10  O   UNL     1      -8.241   6.642  66.099  1.00  0.00    -0.113 OA 
BRANCH  10  11
HETATM   11  C   UNL     1      -8.070   7.503  65.038  1.00  0.00    -0.127 C  
HETATM   12  C   UNL     1      -7.945   8.971  65.581  1.00  0.00    -0.104 C  
HETATM   13  O   UNL     1      -8.008   7.154  63.865  1.00  0.00    -0.130 OA 
HETATM   14  C   UNL     1      -8.641   9.932  64.588  1.00  0.00    -0.195 A  
HETATM   15  O   UNL     1      -8.657   9.086  66.821  1.00  0.00    -0.120 OA 
HETATM   16  C   UNL     1      -6.413   9.263  65.839  1.00  0.00    -0.071 C  
HETATM   17  C   UNL     1      -6.076  10.701  66.286  1.00  0.00    -0.111 C  
HETATM   18  C   UNL     1      -9.997  10.288  64.762  1.00  0.00    -0.392 A  
HETATM   19  H   UNL     1      -8.582   9.975  67.149  1.00  0.00     0.000 HD 
HETATM   20  C   UNL     1      -6.443  11.000  67.737  1.00  0.00    -0.063 C  
HETATM   21  C   UNL     1     -10.653  11.148  63.873  1.00  0.00    -0.431 A  
HETATM   22  C   UNL     1      -9.971  11.669  62.779  1.00  0.00    -0.021 A  
HETATM   23  C   UNL     1      -5.799  10.018  68.710  1.00  0.00    -0.034 C  
HETATM   24  C   UNL     1      -6.024   8.567  68.319  1.00  0.00    -0.046 C  
HETATM   25  C   UNL     1      -8.642  11.316  62.567  1.00  0.00    -0.202 A  
HETATM   26  C   UNL     1      -7.988  10.448  63.454  1.00  0.00    -0.107 A  
HETATM   27  C   UNL     1      -5.721   8.314  66.848  1.00  0.00    -0.041 C  
ENDBRANCH  10  11
ENDBRANCH   9  10
ENDBRANCH   8   9
TORSDOF 3
ENDMDL
MODEL      213
REMARK 921   NORMALIZED FREE ENERGY PREDICTED BY IDOCK:   -2.71 KCAL/MOL
REMARK 922        TOTAL FREE ENERGY PREDICTED BY IDOCK:   -3.63 KCAL/MOL
REMARK 923 INTER-LIGAND FREE ENERGY PREDICTED BY IDOCK:   -3.76 KCAL/MOL
REMARK 924 INTRA-LIGAND FREE ENERGY PREDICTED BY IDOCK:    0.12 KCAL/MOL
REMARK 927      BINDING AFFINITY PREDICTED BY RF-SCORE:    0.00 PKD
ROOT
HETATM    1  C   UNL     1     -12.119  11.823  67.288  1.00  0.00     0.321 C  
HETATM    2  N   UNL     1     -11.652  12.093  65.938  1.00  0.00    -0.399 NA 
HETATM    3  C   UNL     1     -12.626  12.704  65.054  1.00  0.00    -0.430 C  
HETATM    4  C   UNL     1     -12.127  13.019  63.662  1.00  0.00    -0.604 C  
HETATM    5  C   UNL     1     -10.748  12.538  63.276  1.00  0.00    -0.111 C  
HETATM    6  N   UNL     1      -9.976  11.861  64.297  1.00  0.00    -0.367 NA 
HETATM    7  H   UNL     1      -9.048  11.511  64.058  1.00  0.00     0.000 HD 
HETATM    8  C   UNL     1     -10.412  11.686  65.488  1.00  0.00    -0.273 C  
ENDROOT
BRANCH   8   9
HETATM    9  C   UNL     1      -9.462  10.925  66.473  1.00  0.00    -0.185 C  
BRANCH   9  10
HETATM   10  O   UNL     1      -8.987   9.637  66.094  1.00  0.00    -0.144 OA 
BRANCH  10  11
HETATM   11  C   UNL     1      -7.880   9.191  66.781  1.00  0.00    -0.101 C  
HETATM   12  C   UNL     1      -8.336   8.593  68.160  1.00  0.00    -0.127 C  
HETATM   13  O   UNL     1      -6.732   9.243  66.355  1.00  0.00    -0.070 OA 
HETATM   14  C   UNL     1      -7.270   8.934  69.228  1.00  0.00    -0.066 A  
HETATM   15  O   UNL     1      -9.549   9.232  68.582  1.00  0.00    -0.145 OA 
HETATM   16  C   UNL     1      -8.613   7.051  67.951  1.00  0.00    -0.126 C  
HETATM   17  C   UNL     1      -8.979   6.262  69.226  1.00  0.00    -0.125 C  
HETATM   18  C   UNL     1      -7.390  10.098  70.018  1.00  0.00    -0.172 A  
HETATM   19  H   UNL     1      -9.825   8.870  69.416  1.00  0.00     0.000 HD 
HETATM   20  C   UNL     1     -10.401   6.515  69.722  1.00  0.00    -0.234 C  
HETATM   21  C   UNL     1      -6.434  10.434  70.986  1.00  0.00     0.259 A  
HETATM   22  C   UNL     1      -5.328   9.616  71.183  1.00  0.00    -0.059 A  
HETATM   23  C   UNL     1     -11.446   6.231  68.649  1.00  0.00     0.020 C  
HETATM   24  C   UNL     1     -11.139   6.918  67.329  1.00  0.00    -0.355 C  
HETATM   25  C   UNL     1      -5.170   8.476  70.402  1.00  0.00    -0.021 A  
HETATM   26  C   UNL     1      -6.123   8.144  69.428  1.00  0.00    -0.034 A  
HETATM   27  C   UNL     1      -9.693   6.710  66.897  1.00  0.00    -0.209 C  
ENDBRANCH  10  11
ENDBRANCH   9  10
ENDBRANCH   8   9
TORSDOF 3
ENDMDL
MODEL      214
REMARK 921   NORMALIZED FREE ENERGY PREDICTED BY IDOCK:   -2.68 KCAL/MOL
REMARK 922        TOTAL FREE ENERGY PREDICTED BY IDOCK:   -3.59 KCAL/MOL
REMARK 923 INTER-LIGAND FREE ENERGY PREDICTED BY IDOCK:   -3.15 KCAL/MOL
REMARK 924 INTRA-LIGAND FREE ENERGY PREDICTED BY IDOCK:   -0.45 KCAL/MOL
REMARK 927      BINDING AFFINITY PREDICTED BY RF-SCORE:    0.00 PKD
ROOT
HETATM    1  C   UNL     1      -5.676  10.689  66.535  1.00  0.00    -0.075 C  
HETATM    2  N   UNL     1      -6.454  10.231  65.395  1.00  0.00    -0.117 NA 
HETATM    3  C   UNL     1      -5.870  10.501  64.095  1.00  0.00    -0.070 C  
HETATM    4  C   UNL     1      -6.661   9.991  62.912  1.00  0.00    -0.127 C  
HETATM    5  C   UNL     1      -8.029   9.403  63.173  1.00  0.00    -0.143 C  
HETATM    6  N   UNL     1      -8.455   9.312  64.553  1.00  0.00    -0.172 NA 
HETATM    7  H   UNL     1      -9.381   8.935  64.757  1.00  0.00     0.000 HD 
HETATM    8  C   UNL     1      -7.716   9.688  65.530  1.00  0.00    -0.112 C  
ENDROOT
BRANCH   8   9
HETATM    9  C   UNL     1      -8.326   9.537  66.964  1.00  0.00    -0.124 C  
BRANCH   9  10
HETATM   10  O   UNL     1      -7.842   8.487  67.797  1.00  0.00    -0.101 OA 
BRANCH  10  11
HETATM   11  C   UNL     1      -8.752   7.984  68.698  1.00  0.00    -0.131 C  
HETATM   12  C   UNL     1      -7.995   7.535  69.999  1.00  0.00    -0.112 C  
HETATM   13  O   UNL     1      -9.961   7.925  68.504  1.00  0.00    -0.176 OA 
HETATM   14  C   UNL     1      -8.673   6.260  70.556  1.00  0.00    -0.143 A  
HETATM   15  O   UNL     1      -6.650   7.164  69.666  1.00  0.00    -0.042 OA 
HETATM   16  C   UNL     1      -7.959   8.767  70.988  1.00  0.00    -0.170 C  
HETATM   17  C   UNL     1      -7.336   8.490  72.373  1.00  0.00    -0.084 C  
HETATM   18  C   UNL     1      -8.209   4.978  70.188  1.00  0.00    -0.081 A  
HETATM   19  H   UNL     1      -6.192   6.892  70.453  1.00  0.00     0.000 HD 
HETATM   20  C   UNL     1      -5.814   8.378  72.355  1.00  0.00    -0.057 C  
HETATM   21  C   UNL     1      -8.810   3.810  70.671  1.00  0.00    -0.135 A  
HETATM   22  C   UNL     1      -9.899   3.893  71.531  1.00  0.00    -0.247 A  
HETATM   23  C   UNL     1      -5.150   9.613  71.755  1.00  0.00    -0.073 C  
HETATM   24  C   UNL     1      -5.740  10.004  70.410  1.00  0.00    -0.064 C  
HETATM   25  C   UNL     1     -10.394   5.142  71.892  1.00  0.00    -0.275 A  
HETATM   26  C   UNL     1      -9.796   6.312  71.402  1.00  0.00    -0.195 A  
HETATM   27  C   UNL     1      -7.263  10.036  70.438  1.00  0.00    -0.119 C  
ENDBRANCH  10  11
ENDBRANCH   9  10
ENDBRANCH   8   9
TORSDOF 3
ENDMDL
MODEL      215
REMARK 921   NORMALIZED FREE ENERGY PREDICTED BY IDOCK:   -2.36 KCAL/MOL
REMARK 922        TOTAL FREE ENERGY PREDICTED BY IDOCK:   -3.22 KCAL/MOL
REMARK 923 INTER-LIGAND FREE ENERGY PREDICTED BY IDOCK:   -3.51 KCAL/MOL
REMARK 924 INTRA-LIGAND FREE ENERGY PREDICTED BY IDOCK:    0.29 KCAL/MOL
REMARK 927      BINDING AFFINITY PREDICTED BY RF-SCORE:    0.00 PKD
ROOT
HETATM    1  C   UNL     1      -5.755   4.355  65.700  1.00  0.00    -0.022 C  
HETATM    2  N   UNL     1      -7.181   4.068  65.705  1.00  0.00    -0.070 NA 
HETATM    3  C   UNL     1      -7.631   3.141  64.685  1.00  0.00    -0.077 C  
HETATM    4  C   UNL     1      -9.108   2.815  64.715  1.00  0.00    -0.134 C  
HETATM    5  C   UNL     1      -9.986   3.584  65.675  1.00  0.00     0.097 C  
HETATM    6  N   UNL     1      -9.333   4.538  66.546  1.00  0.00    -0.139 NA 
HETATM    7  H   UNL     1      -9.904   5.082  67.192  1.00  0.00     0.000 HD 
HETATM    8  C   UNL     1      -8.065   4.724  66.538  1.00  0.00    -0.107 C  
ENDROOT
BRANCH   8   9
HETATM    9  C   UNL     1      -7.512   5.800  67.532  1.00  0.00    -0.078 C  
BRANCH   9  10
HETATM   10  O   UNL     1      -8.200   5.999  68.764  1.00  0.00    -0.103 OA 
BRANCH  10  11
HETATM   11  C   UNL     1      -9.242   6.898  68.718  1.00  0.00    -0.131 C  
HETATM   12  C   UNL     1      -8.825   8.207  69.479  1.00  0.00    -0.143 C  
HETATM   13  O   UNL     1     -10.309   6.696  68.150  1.00  0.00    -0.161 OA 
HETATM   14  C   UNL     1     -10.062   8.771  70.218  1.00  0.00    -0.214 A  
HETATM   15  O   UNL     1      -7.861   7.887  70.492  1.00  0.00    -0.091 OA 
HETATM   16  C   UNL     1      -8.162   9.187  68.431  1.00  0.00    -0.115 C  
HETATM   17  C   UNL     1      -7.772  10.578  68.974  1.00  0.00    -0.125 C  
HETATM   18  C   UNL     1     -10.323   8.415  71.560  1.00  0.00    -0.296 A  
HETATM   19  H   UNL     1      -7.609   8.678  70.953  1.00  0.00     0.000 HD 
HETATM   20  C   UNL     1      -6.524  10.571  69.853  1.00  0.00    -0.116 C  
HETATM   21  C   UNL     1     -11.440   8.904  72.248  1.00  0.00    -0.307 A  
HETATM   22  C   UNL     1     -12.332   9.757  71.608  1.00  0.00    -0.495 A  
HETATM   23  C   UNL     1      -5.319   9.965  69.141  1.00  0.00    -0.035 C  
HETATM   24  C   UNL     1      -5.622   8.613  68.516  1.00  0.00    -0.038 C  
HETATM   25  C   UNL     1     -12.116  10.104  70.279  1.00  0.00    -0.282 A  
HETATM   26  C   UNL     1     -11.001   9.608  69.588  1.00  0.00    -0.253 A  
HETATM   27  C   UNL     1      -6.912   8.631  67.706  1.00  0.00    -0.075 C  
ENDBRANCH  10  11
ENDBRANCH   9  10
ENDBRANCH   8   9
TORSDOF 3
ENDMDL
MODEL      216
REMARK 921   NORMALIZED FREE ENERGY PREDICTED BY IDOCK:   -2.18 KCAL/MOL
REMARK 922        TOTAL FREE ENERGY PREDICTED BY IDOCK:   -3.02 KCAL/MOL
REMARK 923 INTER-LIGAND FREE ENERGY PREDICTED BY IDOCK:   -3.37 KCAL/MOL
REMARK 924 INTRA-LIGAND FREE ENERGY PREDICTED BY IDOCK:    0.35 KCAL/MOL
REMARK 927      BINDING AFFINITY PREDICTED BY RF-SCORE:    0.00 PKD
ROOT
HETATM    1  C   UNL     1     -14.382  15.056  70.541  1.00  0.00     0.871 C  
HETATM    2  N   UNL     1     -13.631  15.019  71.786  1.00  0.00    -0.388 NA 
HETATM    3  C   UNL     1     -13.767  16.193  72.627  1.00  0.00    -0.069 C  
HETATM    4  C   UNL     1     -13.016  16.138  73.939  1.00  0.00    -0.497 C  
HETATM    5  C   UNL     1     -12.090  14.967  74.179  1.00  0.00    -0.395 C  
HETATM    6  N   UNL     1     -12.040  13.946  73.154  1.00  0.00     0.468 NA 
HETATM    7  H   UNL     1     -11.410  13.154  73.283  1.00  0.00     0.000 HD 
HETATM    8  C   UNL     1     -12.754  13.998  72.092  1.00  0.00    -0.260 C  
ENDROOT
BRANCH   8   9
HETATM    9  C   UNL     1     -12.577  12.822  71.074  1.00  0.00    -0.271 C  
BRANCH   9  10
HETATM   10  O   UNL     1     -11.425  12.823  70.235  1.00  0.00    -0.060 OA 
BRANCH  10  11
HETATM   11  C   UNL     1     -11.453  13.726  69.197  1.00  0.00    -0.298 C  
HETATM   12  C   UNL     1     -10.036  13.779  68.522  1.00  0.00    -0.225 C  
HETATM   13  O   UNL     1     -12.444  14.363  68.858  1.00  0.00    -0.146 OA 
HETATM   14  C   UNL     1      -9.745  15.233  68.083  1.00  0.00    -0.212 A  
HETATM   15  O   UNL     1      -9.032  13.440  69.488  1.00  0.00     0.323 OA 
HETATM   16  C   UNL     1     -10.014  12.707  67.360  1.00  0.00    -0.204 C  
HETATM   17  C   UNL     1      -8.727  12.677  66.507  1.00  0.00    -0.011 C  
HETATM   18  C   UNL     1      -9.054  16.118  68.940  1.00  0.00    -0.246 A  
HETATM   19  H   UNL     1      -8.174  13.471  69.080  1.00  0.00     0.000 HD 
HETATM   20  C   UNL     1      -7.535  12.032  67.211  1.00  0.00    -0.158 C  
HETATM   21  C   UNL     1      -8.786  17.443  68.571  1.00  0.00    -0.277 A  
HETATM   22  C   UNL     1      -9.210  17.919  67.336  1.00  0.00    -0.253 A  
HETATM   23  C   UNL     1      -7.842  10.617  67.690  1.00  0.00    -0.105 C  
HETATM   24  C   UNL     1      -9.131  10.533  68.492  1.00  0.00    -0.154 C  
HETATM   25  C   UNL     1      -9.916  17.079  66.482  1.00  0.00    -0.318 A  
HETATM   26  C   UNL     1     -10.191  15.755  66.855  1.00  0.00    -0.280 A  
HETATM   27  C   UNL     1     -10.285  11.248  67.801  1.00  0.00    -0.203 C  
ENDBRANCH  10  11
ENDBRANCH   9  10
ENDBRANCH   8   9
TORSDOF 3
ENDMDL
MODEL      217
REMARK 921   NORMALIZED FREE ENERGY PREDICTED BY IDOCK:   -1.66 KCAL/MOL
REMARK 922        TOTAL FREE ENERGY PREDICTED BY IDOCK:   -2.40 KCAL/MOL
REMARK 923 INTER-LIGAND FREE ENERGY PREDICTED BY IDOCK:   -4.75 KCAL/MOL
REMARK 924 INTRA-LIGAND FREE ENERGY PREDICTED BY IDOCK:    2.35 KCAL/MOL
REMARK 927      BINDING AFFINITY PREDICTED BY RF-SCORE:    0.00 PKD
ROOT
HETATM    1  C   UNL     1      -9.812   8.217  69.249  1.00  0.00    -0.186 C  
HETATM    2  N   UNL     1      -9.381   7.631  67.990  1.00  0.00    -0.140 NA 
HETATM    3  C   UNL     1     -10.247   6.597  67.458  1.00  0.00    -0.181 C  
HETATM    4  C   UNL     1      -9.817   6.014  66.129  1.00  0.00    -0.032 C  
HETATM    5  C   UNL     1      -8.478   6.436  65.569  1.00  0.00    -0.139 C  
HETATM    6  N   UNL     1      -7.730   7.422  66.320  1.00  0.00    -0.091 NA 
HETATM    7  H   UNL     1      -6.816   7.712  65.973  1.00  0.00     0.000 HD 
HETATM    8  C   UNL     1      -8.171   7.945  67.403  1.00  0.00    -0.123 C  
ENDROOT
BRANCH   8   9
HETATM    9  C   UNL     1      -7.238   8.988  68.104  1.00  0.00    -0.079 C  
BRANCH   9  10
HETATM   10  O   UNL     1      -7.393  10.365  67.771  1.00  0.00    -0.086 OA 
BRANCH  10  11
HETATM   11  C   UNL     1      -8.638  10.896  68.023  1.00  0.00    -0.131 C  
HETATM   12  C   UNL     1      -9.076  11.783  66.804  1.00  0.00    -0.194 C  
HETATM   13  O   UNL     1      -9.293  10.679  69.036  1.00  0.00    -0.184 OA 
HETATM   14  C   UNL     1      -9.862  13.006  67.333  1.00  0.00    -0.215 A  
HETATM   15  O   UNL     1      -7.911  12.306  66.149  1.00  0.00    -0.224 OA 
HETATM   16  C   UNL     1      -9.864  10.861  65.791  1.00  0.00    -0.286 C  
HETATM   17  C   UNL     1     -10.466  11.580  64.565  1.00  0.00    -0.369 C  
HETATM   18  C   UNL     1      -9.200  14.221  67.613  1.00  0.00    -0.194 A  
HETATM   19  H   UNL     1      -8.176  12.843  65.411  1.00  0.00     0.000 HD 
HETATM   20  C   UNL     1      -9.434  11.967  63.508  1.00  0.00    -0.079 C  
HETATM   21  C   UNL     1      -9.887  15.340  68.102  1.00  0.00    -0.217 A  
HETATM   22  C   UNL     1     -11.257  15.268  68.330  1.00  0.00    -0.314 A  
HETATM   23  C   UNL     1      -8.622  10.768  63.027  1.00  0.00    -0.165 C  
HETATM   24  C   UNL     1      -8.037   9.956  64.171  1.00  0.00    -0.152 C  
HETATM   25  C   UNL     1     -11.932  14.077  68.088  1.00  0.00    -0.382 A  
HETATM   26  C   UNL     1     -11.242  12.955  67.606  1.00  0.00    -0.317 A  
HETATM   27  C   UNL     1      -9.071   9.649  65.246  1.00  0.00    -0.269 C  
ENDBRANCH  10  11
ENDBRANCH   9  10
ENDBRANCH   8   9
TORSDOF 3
ENDMDL
MODEL      218
REMARK 921   NORMALIZED FREE ENERGY PREDICTED BY IDOCK:   -1.20 KCAL/MOL
REMARK 922        TOTAL FREE ENERGY PREDICTED BY IDOCK:   -1.86 KCAL/MOL
REMARK 923 INTER-LIGAND FREE ENERGY PREDICTED BY IDOCK:   -1.83 KCAL/MOL
REMARK 924 INTRA-LIGAND FREE ENERGY PREDICTED BY IDOCK:   -0.03 KCAL/MOL
REMARK 927      BINDING AFFINITY PREDICTED BY RF-SCORE:    0.00 PKD
ROOT
HETATM    1  C   UNL     1      -6.318  10.088  72.572  1.00  0.00     1.260 C  
HETATM    2  N   UNL     1      -6.054   9.420  71.307  1.00  0.00    -0.076 NA 
HETATM    3  C   UNL     1      -5.375   8.143  71.409  1.00  0.00    -0.033 C  
HETATM    4  C   UNL     1      -5.135   7.432  70.096  1.00  0.00    -0.023 C  
HETATM    5  C   UNL     1      -5.471   8.167  68.819  1.00  0.00    -0.035 C  
HETATM    6  N   UNL     1      -6.061   9.482  68.950  1.00  0.00    -0.042 NA 
HETATM    7  H   UNL     1      -6.281  10.007  68.105  1.00  0.00     0.000 HD 
HETATM    8  C   UNL     1      -6.318  10.012  70.088  1.00  0.00    -0.093 C  
ENDROOT
BRANCH   8   9
HETATM    9  C   UNL     1      -6.945  11.447  70.063  1.00  0.00     0.274 C  
BRANCH   9  10
HETATM   10  O   UNL     1      -6.396  12.409  69.167  1.00  0.00    -0.082 OA 
BRANCH  10  11
HETATM   11  C   UNL     1      -6.873  13.692  69.315  1.00  0.00    -0.063 C  
HETATM   12  C   UNL     1      -7.644  14.108  68.012  1.00  0.00    -0.141 C  
HETATM   13  O   UNL     1      -6.726  14.374  70.323  1.00  0.00    -0.128 OA 
HETATM   14  C   UNL     1      -7.386  15.609  67.738  1.00  0.00    -0.169 A  
HETATM   15  O   UNL     1      -7.107  13.395  66.889  1.00  0.00    -0.359 OA 
HETATM   16  C   UNL     1      -9.161  13.708  68.198  1.00  0.00    -0.204 C  
HETATM   17  C   UNL     1     -10.106  14.129  67.053  1.00  0.00    -0.261 C  
HETATM   18  C   UNL     1      -6.326  16.015  66.898  1.00  0.00     0.138 A  
HETATM   19  H   UNL     1      -7.573  13.647  66.101  1.00  0.00     0.000 HD 
HETATM   20  C   UNL     1      -9.969  13.277  65.794  1.00  0.00    -0.261 C  
HETATM   21  C   UNL     1      -6.066  17.367  66.641  1.00  0.00    -0.239 A  
HETATM   22  C   UNL     1      -6.856  18.350  67.225  1.00  0.00    -0.208 A  
HETATM   23  C   UNL     1     -10.170  11.792  66.077  1.00  0.00    -0.265 C  
HETATM   24  C   UNL     1      -9.323  11.293  67.236  1.00  0.00    -0.173 C  
HETATM   25  C   UNL     1      -7.892  17.981  68.078  1.00  0.00    -0.257 A  
HETATM   26  C   UNL     1      -8.147  16.628  68.341  1.00  0.00    -0.208 A  
HETATM   27  C   UNL     1      -9.422  12.203  68.453  1.00  0.00    -0.179 C  
ENDBRANCH  10  11
ENDBRANCH   9  10
ENDBRANCH   8   9
TORSDOF 3
ENDMDL
MODEL      219
REMARK 921   NORMALIZED FREE ENERGY PREDICTED BY IDOCK:    0.12 KCAL/MOL
REMARK 922        TOTAL FREE ENERGY PREDICTED BY IDOCK:   -0.31 KCAL/MOL
REMARK 923 INTER-LIGAND FREE ENERGY PREDICTED BY IDOCK:   -1.90 KCAL/MOL
REMARK 924 INTRA-LIGAND FREE ENERGY PREDICTED BY IDOCK:    1.59 KCAL/MOL
REMARK 927      BINDING AFFINITY PREDICTED BY RF-SCORE:    0.00 PKD
ROOT
HETATM    1  C   UNL     1      -7.332  18.253  68.200  1.00  0.00    -0.260 C  
HETATM    2  N   UNL     1      -8.580  18.969  67.982  1.00  0.00    -0.293 NA 
HETATM    3  C   UNL     1      -8.563  20.373  68.345  1.00  0.00     0.291 C  
HETATM    4  C   UNL     1      -9.849  21.124  68.082  1.00  0.00     0.422 C  
HETATM    5  C   UNL     1     -11.053  20.332  67.628  1.00  0.00     0.617 C  
HETATM    6  N   UNL     1     -10.867  18.912  67.414  1.00  0.00    -0.441 NA 
HETATM    7  H   UNL     1     -11.668  18.351  67.124  1.00  0.00     0.000 HD 
HETATM    8  C   UNL     1      -9.736  18.333  67.576  1.00  0.00    -0.300 C  
ENDROOT
BRANCH   8   9
HETATM    9  C   UNL     1      -9.700  16.789  67.317  1.00  0.00    -0.250 C  
BRANCH   9  10
HETATM   10  O   UNL     1      -8.860  16.298  66.277  1.00  0.00    -0.279 OA 
BRANCH  10  11
HETATM   11  C   UNL     1      -7.804  15.517  66.693  1.00  0.00    -0.027 C  
HETATM   12  C   UNL     1      -8.326  14.447  67.717  1.00  0.00    -0.169 C  
HETATM   13  O   UNL     1      -6.651  15.642  66.296  1.00  0.00     0.764 OA 
HETATM   14  C   UNL     1      -7.247  14.228  68.803  1.00  0.00    -0.129 A  
HETATM   15  O   UNL     1      -9.483  14.957  68.394  1.00  0.00    -0.196 OA 
HETATM   16  C   UNL     1      -8.735  13.156  66.902  1.00  0.00    -0.156 C  
HETATM   17  C   UNL     1      -9.184  11.948  67.751  1.00  0.00    -0.184 C  
HETATM   18  C   UNL     1      -7.272  14.971  70.004  1.00  0.00    -0.005 A  
HETATM   19  H   UNL     1      -9.799  14.310  69.014  1.00  0.00     0.000 HD 
HETATM   20  C   UNL     1     -10.583  12.095  68.343  1.00  0.00    -0.243 C  
HETATM   21  C   UNL     1      -6.303  14.798  70.999  1.00  0.00     0.201 A  
HETATM   22  C   UNL     1      -5.275  13.880  70.815  1.00  0.00    -0.126 A  
HETATM   23  C   UNL     1     -11.638  12.366  67.275  1.00  0.00    -0.435 C  
HETATM   24  C   UNL     1     -11.256  13.505  66.345  1.00  0.00    -0.322 C  
HETATM   25  C   UNL     1      -5.209  13.152  69.632  1.00  0.00    -0.086 A  
HETATM   26  C   UNL     1      -6.176  13.331  68.632  1.00  0.00    -0.084 A  
HETATM   27  C   UNL     1      -9.830  13.371  65.828  1.00  0.00    -0.213 C  
ENDBRANCH  10  11
ENDBRANCH   9  10
ENDBRANCH   8   9
TORSDOF 3
ENDMDL
MODEL      220
REMARK 921   NORMALIZED FREE ENERGY PREDICTED BY IDOCK:    0.61 KCAL/MOL
REMARK 922        TOTAL FREE ENERGY PREDICTED BY IDOCK:    0.27 KCAL/MOL
REMARK 923 INTER-LIGAND FREE ENERGY PREDICTED BY IDOCK:   -1.56 KCAL/MOL
REMARK 924 INTRA-LIGAND FREE ENERGY PREDICTED BY IDOCK:    1.83 KCAL/MOL
REMARK 927      BINDING AFFINITY PREDICTED BY RF-SCORE:    0.00 PKD
ROOT
HETATM    1  C   UNL     1      -8.880  11.544  64.018  1.00  0.00     0.415 C  
HETATM    2  N   UNL     1     -10.155  11.891  64.626  1.00  0.00    -0.268 NA 
HETATM    3  C   UNL     1     -11.060  12.648  63.783  1.00  0.00    -0.453 C  
HETATM    4  C   UNL     1     -12.400  12.976  64.403  1.00  0.00    -0.442 C  
HETATM    5  C   UNL     1     -12.610  12.635  65.860  1.00  0.00     0.238 C  
HETATM    6  N   UNL     1     -11.528  11.956  66.542  1.00  0.00    -0.449 NA 
HETATM    7  H   UNL     1     -11.637  11.730  67.530  1.00  0.00     0.000 HD 
HETATM    8  C   UNL     1     -10.439  11.629  65.952  1.00  0.00    -0.255 C  
ENDROOT
BRANCH   8   9
HETATM    9  C   UNL     1      -9.359  10.911  66.829  1.00  0.00    -0.165 C  
BRANCH   9  10
HETATM   10  O   UNL     1      -8.554  11.706  67.695  1.00  0.00    -0.133 OA 
BRANCH  10  11
HETATM   11  C   UNL     1      -8.507  11.288  69.006  1.00  0.00     0.010 C  
HETATM   12  C   UNL     1      -8.593   9.720  69.049  1.00  0.00    -0.146 C  
HETATM   13  O   UNL     1      -8.395  12.037  69.969  1.00  0.00     1.892 OA 
HETATM   14  C   UNL     1      -9.418   9.299  70.288  1.00  0.00    -0.277 A  
HETATM   15  O   UNL     1      -9.315   9.247  67.904  1.00  0.00    -0.130 OA 
HETATM   16  C   UNL     1      -7.118   9.153  68.997  1.00  0.00    -0.067 C  
HETATM   17  C   UNL     1      -6.989   7.621  69.130  1.00  0.00    -0.068 C  
HETATM   18  C   UNL     1     -10.810   9.087  70.187  1.00  0.00    -0.261 A  
HETATM   19  H   UNL     1      -9.367   8.299  67.930  1.00  0.00     0.000 HD 
HETATM   20  C   UNL     1      -7.396   6.855  67.874  1.00  0.00    -0.097 C  
HETATM   21  C   UNL     1     -11.582   8.715  71.295  1.00  0.00    -0.340 A  
HETATM   22  C   UNL     1     -10.980   8.552  72.538  1.00  0.00    -0.323 A  
HETATM   23  C   UNL     1      -6.619   7.310  66.643  1.00  0.00    -0.056 C  
HETATM   24  C   UNL     1      -6.635   8.819  66.459  1.00  0.00    -0.063 C  
HETATM   25  C   UNL     1      -9.615   8.780  72.674  1.00  0.00    -0.021 A  
HETATM   26  C   UNL     1      -8.844   9.160  71.566  1.00  0.00    -0.045 A  
HETATM   27  C   UNL     1      -6.298   9.558  67.748  1.00  0.00    -0.057 C  
ENDBRANCH  10  11
ENDBRANCH   9  10
ENDBRANCH   8   9
TORSDOF 3
ENDMDL
MODEL      221
REMARK 921   NORMALIZED FREE ENERGY PREDICTED BY IDOCK:    0.76 KCAL/MOL
REMARK 922        TOTAL FREE ENERGY PREDICTED BY IDOCK:    0.45 KCAL/MOL
REMARK 923 INTER-LIGAND FREE ENERGY PREDICTED BY IDOCK:    0.60 KCAL/MOL
REMARK 924 INTRA-LIGAND FREE ENERGY PREDICTED BY IDOCK:   -0.16 KCAL/MOL
REMARK 927      BINDING AFFINITY PREDICTED BY RF-SCORE:    0.00 PKD
ROOT
HETATM    1  C   UNL     1      -6.316  16.077  71.378  1.00  0.00     1.775 C  
HETATM    2  N   UNL     1      -6.333  16.649  70.041  1.00  0.00    -0.107 NA 
HETATM    3  C   UNL     1      -6.801  18.019  69.958  1.00  0.00     0.580 C  
HETATM    4  C   UNL     1      -6.782  18.625  68.572  1.00  0.00    -0.274 C  
HETATM    5  C   UNL     1      -6.438  17.725  67.408  1.00  0.00    -0.163 C  
HETATM    6  N   UNL     1      -6.087  16.354  67.715  1.00  0.00    -0.122 NA 
HETATM    7  H   UNL     1      -5.868  15.720  66.947  1.00  0.00     0.000 HD 
HETATM    8  C   UNL     1      -6.042  15.906  68.914  1.00  0.00    -0.118 C  
ENDROOT
BRANCH   8   9
HETATM    9  C   UNL     1      -5.658  14.397  69.081  1.00  0.00    -0.091 C  
BRANCH   9  10
HETATM   10  O   UNL     1      -5.990  13.496  68.029  1.00  0.00    -0.105 OA 
BRANCH  10  11
HETATM   11  C   UNL     1      -7.336  13.272  67.847  1.00  0.00    -0.134 C  
HETATM   12  C   UNL     1      -7.611  11.727  67.885  1.00  0.00    -0.121 C  
HETATM   13  O   UNL     1      -8.173  14.156  67.701  1.00  0.00    -0.158 OA 
HETATM   14  C   UNL     1      -8.727  11.393  66.866  1.00  0.00    -0.165 A  
HETATM   15  O   UNL     1      -6.442  11.020  67.449  1.00  0.00    -0.061 OA 
HETATM   16  C   UNL     1      -7.924  11.328  69.382  1.00  0.00     0.179 C  
HETATM   17  C   UNL     1      -8.321   9.853  69.609  1.00  0.00    -0.181 C  
HETATM   18  C   UNL     1      -8.404  11.013  65.545  1.00  0.00    -0.024 A  
HETATM   19  H   UNL     1      -6.608  10.085  67.472  1.00  0.00     0.000 HD 
HETATM   20  C   UNL     1      -7.148   8.879  69.527  1.00  0.00    -0.059 C  
HETATM   21  C   UNL     1      -9.395  10.714  64.601  1.00  0.00    -0.280 A  
HETATM   22  C   UNL     1     -10.737  10.796  64.953  1.00  0.00    -0.167 A  
HETATM   23  C   UNL     1      -6.026   9.242  70.494  1.00  0.00    -0.047 C  
HETATM   24  C   UNL     1      -5.606  10.698  70.389  1.00  0.00    -0.083 C  
HETATM   25  C   UNL     1     -11.086  11.192  66.240  1.00  0.00    -0.176 A  
HETATM   26  C   UNL     1     -10.094  11.498  67.182  1.00  0.00    -0.223 A  
HETATM   27  C   UNL     1      -6.800  11.643  70.399  1.00  0.00     0.928 C  
ENDBRANCH  10  11
ENDBRANCH   9  10
ENDBRANCH   8   9
TORSDOF 3
ENDMDL
MODEL      222
REMARK 921   NORMALIZED FREE ENERGY PREDICTED BY IDOCK:    1.15 KCAL/MOL
REMARK 922        TOTAL FREE ENERGY PREDICTED BY IDOCK:    0.90 KCAL/MOL
REMARK 923 INTER-LIGAND FREE ENERGY PREDICTED BY IDOCK:    1.10 KCAL/MOL
REMARK 924 INTRA-LIGAND FREE ENERGY PREDICTED BY IDOCK:   -0.20 KCAL/MOL
REMARK 927      BINDING AFFINITY PREDICTED BY RF-SCORE:    0.00 PKD
ROOT
HETATM    1  C   UNL     1      -5.976  16.574  69.622  1.00  0.00    -0.200 C  
HETATM    2  N   UNL     1      -6.767  17.080  68.512  1.00  0.00    -0.164 NA 
HETATM    3  C   UNL     1      -7.076  18.496  68.565  1.00  0.00    -0.277 C  
HETATM    4  C   UNL     1      -7.867  19.029  67.390  1.00  0.00    -0.263 C  
HETATM    5  C   UNL     1      -8.387  18.037  66.376  1.00  0.00    -0.246 C  
HETATM    6  N   UNL     1      -8.032  16.647  66.570  1.00  0.00    -0.278 NA 
HETATM    7  H   UNL     1      -8.384  15.954  65.910  1.00  0.00     0.000 HD 
HETATM    8  C   UNL     1      -7.293  16.253  67.540  1.00  0.00    -0.151 C  
ENDROOT
BRANCH   8   9
HETATM    9  C   UNL     1      -7.010  14.715  67.621  1.00  0.00    -0.184 C  
BRANCH   9  10
HETATM   10  O   UNL     1      -8.007  13.818  67.141  1.00  0.00    -0.145 OA 
BRANCH  10  11
HETATM   11  C   UNL     1      -8.778  13.219  68.112  1.00  0.00    -0.179 C  
HETATM   12  C   UNL     1      -8.621  11.660  68.004  1.00  0.00    -0.152 C  
HETATM   13  O   UNL     1      -9.454  13.827  68.934  1.00  0.00    -0.073 OA 
HETATM   14  C   UNL     1      -9.981  10.998  68.331  1.00  0.00    -0.194 A  
HETATM   15  O   UNL     1      -8.314  11.302  66.650  1.00  0.00    -0.154 OA 
HETATM   16  C   UNL     1      -7.420  11.228  68.936  1.00  0.00    -0.123 C  
HETATM   17  C   UNL     1      -7.172   9.709  69.041  1.00  0.00    -0.071 C  
HETATM   18  C   UNL     1     -10.898  10.691  67.302  1.00  0.00    -0.345 A  
HETATM   19  H   UNL     1      -8.219  10.359  66.584  1.00  0.00     0.000 HD 
HETATM   20  C   UNL     1      -6.514   9.103  67.803  1.00  0.00    -0.056 C  
HETATM   21  C   UNL     1     -12.138  10.100  67.572  1.00  0.00     2.777 A  
HETATM   22  C   UNL     1     -12.498   9.808  68.883  1.00  0.00     2.146 A  
HETATM   23  C   UNL     1      -5.200   9.793  67.451  1.00  0.00    -0.035 C  
HETATM   24  C   UNL     1      -5.329  11.306  67.384  1.00  0.00    -0.048 C  
HETATM   25  C   UNL     1     -11.627  10.123  69.920  1.00  0.00    -0.290 A  
HETATM   26  C   UNL     1     -10.388  10.722  69.650  1.00  0.00    -0.142 A  
HETATM   27  C   UNL     1      -6.055  11.875  68.596  1.00  0.00    -0.052 C  
ENDBRANCH  10  11
ENDBRANCH   9  10
ENDBRANCH   8   9
TORSDOF 3
ENDMDL
MODEL      223
REMARK 921   NORMALIZED FREE ENERGY PREDICTED BY IDOCK:    1.37 KCAL/MOL
REMARK 922        TOTAL FREE ENERGY PREDICTED BY IDOCK:    1.17 KCAL/MOL
REMARK 923 INTER-LIGAND FREE ENERGY PREDICTED BY IDOCK:   -2.73 KCAL/MOL
REMARK 924 INTRA-LIGAND FREE ENERGY PREDICTED BY IDOCK:    3.89 KCAL/MOL
REMARK 927      BINDING AFFINITY PREDICTED BY RF-SCORE:    0.00 PKD
ROOT
HETATM    1  C   UNL     1     -12.027  15.701  70.548  1.00  0.00    -0.385 C  
HETATM    2  N   UNL     1     -12.137  14.280  70.834  1.00  0.00    -0.337 NA 
HETATM    3  C   UNL     1     -12.988  13.936  71.957  1.00  0.00    -0.349 C  
HETATM    4  C   UNL     1     -13.132  12.456  72.229  1.00  0.00    -0.302 C  
HETATM    5  C   UNL     1     -12.274  11.500  71.432  1.00  0.00     0.019 C  
HETATM    6  N   UNL     1     -11.419  12.074  70.414  1.00  0.00    -0.424 NA 
HETATM    7  H   UNL     1     -10.817  11.454  69.873  1.00  0.00     0.000 HD 
HETATM    8  C   UNL     1     -11.390  13.330  70.166  1.00  0.00     0.174 C  
ENDROOT
BRANCH   8   9
HETATM    9  C   UNL     1     -10.403  13.796  69.043  1.00  0.00    -0.066 C  
BRANCH   9  10
HETATM   10  O   UNL     1      -9.012  13.542  69.218  1.00  0.00     0.441 OA 
BRANCH  10  11
HETATM   11  C   UNL     1      -8.368  13.012  68.123  1.00  0.00    -0.164 C  
HETATM   12  C   UNL     1      -9.390  12.879  66.938  1.00  0.00    -0.240 C  
HETATM   13  O   UNL     1      -7.178  12.718  68.094  1.00  0.00    -0.093 OA 
HETATM   14  C   UNL     1      -9.067  11.592  66.143  1.00  0.00    -0.217 A  
HETATM   15  O   UNL     1     -10.713  12.707  67.464  1.00  0.00    -0.221 OA 
HETATM   16  C   UNL     1      -9.339  14.219  66.102  1.00  0.00    -0.191 C  
HETATM   17  C   UNL     1     -10.210  14.241  64.828  1.00  0.00    -0.284 C  
HETATM   18  C   UNL     1      -9.708  10.373  66.455  1.00  0.00    -0.241 A  
HETATM   19  H   UNL     1     -11.332  12.626  66.748  1.00  0.00     0.000 HD 
HETATM   20  C   UNL     1     -11.704  14.395  65.103  1.00  0.00    -0.372 C  
HETATM   21  C   UNL     1      -9.427   9.192  65.757  1.00  0.00    -0.322 A  
HETATM   22  C   UNL     1      -8.489   9.198  64.730  1.00  0.00    -0.194 A  
HETATM   23  C   UNL     1     -12.014  15.635  65.935  1.00  0.00     0.742 C  
HETATM   24  C   UNL     1     -11.158  15.736  67.186  1.00  0.00    -0.180 C  
HETATM   25  C   UNL     1      -7.823  10.378  64.417  1.00  0.00    -0.064 A  
HETATM   26  C   UNL     1      -8.099  11.559  65.122  1.00  0.00     0.788 A  
HETATM   27  C   UNL     1      -9.682  15.505  66.893  1.00  0.00    -0.243 C  
ENDBRANCH  10  11
ENDBRANCH   9  10
ENDBRANCH   8   9
TORSDOF 3
ENDMDL
MODEL      224
REMARK 921   NORMALIZED FREE ENERGY PREDICTED BY IDOCK:    2.41 KCAL/MOL
REMARK 922        TOTAL FREE ENERGY PREDICTED BY IDOCK:    2.38 KCAL/MOL
REMARK 923 INTER-LIGAND FREE ENERGY PREDICTED BY IDOCK:    2.09 KCAL/MOL
REMARK 924 INTRA-LIGAND FREE ENERGY PREDICTED BY IDOCK:    0.29 KCAL/MOL
REMARK 927      BINDING AFFINITY PREDICTED BY RF-SCORE:    0.00 PKD
ROOT
HETATM    1  C   UNL     1      -9.905   4.798  73.493  1.00  0.00    -0.145 C  
HETATM    2  N   UNL     1     -10.297   3.772  72.540  1.00  0.00    -0.159 NA 
HETATM    3  C   UNL     1     -10.770   2.531  73.122  1.00  0.00    -0.163 C  
HETATM    4  C   UNL     1     -11.213   1.479  72.130  1.00  0.00     0.491 C  
HETATM    5  C   UNL     1     -10.981   1.746  70.661  1.00  0.00     2.726 C  
HETATM    6  N   UNL     1     -10.405   3.027  70.306  1.00  0.00     1.074 NA 
HETATM    7  H   UNL     1     -10.222   3.226  69.323  1.00  0.00     0.000 HD 
HETATM    8  C   UNL     1     -10.117   3.919  71.179  1.00  0.00     0.004 C  
ENDROOT
BRANCH   8   9
HETATM    9  C   UNL     1      -9.489   5.247  70.637  1.00  0.00    -0.168 C  
BRANCH   9  10
HETATM   10  O   UNL     1      -8.165   5.204  70.112  1.00  0.00    -0.084 OA 
BRANCH  10  11
HETATM   11  C   UNL     1      -7.777   6.315  69.399  1.00  0.00    -0.100 C  
HETATM   12  C   UNL     1      -7.510   7.499  70.396  1.00  0.00    -0.081 C  
HETATM   13  O   UNL     1      -7.647   6.347  68.181  1.00  0.00    -0.099 OA 
HETATM   14  C   UNL     1      -7.969   8.821  69.736  1.00  0.00    -0.095 A  
HETATM   15  O   UNL     1      -8.318   7.330  71.569  1.00  0.00    -0.108 OA 
HETATM   16  C   UNL     1      -5.986   7.447  70.811  1.00  0.00    -0.035 C  
HETATM   17  C   UNL     1      -5.503   8.599  71.718  1.00  0.00    -0.043 C  
HETATM   18  C   UNL     1      -9.275   9.315  69.949  1.00  0.00    -0.209 A  
HETATM   19  H   UNL     1      -8.157   8.047  72.172  1.00  0.00     0.000 HD 
HETATM   20  C   UNL     1      -5.968   8.481  73.167  1.00  0.00    -0.097 C  
HETATM   21  C   UNL     1      -9.719  10.504  69.357  1.00  0.00    -0.188 A  
HETATM   22  C   UNL     1      -8.869  11.227  68.528  1.00  0.00    -0.159 A  
HETATM   23  C   UNL     1      -5.560   7.154  73.798  1.00  0.00    -0.050 C  
HETATM   24  C   UNL     1      -5.939   5.954  72.945  1.00  0.00    -0.037 C  
HETATM   25  C   UNL     1      -7.585  10.752  68.279  1.00  0.00    -0.098 A  
HETATM   26  C   UNL     1      -7.144   9.557  68.866  1.00  0.00    -0.067 A  
HETATM   27  C   UNL     1      -5.529   6.132  71.489  1.00  0.00    -0.022 C  
ENDBRANCH  10  11
ENDBRANCH   9  10
ENDBRANCH   8   9
TORSDOF 3
ENDMDL
MODEL      225
REMARK 921   NORMALIZED FREE ENERGY PREDICTED BY IDOCK:    3.11 KCAL/MOL
REMARK 922        TOTAL FREE ENERGY PREDICTED BY IDOCK:    3.20 KCAL/MOL
REMARK 923 INTER-LIGAND FREE ENERGY PREDICTED BY IDOCK:    3.46 KCAL/MOL
REMARK 924 INTRA-LIGAND FREE ENERGY PREDICTED BY IDOCK:   -0.26 KCAL/MOL
REMARK 927      BINDING AFFINITY PREDICTED BY RF-SCORE:    0.00 PKD
ROOT
HETATM    1  C   UNL     1     -10.596   4.944  73.893  1.00  0.00    -0.287 C  
HETATM    2  N   UNL     1     -10.942   3.825  73.031  1.00  0.00    -0.122 NA 
HETATM    3  C   UNL     1     -11.398   2.631  73.717  1.00  0.00    -0.142 C  
HETATM    4  C   UNL     1     -11.793   1.481  72.817  1.00  0.00     0.213 C  
HETATM    5  C   UNL     1     -11.534   1.617  71.335  1.00  0.00     2.650 C  
HETATM    6  N   UNL     1     -10.981   2.874  70.874  1.00  0.00     2.649 NA 
HETATM    7  H   UNL     1     -10.780   2.986  69.881  1.00  0.00     0.000 HD 
HETATM    8  C   UNL     1     -10.735   3.850  71.666  1.00  0.00     0.599 C  
ENDROOT
BRANCH   8   9
HETATM    9  C   UNL     1     -10.126   5.138  71.017  1.00  0.00    -0.227 C  
BRANCH   9  10
HETATM   10  O   UNL     1     -10.567   5.511  69.714  1.00  0.00    -0.297 OA 
BRANCH  10  11
HETATM   11  C   UNL     1     -10.105   6.725  69.260  1.00  0.00    -0.168 C  
HETATM   12  C   UNL     1      -8.991   6.482  68.181  1.00  0.00    -0.116 C  
HETATM   13  O   UNL     1     -10.527   7.813  69.638  1.00  0.00    -0.221 OA 
HETATM   14  C   UNL     1      -7.905   7.574  68.329  1.00  0.00    -0.122 A  
HETATM   15  O   UNL     1      -8.340   5.229  68.438  1.00  0.00    -0.093 OA 
HETATM   16  C   UNL     1      -9.692   6.416  66.767  1.00  0.00    -0.199 C  
HETATM   17  C   UNL     1      -8.742   6.280  65.558  1.00  0.00    -0.090 C  
HETATM   18  C   UNL     1      -6.769   7.354  69.138  1.00  0.00    -0.052 A  
HETATM   19  H   UNL     1      -7.666   5.082  67.785  1.00  0.00     0.000 HD 
HETATM   20  C   UNL     1      -8.144   4.884  65.397  1.00  0.00    -0.114 C  
HETATM   21  C   UNL     1      -5.776   8.330  69.297  1.00  0.00    -0.031 A  
HETATM   22  C   UNL     1      -5.899   9.557  68.655  1.00  0.00    -0.040 A  
HETATM   23  C   UNL     1      -9.215   3.803  65.306  1.00  0.00    -0.151 C  
HETATM   24  C   UNL     1     -10.240   3.893  66.425  1.00  0.00     0.283 C  
HETATM   25  C   UNL     1      -7.020   9.812  67.871  1.00  0.00    -0.078 A  
HETATM   26  C   UNL     1      -8.018   8.838  67.720  1.00  0.00    -0.106 A  
HETATM   27  C   UNL     1     -10.764   5.310  66.611  1.00  0.00    -0.274 C  
ENDBRANCH  10  11
ENDBRANCH   9  10
ENDBRANCH   8   9
TORSDOF 3
ENDMDL
MODEL      226
REMARK 921   NORMALIZED FREE ENERGY PREDICTED BY IDOCK:    3.73 KCAL/MOL
REMARK 922        TOTAL FREE ENERGY PREDICTED BY IDOCK:    3.93 KCAL/MOL
REMARK 923 INTER-LIGAND FREE ENERGY PREDICTED BY IDOCK:   -3.60 KCAL/MOL
REMARK 924 INTRA-LIGAND FREE ENERGY PREDICTED BY IDOCK:    7.53 KCAL/MOL
REMARK 927      BINDING AFFINITY PREDICTED BY RF-SCORE:    0.00 PKD
ROOT
HETATM    1  C   UNL     1     -10.353  15.863  65.451  1.00  0.00    -0.372 C  
HETATM    2  N   UNL     1      -9.748  16.347  66.681  1.00  0.00    -0.244 NA 
HETATM    3  C   UNL     1      -9.921  17.763  66.943  1.00  0.00    -0.332 C  
HETATM    4  C   UNL     1      -9.324  18.258  68.242  1.00  0.00    -0.320 C  
HETATM    5  C   UNL     1      -8.487  17.295  69.051  1.00  0.00    -0.080 C  
HETATM    6  N   UNL     1      -8.370  15.941  68.551  1.00  0.00    -0.173 NA 
HETATM    7  H   UNL     1      -7.797  15.275  69.068  1.00  0.00     0.000 HD 
HETATM    8  C   UNL     1      -8.959  15.547  67.483  1.00  0.00    -0.189 C  
ENDROOT
BRANCH   8   9
HETATM    9  C   UNL     1      -8.724  14.056  67.067  1.00  0.00    -0.203 C  
BRANCH   9  10
HETATM   10  O   UNL     1      -7.385  13.573  67.011  1.00  0.00     0.035 OA 
BRANCH  10  11
HETATM   11  C   UNL     1      -7.255  12.216  66.819  1.00  0.00     0.095 C  
HETATM   12  C   UNL     1      -8.674  11.548  66.892  1.00  0.00    -0.181 C  
HETATM   13  O   UNL     1      -6.192  11.645  66.605  1.00  0.00    -0.143 OA 
HETATM   14  C   UNL     1      -8.541  10.166  67.575  1.00  0.00    -0.118 A  
HETATM   15  O   UNL     1      -9.531  12.332  67.733  1.00  0.00    -0.185 OA 
HETATM   16  C   UNL     1      -9.273  11.522  65.430  1.00  0.00    -0.123 C  
HETATM   17  C   UNL     1     -10.633  10.808  65.280  1.00  0.00    -0.230 C  
HETATM   18  C   UNL     1      -8.721  10.032  68.969  1.00  0.00    -0.158 A  
HETATM   19  H   UNL     1     -10.390  11.928  67.778  1.00  0.00     0.000 HD 
HETATM   20  C   UNL     1     -11.815  11.610  65.819  1.00  0.00     0.192 C  
HETATM   21  C   UNL     1      -8.597   8.794  69.613  1.00  0.00    -0.130 A  
HETATM   22  C   UNL     1      -8.280   7.657  68.878  1.00  0.00    -0.128 A  
HETATM   23  C   UNL     1     -11.912  12.993  65.183  1.00  0.00    -0.440 C  
HETATM   24  C   UNL     1     -10.598  13.756  65.226  1.00  0.00    -0.363 C  
HETATM   25  C   UNL     1      -8.071   7.763  67.507  1.00  0.00    -0.124 A  
HETATM   26  C   UNL     1      -8.188   9.004  66.864  1.00  0.00    -0.116 A  
HETATM   27  C   UNL     1      -9.426  12.906  64.754  1.00  0.00     0.430 C  
ENDBRANCH  10  11
ENDBRANCH   9  10
ENDBRANCH   8   9
TORSDOF 3
ENDMDL
MODEL      227
REMARK 921   NORMALIZED FREE ENERGY PREDICTED BY IDOCK:    5.98 KCAL/MOL
REMARK 922        TOTAL FREE ENERGY PREDICTED BY IDOCK:    6.58 KCAL/MOL
REMARK 923 INTER-LIGAND FREE ENERGY PREDICTED BY IDOCK:    3.55 KCAL/MOL
REMARK 924 INTRA-LIGAND FREE ENERGY PREDICTED BY IDOCK:    3.04 KCAL/MOL
REMARK 927      BINDING AFFINITY PREDICTED BY RF-SCORE:    0.00 PKD
ROOT
HETATM    1  C   UNL     1     -10.510  11.328  63.773  1.00  0.00    -0.399 C  
HETATM    2  N   UNL     1      -9.344  10.487  63.991  1.00  0.00    -0.243 NA 
HETATM    3  C   UNL     1      -8.974   9.637  62.876  1.00  0.00    -0.245 C  
HETATM    4  C   UNL     1      -7.738   8.792  63.090  1.00  0.00    -0.123 C  
HETATM    5  C   UNL     1      -7.110   8.788  64.464  1.00  0.00    -0.085 C  
HETATM    6  N   UNL     1      -7.704   9.650  65.464  1.00  0.00    -0.108 NA 
HETATM    7  H   UNL     1      -7.310   9.654  66.404  1.00  0.00     0.000 HD 
HETATM    8  C   UNL     1      -8.705  10.409  65.213  1.00  0.00    -0.179 C  
ENDROOT
BRANCH   8   9
HETATM    9  C   UNL     1      -9.241  11.273  66.403  1.00  0.00    -0.192 C  
BRANCH   9  10
HETATM   10  O   UNL     1      -8.906  10.877  67.730  1.00  0.00    -0.132 OA 
BRANCH  10  11
HETATM   11  C   UNL     1      -9.698   9.887  68.267  1.00  0.00    -0.144 C  
HETATM   12  C   UNL     1      -8.984   8.500  68.083  1.00  0.00    -0.142 C  
HETATM   13  O   UNL     1     -10.776  10.082  68.817  1.00  0.00    -0.207 OA 
HETATM   14  C   UNL     1     -10.056   7.421  67.795  1.00  0.00    -0.232 A  
HETATM   15  O   UNL     1      -8.138   8.546  66.926  1.00  0.00    -0.098 OA 
HETATM   16  C   UNL     1      -8.093   8.240  69.361  1.00  0.00    -0.115 C  
HETATM   17  C   UNL     1      -7.384   6.870  69.412  1.00  0.00    -0.091 C  
HETATM   18  C   UNL     1     -10.409   7.094  66.468  1.00  0.00    -0.104 A  
HETATM   19  H   UNL     1      -7.706   7.707  66.814  1.00  0.00     0.000 HD 
HETATM   20  C   UNL     1      -6.183   6.761  68.474  1.00  0.00    -0.030 C  
HETATM   21  C   UNL     1     -11.382   6.128  66.180  1.00  0.00     1.159 A  
HETATM   22  C   UNL     1     -12.034   5.470  67.216  1.00  0.00     3.911 A  
HETATM   23  C   UNL     1      -5.154   7.858  68.723  1.00  0.00    -0.023 C  
HETATM   24  C   UNL     1      -5.769   9.248  68.754  1.00  0.00    -0.040 C  
HETATM   25  C   UNL     1     -11.726   5.789  68.534  1.00  0.00     1.747 A  
HETATM   26  C   UNL     1     -10.757   6.762  68.821  1.00  0.00    -0.280 A  
HETATM   27  C   UNL     1      -7.007   9.308  69.639  1.00  0.00    -0.056 C  
ENDBRANCH  10  11
ENDBRANCH   9  10
ENDBRANCH   8   9
TORSDOF 3
ENDMDL
MODEL      228
REMARK 921   NORMALIZED FREE ENERGY PREDICTED BY IDOCK:    6.09 KCAL/MOL
REMARK 922        TOTAL FREE ENERGY PREDICTED BY IDOCK:    6.71 KCAL/MOL
REMARK 923 INTER-LIGAND FREE ENERGY PREDICTED BY IDOCK:    6.05 KCAL/MOL
REMARK 924 INTRA-LIGAND FREE ENERGY PREDICTED BY IDOCK:    0.66 KCAL/MOL
REMARK 927      BINDING AFFINITY PREDICTED BY RF-SCORE:    0.00 PKD
ROOT
HETATM    1  C   UNL     1      -6.829  16.363  71.739  1.00  0.00     4.838 C  
HETATM    2  N   UNL     1      -6.338  17.380  70.823  1.00  0.00     1.000 NA 
HETATM    3  C   UNL     1      -5.709  18.527  71.449  1.00  0.00     0.259 C  
HETATM    4  C   UNL     1      -5.164  19.566  70.494  1.00  0.00    -0.234 C  
HETATM    5  C   UNL     1      -5.457  19.400  69.021  1.00  0.00    -0.197 C  
HETATM    6  N   UNL     1      -6.188  18.215  68.624  1.00  0.00    -0.198 NA 
HETATM    7  H   UNL     1      -6.414  18.087  67.638  1.00  0.00     0.000 HD 
HETATM    8  C   UNL     1      -6.562  17.322  69.462  1.00  0.00    -0.178 C  
ENDROOT
BRANCH   8   9
HETATM    9  C   UNL     1      -7.354  16.105  68.877  1.00  0.00    -0.186 C  
BRANCH   9  10
HETATM   10  O   UNL     1      -7.049  14.802  69.366  1.00  0.00    -0.149 OA 
BRANCH  10  11
HETATM   11  C   UNL     1      -7.258  13.774  68.475  1.00  0.00    -0.108 C  
HETATM   12  C   UNL     1      -8.486  12.919  68.953  1.00  0.00     0.299 C  
HETATM   13  O   UNL     1      -6.592  13.587  67.463  1.00  0.00    -0.167 OA 
HETATM   14  C   UNL     1      -8.214  11.431  68.630  1.00  0.00    -0.142 A  
HETATM   15  O   UNL     1      -8.605  13.007  70.380  1.00  0.00     3.373 OA 
HETATM   16  C   UNL     1      -9.786  13.526  68.291  1.00  0.00    -0.233 C  
HETATM   17  C   UNL     1     -11.095  12.755  68.565  1.00  0.00    -0.300 C  
HETATM   18  C   UNL     1      -7.615  10.584  69.588  1.00  0.00    -0.134 A  
HETATM   19  H   UNL     1      -9.347  12.490  70.669  1.00  0.00     0.000 HD 
HETATM   20  C   UNL     1     -11.644  12.952  69.976  1.00  0.00    -0.189 C  
HETATM   21  C   UNL     1      -7.350   9.235  69.318  1.00  0.00    -0.070 A  
HETATM   22  C   UNL     1      -7.671   8.700  68.076  1.00  0.00    -0.102 A  
HETATM   23  C   UNL     1     -11.860  14.424  70.312  1.00  0.00    -0.382 C  
HETATM   24  C   UNL     1     -10.640  15.281  70.016  1.00  0.00    -0.288 C  
HETATM   25  C   UNL     1      -8.238   9.516  67.102  1.00  0.00    -0.113 A  
HETATM   26  C   UNL     1      -8.496  10.868  67.371  1.00  0.00    -0.120 A  
HETATM   27  C   UNL     1     -10.070  15.010  68.630  1.00  0.00    -0.233 C  
ENDBRANCH  10  11
ENDBRANCH   9  10
ENDBRANCH   8   9
TORSDOF 3
ENDMDL
MODEL      229
REMARK 921   NORMALIZED FREE ENERGY PREDICTED BY IDOCK:    6.59 KCAL/MOL
REMARK 922        TOTAL FREE ENERGY PREDICTED BY IDOCK:    7.29 KCAL/MOL
REMARK 923 INTER-LIGAND FREE ENERGY PREDICTED BY IDOCK:    1.15 KCAL/MOL
REMARK 924 INTRA-LIGAND FREE ENERGY PREDICTED BY IDOCK:    6.14 KCAL/MOL
REMARK 927      BINDING AFFINITY PREDICTED BY RF-SCORE:    0.00 PKD
ROOT
HETATM    1  C   UNL     1     -11.588  13.762  70.941  1.00  0.00     0.291 C  
HETATM    2  N   UNL     1     -11.922  13.002  69.747  1.00  0.00    -0.322 NA 
HETATM    3  C   UNL     1     -12.041  11.569  69.935  1.00  0.00    -0.316 C  
HETATM    4  C   UNL     1     -12.426  10.785  68.701  1.00  0.00     0.769 C  
HETATM    5  C   UNL     1     -12.493  11.522  67.383  1.00  0.00     1.876 C  
HETATM    6  N   UNL     1     -12.245  12.948  67.412  1.00  0.00    -0.324 NA 
HETATM    7  H   UNL     1     -12.267  13.467  66.534  1.00  0.00     0.000 HD 
HETATM    8  C   UNL     1     -11.999  13.583  68.497  1.00  0.00    -0.344 C  
ENDROOT
BRANCH   8   9
HETATM    9  C   UNL     1     -11.740  15.122  68.360  1.00  0.00    -0.316 C  
BRANCH   9  10
HETATM   10  O   UNL     1     -11.658  15.901  69.549  1.00  0.00    -0.325 OA 
BRANCH  10  11
HETATM   11  C   UNL     1     -10.597  16.776  69.609  1.00  0.00    -0.242 C  
HETATM   12  C   UNL     1      -9.548  16.389  68.506  1.00  0.00    -0.229 C  
HETATM   13  O   UNL     1     -10.514  17.714  70.393  1.00  0.00     0.674 OA 
HETATM   14  C   UNL     1      -8.125  16.638  69.060  1.00  0.00    -0.199 A  
HETATM   15  O   UNL     1      -9.635  14.983  68.234  1.00  0.00    -0.202 OA 
HETATM   16  C   UNL     1      -9.910  17.189  67.192  1.00  0.00    -0.271 C  
HETATM   17  C   UNL     1      -8.927  17.015  66.015  1.00  0.00    -0.168 C  
HETATM   18  C   UNL     1      -7.410  15.601  69.698  1.00  0.00    -0.144 A  
HETATM   19  H   UNL     1      -9.000  14.748  67.567  1.00  0.00     0.000 HD 
HETATM   20  C   UNL     1      -9.046  15.669  65.304  1.00  0.00     0.929 C  
HETATM   21  C   UNL     1      -6.125  15.803  70.217  1.00  0.00    -0.052 A  
HETATM   22  C   UNL     1      -5.523  17.053  70.117  1.00  0.00    -0.223 A  
HETATM   23  C   UNL     1     -10.462  15.401  64.807  1.00  0.00    -0.186 C  
HETATM   24  C   UNL     1     -11.514  15.608  65.884  1.00  0.00     0.160 C  
HETATM   25  C   UNL     1      -6.214  18.100  69.516  1.00  0.00    -0.235 A  
HETATM   26  C   UNL     1      -7.504  17.899  69.004  1.00  0.00    -0.171 A  
HETATM   27  C   UNL     1     -11.326  16.925  66.626  1.00  0.00     0.723 C  
ENDBRANCH  10  11
ENDBRANCH   9  10
ENDBRANCH   8   9
TORSDOF 3
ENDMDL
MODEL      230
REMARK 921   NORMALIZED FREE ENERGY PREDICTED BY IDOCK:    6.85 KCAL/MOL
REMARK 922        TOTAL FREE ENERGY PREDICTED BY IDOCK:    7.60 KCAL/MOL
REMARK 923 INTER-LIGAND FREE ENERGY PREDICTED BY IDOCK:    1.40 KCAL/MOL
REMARK 924 INTRA-LIGAND FREE ENERGY PREDICTED BY IDOCK:    6.19 KCAL/MOL
REMARK 927      BINDING AFFINITY PREDICTED BY RF-SCORE:    0.00 PKD
ROOT
HETATM    1  C   UNL     1      -6.846  16.363  71.776  1.00  0.00     4.838 C  
HETATM    2  N   UNL     1      -6.366  17.288  70.762  1.00  0.00     1.004 NA 
HETATM    3  C   UNL     1      -5.698  18.472  71.267  1.00  0.00     0.199 C  
HETATM    4  C   UNL     1      -5.167  19.415  70.211  1.00  0.00    -0.222 C  
HETATM    5  C   UNL     1      -5.508  19.128  68.767  1.00  0.00    -0.196 C  
HETATM    6  N   UNL     1      -6.270  17.927  68.495  1.00  0.00    -0.184 NA 
HETATM    7  H   UNL     1      -6.529  17.719  67.531  1.00  0.00     0.000 HD 
HETATM    8  C   UNL     1      -6.633  17.117  69.418  1.00  0.00    -0.220 C  
ENDROOT
BRANCH   8   9
HETATM    9  C   UNL     1      -7.463  15.869  68.965  1.00  0.00    -0.194 C  
BRANCH   9  10
HETATM   10  O   UNL     1      -7.182  14.612  69.573  1.00  0.00    -0.159 OA 
BRANCH  10  11
HETATM   11  C   UNL     1      -7.472  13.507  68.805  1.00  0.00    -0.071 C  
HETATM   12  C   UNL     1      -8.896  13.684  68.166  1.00  0.00    -0.189 C  
HETATM   13  O   UNL     1      -6.715  12.557  68.643  1.00  0.00    -0.075 OA 
HETATM   14  C   UNL     1      -9.597  12.306  68.121  1.00  0.00    -0.213 A  
HETATM   15  O   UNL     1      -9.700  14.519  69.011  1.00  0.00    -0.307 OA 
HETATM   16  C   UNL     1      -8.713  14.394  66.766  1.00  0.00    -0.187 C  
HETATM   17  C   UNL     1     -10.002  14.567  65.935  1.00  0.00    -0.352 C  
HETATM   18  C   UNL     1     -10.437  11.891  69.178  1.00  0.00    -0.035 A  
HETATM   19  H   UNL     1     -10.562  14.625  68.625  1.00  0.00     0.000 HD 
HETATM   20  C   UNL     1     -10.924  15.672  66.447  1.00  0.00    -0.197 C  
HETATM   21  C   UNL     1     -11.076  10.645  69.165  1.00  0.00    -0.309 A  
HETATM   22  C   UNL     1     -10.885   9.776  68.097  1.00  0.00    -0.264 A  
HETATM   23  C   UNL     1     -10.215  17.018  66.542  1.00  0.00    -0.321 C  
HETATM   24  C   UNL     1      -8.897  16.938  67.294  1.00  0.00    -0.206 C  
HETATM   25  C   UNL     1     -10.043  10.147  67.053  1.00  0.00    -0.277 A  
HETATM   26  C   UNL     1      -9.397  11.391  67.070  1.00  0.00    -0.183 A  
HETATM   27  C   UNL     1      -8.030  15.782  66.813  1.00  0.00    -0.273 C  
ENDBRANCH  10  11
ENDBRANCH   9  10
ENDBRANCH   8   9
TORSDOF 3
ENDMDL
MODEL      231
REMARK 921   NORMALIZED FREE ENERGY PREDICTED BY IDOCK:    9.47 KCAL/MOL
REMARK 922        TOTAL FREE ENERGY PREDICTED BY IDOCK:   10.68 KCAL/MOL
REMARK 923 INTER-LIGAND FREE ENERGY PREDICTED BY IDOCK:    8.79 KCAL/MOL
REMARK 924 INTRA-LIGAND FREE ENERGY PREDICTED BY IDOCK:    1.89 KCAL/MOL
REMARK 927      BINDING AFFINITY PREDICTED BY RF-SCORE:    0.00 PKD
ROOT
HETATM    1  C   UNL     1      -7.318  17.261  63.818  1.00  0.00    12.793 C  
HETATM    2  N   UNL     1      -7.136  18.192  64.920  1.00  0.00     0.616 NA 
HETATM    3  C   UNL     1      -6.052  19.141  64.759  1.00  0.00    -0.263 C  
HETATM    4  C   UNL     1      -5.888  20.133  65.889  1.00  0.00    -0.198 C  
HETATM    5  C   UNL     1      -6.741  19.950  67.123  1.00  0.00    -0.209 C  
HETATM    6  N   UNL     1      -7.705  18.870  67.105  1.00  0.00    -0.233 NA 
HETATM    7  H   UNL     1      -8.282  18.713  67.932  1.00  0.00     0.000 HD 
HETATM    8  C   UNL     1      -7.861  18.102  66.092  1.00  0.00    -0.204 C  
ENDROOT
BRANCH   8   9
HETATM    9  C   UNL     1      -8.935  16.972  66.233  1.00  0.00    -0.247 C  
BRANCH   9  10
HETATM   10  O   UNL     1      -9.795  16.994  67.369  1.00  0.00    -0.251 OA 
BRANCH  10  11
HETATM   11  C   UNL     1     -10.225  15.762  67.806  1.00  0.00    -0.251 C  
HETATM   12  C   UNL     1      -9.032  14.743  67.732  1.00  0.00    -0.182 C  
HETATM   13  O   UNL     1     -11.359  15.525  68.207  1.00  0.00    -0.328 OA 
HETATM   14  C   UNL     1      -9.583  13.358  67.316  1.00  0.00    -0.234 A  
HETATM   15  O   UNL     1      -8.124  15.144  66.696  1.00  0.00    -0.338 OA 
HETATM   16  C   UNL     1      -8.277  14.779  69.119  1.00  0.00    -0.106 C  
HETATM   17  C   UNL     1      -7.123  13.766  69.276  1.00  0.00    -0.004 C  
HETATM   18  C   UNL     1      -9.619  12.976  65.957  1.00  0.00    -0.175 A  
HETATM   19  H   UNL     1      -7.402  14.527  66.650  1.00  0.00     0.000 HD 
HETATM   20  C   UNL     1      -5.860  14.143  68.507  1.00  0.00    -0.094 C  
HETATM   21  C   UNL     1     -10.121  11.733  65.554  1.00  0.00    -0.285 A  
HETATM   22  C   UNL     1     -10.608  10.840  66.501  1.00  0.00    -0.279 A  
HETATM   23  C   UNL     1      -5.350  15.532  68.878  1.00  0.00    -0.099 C  
HETATM   24  C   UNL     1      -6.434  16.595  68.814  1.00  0.00    -0.159 C  
HETATM   25  C   UNL     1     -10.609  11.198  67.845  1.00  0.00    -0.235 A  
HETATM   26  C   UNL     1     -10.114  12.447  68.248  1.00  0.00    -0.227 A  
HETATM   27  C   UNL     1      -7.708  16.161  69.527  1.00  0.00    -0.022 C  
ENDBRANCH  10  11
ENDBRANCH   9  10
ENDBRANCH   8   9
TORSDOF 3
ENDMDL
MODEL      232
REMARK 921   NORMALIZED FREE ENERGY PREDICTED BY IDOCK:    9.64 KCAL/MOL
REMARK 922        TOTAL FREE ENERGY PREDICTED BY IDOCK:   10.88 KCAL/MOL
REMARK 923 INTER-LIGAND FREE ENERGY PREDICTED BY IDOCK:    9.43 KCAL/MOL
REMARK 924 INTRA-LIGAND FREE ENERGY PREDICTED BY IDOCK:    1.44 KCAL/MOL
REMARK 927      BINDING AFFINITY PREDICTED BY RF-SCORE:    0.00 PKD
ROOT
HETATM    1  C   UNL     1      -7.410  15.761  69.495  1.00  0.00    -0.186 C  
HETATM    2  N   UNL     1      -7.020  15.144  70.753  1.00  0.00     0.496 NA 
HETATM    3  C   UNL     1      -5.591  15.060  70.987  1.00  0.00    -0.057 C  
HETATM    4  C   UNL     1      -5.187  14.452  72.312  1.00  0.00    -0.200 C  
HETATM    5  C   UNL     1      -6.272  13.856  73.179  1.00  0.00     1.161 C  
HETATM    6  N   UNL     1      -7.635  13.970  72.703  1.00  0.00     4.489 NA 
HETATM    7  H   UNL     1      -8.384  13.562  73.260  1.00  0.00     0.000 HD 
HETATM    8  C   UNL     1      -7.935  14.564  71.609  1.00  0.00     4.596 C  
ENDROOT
BRANCH   8   9
HETATM    9  C   UNL     1      -9.453  14.593  71.225  1.00  0.00     3.524 C  
BRANCH   9  10
HETATM   10  O   UNL     1      -9.804  14.483  69.848  1.00  0.00     0.259 OA 
BRANCH  10  11
HETATM   11  C   UNL     1     -10.358  15.612  69.290  1.00  0.00    -0.250 C  
HETATM   12  C   UNL     1     -10.242  15.523  67.726  1.00  0.00    -0.243 C  
HETATM   13  O   UNL     1     -10.874  16.521  69.930  1.00  0.00    -0.344 OA 
HETATM   14  C   UNL     1      -9.970  16.939  67.164  1.00  0.00    -0.276 A  
HETATM   15  O   UNL     1      -9.105  14.723  67.374  1.00  0.00    -0.182 OA 
HETATM   16  C   UNL     1     -11.551  14.823  67.183  1.00  0.00    -0.373 C  
HETATM   17  C   UNL     1     -11.669  14.733  65.647  1.00  0.00    -0.257 C  
HETATM   18  C   UNL     1      -8.647  17.385  66.950  1.00  0.00    -0.270 A  
HETATM   19  H   UNL     1      -9.035  14.669  66.428  1.00  0.00     0.000 HD 
HETATM   20  C   UNL     1     -10.765  13.674  65.019  1.00  0.00    -0.374 C  
HETATM   21  C   UNL     1      -8.372  18.665  66.451  1.00  0.00    -0.292 A  
HETATM   22  C   UNL     1      -9.416  19.536  66.160  1.00  0.00    -0.401 A  
HETATM   23  C   UNL     1     -10.998  12.289  65.613  1.00  0.00    -0.338 C  
HETATM   24  C   UNL     1     -10.963  12.286  67.133  1.00  0.00    -0.308 C  
HETATM   25  C   UNL     1     -10.729  19.133  66.385  1.00  0.00    -0.450 A  
HETATM   26  C   UNL     1     -11.002  17.855  66.892  1.00  0.00     0.105 A  
HETATM   27  C   UNL     1     -11.814  13.399  67.729  1.00  0.00    -0.395 C  
ENDBRANCH  10  11
ENDBRANCH   9  10
ENDBRANCH   8   9
TORSDOF 3
ENDMDL
MODEL      233
REMARK 921   NORMALIZED FREE ENERGY PREDICTED BY IDOCK:   11.90 KCAL/MOL
REMARK 922        TOTAL FREE ENERGY PREDICTED BY IDOCK:   13.54 KCAL/MOL
REMARK 923 INTER-LIGAND FREE ENERGY PREDICTED BY IDOCK:    7.22 KCAL/MOL
REMARK 924 INTRA-LIGAND FREE ENERGY PREDICTED BY IDOCK:    6.31 KCAL/MOL
REMARK 927      BINDING AFFINITY PREDICTED BY RF-SCORE:    0.00 PKD
ROOT
HETATM    1  C   UNL     1     -10.116  15.205  64.565  1.00  0.00     0.715 C  
HETATM    2  N   UNL     1      -9.415  16.022  65.543  1.00  0.00    -0.393 NA 
HETATM    3  C   UNL     1      -9.684  17.445  65.471  1.00  0.00     0.409 C  
HETATM    4  C   UNL     1      -8.983  18.289  66.512  1.00  0.00    -0.285 C  
HETATM    5  C   UNL     1      -7.970  17.615  67.408  1.00  0.00    -0.206 C  
HETATM    6  N   UNL     1      -7.791  16.188  67.244  1.00  0.00    -0.160 NA 
HETATM    7  H   UNL     1      -7.101  15.711  67.824  1.00  0.00     0.000 HD 
HETATM    8  C   UNL     1      -8.465  15.501  66.399  1.00  0.00    -0.191 C  
ENDROOT
BRANCH   8   9
HETATM    9  C   UNL     1      -8.146  13.970  66.333  1.00  0.00     1.017 C  
BRANCH   9  10
HETATM   10  O   UNL     1      -6.783  13.560  66.401  1.00  0.00     1.519 OA 
BRANCH  10  11
HETATM   11  C   UNL     1      -6.422  12.902  67.555  1.00  0.00    -0.160 C  
HETATM   12  C   UNL     1      -7.591  13.013  68.598  1.00  0.00    -0.089 C  
HETATM   13  O   UNL     1      -5.360  12.311  67.713  1.00  0.00    -0.063 OA 
HETATM   14  C   UNL     1      -6.984  13.153  70.014  1.00  0.00     0.616 A  
HETATM   15  O   UNL     1      -8.335  14.215  68.358  1.00  0.00    -0.152 OA 
HETATM   16  C   UNL     1      -8.543  11.769  68.393  1.00  0.00    -0.156 C  
HETATM   17  C   UNL     1      -9.707  11.648  69.400  1.00  0.00     0.522 C  
HETATM   18  C   UNL     1      -6.747  14.428  70.573  1.00  0.00     0.141 A  
HETATM   19  H   UNL     1      -9.042  14.283  68.989  1.00  0.00     0.000 HD 
HETATM   20  C   UNL     1     -10.842  12.638  69.154  1.00  0.00    -0.127 C  
HETATM   21  C   UNL     1      -6.190  14.583  71.849  1.00  0.00     0.480 A  
HETATM   22  C   UNL     1      -5.848  13.462  72.598  1.00  0.00     0.761 A  
HETATM   23  C   UNL     1     -11.402  12.535  67.739  1.00  0.00    -0.351 C  
HETATM   24  C   UNL     1     -10.321  12.583  66.672  1.00  0.00    -0.244 C  
HETATM   25  C   UNL     1      -6.046  12.193  72.064  1.00  0.00     2.374 A  
HETATM   26  C   UNL     1      -6.596  12.040  70.783  1.00  0.00     1.427 A  
HETATM   27  C   UNL     1      -9.167  11.639  66.982  1.00  0.00    -0.185 C  
ENDBRANCH  10  11
ENDBRANCH   9  10
ENDBRANCH   8   9
TORSDOF 3
ENDMDL
MODEL      234
REMARK 921   NORMALIZED FREE ENERGY PREDICTED BY IDOCK:   28.21 KCAL/MOL
REMARK 922        TOTAL FREE ENERGY PREDICTED BY IDOCK:   32.71 KCAL/MOL
REMARK 923 INTER-LIGAND FREE ENERGY PREDICTED BY IDOCK:   23.11 KCAL/MOL
REMARK 924 INTRA-LIGAND FREE ENERGY PREDICTED BY IDOCK:    9.60 KCAL/MOL
REMARK 927      BINDING AFFINITY PREDICTED BY RF-SCORE:    0.00 PKD
ROOT
HETATM    1  C   UNL     1      -8.790  19.507  71.794  1.00  0.00     4.358 C  
HETATM    2  N   UNL     1      -9.855  19.792  70.846  1.00  0.00     1.349 NA 
HETATM    3  C   UNL     1     -10.667  20.953  71.155  1.00  0.00     4.794 C  
HETATM    4  C   UNL     1     -11.750  21.271  70.149  1.00  0.00     5.193 C  
HETATM    5  C   UNL     1     -11.987  20.287  69.026  1.00  0.00     4.811 C  
HETATM    6  N   UNL     1     -11.109  19.137  68.961  1.00  0.00     0.853 NA 
HETATM    7  H   UNL     1     -11.258  18.449  68.223  1.00  0.00     0.000 HD 
HETATM    8  C   UNL     1     -10.154  18.951  69.793  1.00  0.00     0.591 C  
ENDROOT
BRANCH   8   9
HETATM    9  C   UNL     1      -9.302  17.652  69.596  1.00  0.00     0.741 C  
BRANCH   9  10
HETATM   10  O   UNL     1      -8.982  17.248  68.268  1.00  0.00    -0.246 OA 
BRANCH  10  11
HETATM   11  C   UNL     1      -9.919  16.450  67.653  1.00  0.00    -0.252 C  
HETATM   12  C   UNL     1     -10.331  15.292  68.631  1.00  0.00    -0.232 C  
HETATM   13  O   UNL     1     -10.364  16.643  66.527  1.00  0.00    -0.298 OA 
HETATM   14  C   UNL     1     -10.573  14.005  67.808  1.00  0.00    -0.244 A  
HETATM   15  O   UNL     1      -9.242  15.005  69.519  1.00  0.00    -0.392 OA 
HETATM   16  C   UNL     1     -11.567  15.792  69.480  1.00  0.00    -0.368 C  
HETATM   17  C   UNL     1     -12.183  14.750  70.437  1.00  0.00    -0.395 C  
HETATM   18  C   UNL     1      -9.530  13.075  67.604  1.00  0.00    -0.201 A  
HETATM   19  H   UNL     1      -9.491  14.304  70.111  1.00  0.00     0.000 HD 
HETATM   20  C   UNL     1     -11.348  14.490  71.688  1.00  0.00     0.368 C  
HETATM   21  C   UNL     1      -9.720  11.907  66.855  1.00  0.00    -0.212 A  
HETATM   22  C   UNL     1     -10.960  11.642  66.283  1.00  0.00    -0.338 A  
HETATM   23  C   UNL     1     -11.065  15.769  72.469  1.00  0.00     0.387 C  
HETATM   24  C   UNL     1     -10.510  16.883  71.596  1.00  0.00     2.910 C  
HETATM   25  C   UNL     1     -11.999  12.552  66.445  1.00  0.00    -0.386 A  
HETATM   26  C   UNL     1     -11.805  13.726  67.189  1.00  0.00    -0.441 A  
HETATM   27  C   UNL     1     -11.320  17.069  70.319  1.00  0.00     0.758 C  
ENDBRANCH  10  11
ENDBRANCH   9  10
ENDBRANCH   8   9
TORSDOF 3
ENDMDL
MODEL      235
REMARK 921   NORMALIZED FREE ENERGY PREDICTED BY IDOCK:   32.54 KCAL/MOL
REMARK 922        TOTAL FREE ENERGY PREDICTED BY IDOCK:   37.80 KCAL/MOL
REMARK 923 INTER-LIGAND FREE ENERGY PREDICTED BY IDOCK:   36.00 KCAL/MOL
REMARK 924 INTRA-LIGAND FREE ENERGY PREDICTED BY IDOCK:    1.80 KCAL/MOL
REMARK 927      BINDING AFFINITY PREDICTED BY RF-SCORE:    0.00 PKD
ROOT
HETATM    1  C   UNL     1     -11.899  10.983  67.214  1.00  0.00     0.500 C  
HETATM    2  N   UNL     1     -10.714  10.630  66.449  1.00  0.00    -0.178 NA 
HETATM    3  C   UNL     1     -10.561  11.322  65.184  1.00  0.00    -0.280 C  
HETATM    4  C   UNL     1      -9.309  10.981  64.407  1.00  0.00    -0.223 C  
HETATM    5  C   UNL     1      -8.434   9.864  64.926  1.00  0.00    -0.161 C  
HETATM    6  N   UNL     1      -8.828   9.242  66.172  1.00  0.00    -0.147 NA 
HETATM    7  H   UNL     1      -8.265   8.474  66.536  1.00  0.00     0.000 HD 
HETATM    8  C   UNL     1      -9.857   9.618  66.836  1.00  0.00    -0.200 C  
ENDROOT
BRANCH   8   9
HETATM    9  C   UNL     1     -10.158   8.837  68.159  1.00  0.00    -0.190 C  
BRANCH   9  10
HETATM   10  O   UNL     1     -10.029   9.530  69.397  1.00  0.00    -0.174 OA 
BRANCH  10  11
HETATM   11  C   UNL     1      -9.203  10.631  69.373  1.00  0.00    -0.051 C  
HETATM   12  C   UNL     1      -7.945  10.351  70.270  1.00  0.00     0.462 C  
HETATM   13  O   UNL     1      -9.424  11.650  68.729  1.00  0.00    -0.159 OA 
HETATM   14  C   UNL     1      -7.539  11.661  70.984  1.00  0.00     5.368 A  
HETATM   15  O   UNL     1      -8.291   9.418  71.303  1.00  0.00    -0.308 OA 
HETATM   16  C   UNL     1      -6.829   9.709  69.352  1.00  0.00    -0.054 C  
HETATM   17  C   UNL     1      -5.471   9.451  70.038  1.00  0.00    -0.031 C  
HETATM   18  C   UNL     1      -8.034  11.962  72.272  1.00  0.00    16.014 A  
HETATM   19  H   UNL     1      -7.530   9.248  71.846  1.00  0.00     0.000 HD 
HETATM   20  C   UNL     1      -5.474   8.252  70.983  1.00  0.00    -0.029 C  
HETATM   21  C   UNL     1      -7.690  13.146  72.937  1.00  0.00    11.834 A  
HETATM   22  C   UNL     1      -6.845  14.065  72.326  1.00  0.00     2.964 A  
HETATM   23  C   UNL     1      -5.927   6.971  70.289  1.00  0.00    -0.024 C  
HETATM   24  C   UNL     1      -7.232   7.142  69.530  1.00  0.00    -0.080 C  
HETATM   25  C   UNL     1      -6.361  13.808  71.047  1.00  0.00     0.291 A  
HETATM   26  C   UNL     1      -6.713  12.626  70.379  1.00  0.00     0.939 A  
HETATM   27  C   UNL     1      -7.228   8.387  68.653  1.00  0.00    -0.080 C  
ENDBRANCH  10  11
ENDBRANCH   9  10
ENDBRANCH   8   9
TORSDOF 3
ENDMDL
MODEL      236
REMARK 921   NORMALIZED FREE ENERGY PREDICTED BY IDOCK:   39.34 KCAL/MOL
REMARK 922        TOTAL FREE ENERGY PREDICTED BY IDOCK:   45.79 KCAL/MOL
REMARK 923 INTER-LIGAND FREE ENERGY PREDICTED BY IDOCK:   42.49 KCAL/MOL
REMARK 924 INTRA-LIGAND FREE ENERGY PREDICTED BY IDOCK:    3.30 KCAL/MOL
REMARK 927      BINDING AFFINITY PREDICTED BY RF-SCORE:    0.00 PKD
ROOT
HETATM    1  C   UNL     1     -10.654  18.333  68.504  1.00  0.00    -0.087 C  
HETATM    2  N   UNL     1     -11.891  18.451  67.748  1.00  0.00     1.714 NA 
HETATM    3  C   UNL     1     -12.166  19.768  67.207  1.00  0.00     3.016 C  
HETATM    4  C   UNL     1     -13.434  19.880  66.390  1.00  0.00     8.900 C  
HETATM    5  C   UNL     1     -14.357  18.684  66.345  1.00  0.00    14.593 C  
HETATM    6  N   UNL     1     -13.925  17.490  67.040  1.00  0.00     9.697 NA 
HETATM    7  H   UNL     1     -14.536  16.674  67.041  1.00  0.00     0.000 HD 
HETATM    8  C   UNL     1     -12.803  17.418  67.656  1.00  0.00     5.521 C  
ENDROOT
BRANCH   8   9
HETATM    9  C   UNL     1     -12.486  16.062  68.370  1.00  0.00     1.085 C  
BRANCH   9  10
HETATM   10  O   UNL     1     -11.647  16.084  69.521  1.00  0.00    -0.330 OA 
BRANCH  10  11
HETATM   11  C   UNL     1     -11.132  14.865  69.899  1.00  0.00    -0.259 C  
HETATM   12  C   UNL     1     -10.274  14.281  68.721  1.00  0.00    -0.226 C  
HETATM   13  O   UNL     1     -11.310  14.346  70.995  1.00  0.00    -0.115 OA 
HETATM   14  C   UNL     1     -10.459  12.745  68.681  1.00  0.00    -0.230 A  
HETATM   15  O   UNL     1     -10.771  14.780  67.472  1.00  0.00    -0.260 OA 
HETATM   16  C   UNL     1      -8.785  14.775  68.915  1.00  0.00    -0.161 C  
HETATM   17  C   UNL     1      -7.762  14.219  67.902  1.00  0.00    -0.157 C  
HETATM   18  C   UNL     1     -11.454  12.162  67.866  1.00  0.00    -0.392 A  
HETATM   19  H   UNL     1     -10.252  14.427  66.759  1.00  0.00     0.000 HD 
HETATM   20  C   UNL     1      -7.858  14.852  66.516  1.00  0.00     0.598 C  
HETATM   21  C   UNL     1     -11.649  10.776  67.819  1.00  0.00    -0.155 A  
HETATM   22  C   UNL     1     -10.857   9.936  68.594  1.00  0.00    -0.244 A  
HETATM   23  C   UNL     1      -7.729  16.371  66.564  1.00  0.00    -0.295 C  
HETATM   24  C   UNL     1      -8.658  17.010  67.583  1.00  0.00    -0.213 C  
HETATM   25  C   UNL     1      -9.886  10.483  69.426  1.00  0.00    -0.205 A  
HETATM   26  C   UNL     1      -9.697  11.872  69.479  1.00  0.00     0.956 A  
HETATM   27  C   UNL     1      -8.595  16.311  68.935  1.00  0.00    -0.260 C  
ENDBRANCH  10  11
ENDBRANCH   9  10
ENDBRANCH   8   9
TORSDOF 3
ENDMDL
MODEL      237
REMARK 921   NORMALIZED FREE ENERGY PREDICTED BY IDOCK:   51.80 KCAL/MOL
REMARK 922        TOTAL FREE ENERGY PREDICTED BY IDOCK:   60.44 KCAL/MOL
REMARK 923 INTER-LIGAND FREE ENERGY PREDICTED BY IDOCK:   19.57 KCAL/MOL
REMARK 924 INTRA-LIGAND FREE ENERGY PREDICTED BY IDOCK:   40.87 KCAL/MOL
REMARK 927      BINDING AFFINITY PREDICTED BY RF-SCORE:    0.00 PKD
ROOT
HETATM    1  C   UNL     1      -8.269  13.287  65.078  1.00  0.00     4.792 C  
HETATM    2  N   UNL     1      -8.777  12.750  66.330  1.00  0.00     0.027 NA 
HETATM    3  C   UNL     1      -9.784  11.715  66.199  1.00  0.00    -0.229 C  
HETATM    4  C   UNL     1     -10.284  11.131  67.502  1.00  0.00    -0.216 C  
HETATM    5  C   UNL     1      -9.822  11.771  68.791  1.00  0.00    -0.087 C  
HETATM    6  N   UNL     1      -8.877  12.863  68.683  1.00  0.00    -0.375 NA 
HETATM    7  H   UNL     1      -8.561  13.324  69.536  1.00  0.00     0.000 HD 
HETATM    8  C   UNL     1      -8.421  13.272  67.558  1.00  0.00    -0.202 C  
ENDROOT
BRANCH   8   9
HETATM    9  C   UNL     1      -7.416  14.471  67.608  1.00  0.00    -0.177 C  
BRANCH   9  10
HETATM   10  O   UNL     1      -7.885  15.727  68.088  1.00  0.00    -0.128 OA 
BRANCH  10  11
HETATM   11  C   UNL     1      -8.551  15.686  69.292  1.00  0.00    -0.262 C  
HETATM   12  C   UNL     1      -8.916  14.197  69.628  1.00  0.00     0.889 C  
HETATM   13  O   UNL     1      -8.792  16.668  69.985  1.00  0.00     0.862 OA 
HETATM   14  C   UNL     1     -10.296  14.166  70.327  1.00  0.00     1.048 A  
HETATM   15  O   UNL     1      -9.063  13.452  68.411  1.00  0.00    -0.216 OA 
HETATM   16  C   UNL     1      -7.723  13.583  70.465  1.00  0.00     2.993 C  
HETATM   17  C   UNL     1      -7.941  12.144  70.978  1.00  0.00     7.925 C  
HETATM   18  C   UNL     1     -11.479  13.985  69.576  1.00  0.00    -0.331 A  
HETATM   19  H   UNL     1      -9.284  12.551  68.615  1.00  0.00     0.000 HD 
HETATM   20  C   UNL     1      -7.814  11.076  69.894  1.00  0.00     0.559 C  
HETATM   21  C   UNL     1     -12.741  13.963  70.182  1.00  0.00    -0.182 A  
HETATM   22  C   UNL     1     -12.854  14.128  71.558  1.00  0.00    -0.430 A  
HETATM   23  C   UNL     1      -6.474  11.143  69.170  1.00  0.00    -0.074 C  
HETATM   24  C   UNL     1      -6.139  12.542  68.679  1.00  0.00    -0.066 C  
HETATM   25  C   UNL     1     -11.709  14.334  72.321  1.00  0.00     0.552 A  
HETATM   26  C   UNL     1     -10.446  14.364  71.712  1.00  0.00     2.996 A  
HETATM   27  C   UNL     1      -6.346  13.596  69.759  1.00  0.00    -0.096 C  
ENDBRANCH  10  11
ENDBRANCH   9  10
ENDBRANCH   8   9
TORSDOF 3
ENDMDL
