MODEL        1
REMARK 921   NORMALIZED FREE ENERGY PREDICTED BY IDOCK:   -7.74 KCAL/MOL
REMARK 922        TOTAL FREE ENERGY PREDICTED BY IDOCK:   -9.78 KCAL/MOL
REMARK 923 INTER-LIGAND FREE ENERGY PREDICTED BY IDOCK:   -9.10 KCAL/MOL
REMARK 924 INTRA-LIGAND FREE ENERGY PREDICTED BY IDOCK:   -0.68 KCAL/MOL
REMARK 927      BINDING AFFINITY PREDICTED BY RF-SCORE:    0.00 PKD
ROOT
HETATM    1  C   UNL     1     -10.282   6.138  74.207  1.00  0.00    -0.312 C  
HETATM    2  N   UNL     1      -9.785   7.495  74.054  1.00  0.00    -0.399 NA 
HETATM    3  H   UNL     1      -9.258   7.974  74.784  1.00  0.00     0.000 HD 
ENDROOT
BRANCH   2   4
HETATM    4  C   UNL     1     -10.086   8.095  72.820  1.00  0.00    -0.297 A  
HETATM    5  N   UNL     1     -11.372   8.289  72.472  1.00  0.00    -0.391 NA 
HETATM    6  C   UNL     1     -11.638   8.937  71.307  1.00  0.00    -0.304 A  
HETATM    7  C   UNL     1     -10.692   9.378  70.387  1.00  0.00    -0.317 A  
HETATM    8  C   UNL     1      -7.609   8.459  72.439  1.00  0.00    -0.138 C  
HETATM    9  C   UNL     1      -9.364   9.122  70.761  1.00  0.00    -0.325 A  
HETATM   10  C   UNL     1      -9.045   8.537  72.000  1.00  0.00    -0.317 A  
BRANCH   7  11
HETATM   11  C   UNL     1     -11.041  10.189  69.178  1.00  0.00    -0.257 A  
HETATM   12  C   UNL     1     -11.031  10.300  66.734  1.00  0.00    -0.082 A  
HETATM   13  C   UNL     1     -10.766   9.624  67.916  1.00  0.00    -0.302 A  
HETATM   14  C   UNL     1     -11.464  11.621  66.783  1.00  0.00    -0.299 A  
HETATM   15  C   UNL     1     -11.719  12.300  65.496  1.00  0.00    -0.377 C  
HETATM   16  C   UNL     1     -12.003  13.737  65.512  1.00  0.00    -0.404 C  
HETATM   17  O   UNL     1     -11.693  11.691  64.428  1.00  0.00    -0.257 OA 
HETATM   18  C   UNL     1     -12.055  14.328  66.717  1.00  0.00    -0.417 C  
HETATM   19  C   UNL     1     -12.197  14.540  64.286  1.00  0.00    -0.415 C  
HETATM   20  O   UNL     1     -12.175  13.829  63.140  1.00  0.00    -0.609 OA 
HETATM   21  O   UNL     1     -12.376  15.748  64.297  1.00  0.00    -0.465 OA 
HETATM   22  N   UNL     1     -11.934  13.718  67.961  1.00  0.00    -0.371 NA 
HETATM   23  C   UNL     1     -11.666  12.296  68.008  1.00  0.00    -0.356 A  
HETATM   24  C   UNL     1     -12.218  12.030  70.477  1.00  0.00    -0.414 C  
HETATM   25  C   UNL     1     -11.591  11.515  69.203  1.00  0.00    -0.382 A  
BRANCH  22  26
HETATM   26  C   UNL     1     -11.514  14.604  69.091  1.00  0.00    -0.294 C  
HETATM   27  C   UNL     1     -11.210  16.066  68.854  1.00  0.00    -0.353 C  
HETATM   28  C   UNL     1     -10.119  15.158  69.311  1.00  0.00    -0.246 C  
ENDBRANCH  22  26
ENDBRANCH   7  11
ENDBRANCH   2   4
TORSDOF 3
ENDMDL
MODEL        2
REMARK 921   NORMALIZED FREE ENERGY PREDICTED BY IDOCK:   -7.73 KCAL/MOL
REMARK 922        TOTAL FREE ENERGY PREDICTED BY IDOCK:   -9.77 KCAL/MOL
REMARK 923 INTER-LIGAND FREE ENERGY PREDICTED BY IDOCK:   -8.89 KCAL/MOL
REMARK 924 INTRA-LIGAND FREE ENERGY PREDICTED BY IDOCK:   -0.88 KCAL/MOL
REMARK 927      BINDING AFFINITY PREDICTED BY RF-SCORE:    0.00 PKD
ROOT
HETATM    1  C   UNL     1     -11.110   6.253  72.551  1.00  0.00    -0.272 C  
HETATM    2  N   UNL     1     -11.617   7.503  73.094  1.00  0.00    -0.602 NA 
HETATM    3  H   UNL     1     -11.923   7.598  74.063  1.00  0.00     0.000 HD 
ENDROOT
BRANCH   2   4
HETATM    4  C   UNL     1     -11.651   8.569  72.180  1.00  0.00    -0.377 A  
HETATM    5  N   UNL     1     -10.530   8.916  71.521  1.00  0.00    -0.295 NA 
HETATM    6  C   UNL     1     -10.605   9.903  70.589  1.00  0.00    -0.271 A  
HETATM    7  C   UNL     1     -11.738  10.650  70.284  1.00  0.00    -0.433 A  
HETATM    8  C   UNL     1     -14.151   8.745  72.545  1.00  0.00    -0.421 C  
HETATM    9  C   UNL     1     -12.879  10.290  71.019  1.00  0.00    -0.490 A  
HETATM   10  C   UNL     1     -12.865   9.214  71.926  1.00  0.00    -0.466 A  
BRANCH   7  11
HETATM   11  C   UNL     1     -11.788  11.644  69.166  1.00  0.00    -0.390 A  
HETATM   12  C   UNL     1     -11.900  11.973  66.745  1.00  0.00    -0.244 A  
HETATM   13  C   UNL     1     -11.869  11.139  67.852  1.00  0.00    -0.162 A  
HETATM   14  C   UNL     1     -11.721  13.343  66.913  1.00  0.00    -0.434 A  
HETATM   15  C   UNL     1     -11.748  14.185  65.700  1.00  0.00    -0.357 C  
HETATM   16  C   UNL     1     -11.387  15.600  65.828  1.00  0.00     0.023 C  
HETATM   17  O   UNL     1     -12.059  13.727  64.601  1.00  0.00    -0.386 OA 
HETATM   18  C   UNL     1     -11.098  16.039  67.063  1.00  0.00    -0.071 C  
HETATM   19  C   UNL     1     -11.303  16.522  64.676  1.00  0.00    -0.069 C  
HETATM   20  O   UNL     1     -11.666  15.982  63.495  1.00  0.00    -0.433 OA 
HETATM   21  O   UNL     1     -10.945  17.686  64.775  1.00  0.00    -0.917 OA 
HETATM   22  N   UNL     1     -11.165  15.319  68.251  1.00  0.00    -0.299 NA 
HETATM   23  C   UNL     1     -11.529  13.919  68.189  1.00  0.00    -0.312 A  
HETATM   24  C   UNL     1     -11.970  13.676  70.683  1.00  0.00    -0.328 C  
HETATM   25  C   UNL     1     -11.714  13.069  69.323  1.00  0.00    -0.375 A  
BRANCH  22  26
HETATM   26  C   UNL     1     -10.329  15.833  69.381  1.00  0.00    -0.263 C  
HETATM   27  C   UNL     1      -9.239  16.851  69.134  1.00  0.00    -0.105 C  
HETATM   28  C   UNL     1      -8.872  15.495  69.630  1.00  0.00    -0.140 C  
ENDBRANCH  22  26
ENDBRANCH   7  11
ENDBRANCH   2   4
TORSDOF 3
ENDMDL
MODEL        3
REMARK 921   NORMALIZED FREE ENERGY PREDICTED BY IDOCK:   -7.68 KCAL/MOL
REMARK 922        TOTAL FREE ENERGY PREDICTED BY IDOCK:   -9.70 KCAL/MOL
REMARK 923 INTER-LIGAND FREE ENERGY PREDICTED BY IDOCK:   -9.13 KCAL/MOL
REMARK 924 INTRA-LIGAND FREE ENERGY PREDICTED BY IDOCK:   -0.58 KCAL/MOL
REMARK 927      BINDING AFFINITY PREDICTED BY RF-SCORE:    0.00 PKD
ROOT
HETATM    1  C   UNL     1     -10.917   4.968  72.613  1.00  0.00    -0.216 C  
HETATM    2  N   UNL     1     -12.036   5.847  72.907  1.00  0.00    -0.491 NA 
HETATM    3  H   UNL     1     -12.819   5.564  73.497  1.00  0.00     0.000 HD 
ENDROOT
BRANCH   2   4
HETATM    4  C   UNL     1     -11.957   7.119  72.314  1.00  0.00    -0.218 A  
HETATM    5  N   UNL     1     -10.770   7.751  72.255  1.00  0.00    -0.248 NA 
HETATM    6  C   UNL     1     -10.704   8.948  71.613  1.00  0.00    -0.347 A  
HETATM    7  C   UNL     1     -11.777   9.629  71.049  1.00  0.00    -0.433 A  
HETATM    8  C   UNL     1     -14.398   6.925  71.670  1.00  0.00    -0.382 C  
HETATM    9  C   UNL     1     -13.006   8.960  71.165  1.00  0.00    -0.160 A  
HETATM   10  C   UNL     1     -13.100   7.680  71.740  1.00  0.00    -0.359 A  
BRANCH   7  11
HETATM   11  C   UNL     1     -11.623  10.887  70.253  1.00  0.00    -0.426 A  
HETATM   12  C   UNL     1     -10.670  11.919  68.250  1.00  0.00    -0.253 A  
HETATM   13  C   UNL     1     -10.890  10.809  69.051  1.00  0.00    -0.278 A  
HETATM   14  C   UNL     1     -11.072  13.175  68.695  1.00  0.00    -0.304 A  
HETATM   15  C   UNL     1     -10.802  14.326  67.809  1.00  0.00    -0.253 C  
HETATM   16  C   UNL     1     -11.052  15.674  68.327  1.00  0.00    -0.336 C  
HETATM   17  O   UNL     1     -10.374  14.177  66.667  1.00  0.00    -0.270 OA 
HETATM   18  C   UNL     1     -11.557  15.760  69.568  1.00  0.00    -0.363 C  
HETATM   19  C   UNL     1     -10.748  16.904  67.566  1.00  0.00    -0.270 C  
HETATM   20  O   UNL     1     -10.295  16.693  66.314  1.00  0.00    -0.311 OA 
HETATM   21  O   UNL     1     -10.902  18.028  68.020  1.00  0.00    -0.336 OA 
HETATM   22  N   UNL     1     -11.933  14.710  70.400  1.00  0.00    -0.291 NA 
HETATM   23  C   UNL     1     -11.721  13.354  69.937  1.00  0.00    -0.267 A  
HETATM   24  C   UNL     1     -13.186  12.266  71.709  1.00  0.00    -0.428 C  
HETATM   25  C   UNL     1     -12.123  12.176  70.640  1.00  0.00    -0.344 A  
BRANCH  22  26
HETATM   26  C   UNL     1     -11.969  15.011  71.865  1.00  0.00    -0.382 C  
HETATM   27  C   UNL     1     -13.199  15.621  72.498  1.00  0.00    -0.583 C  
HETATM   28  C   UNL     1     -11.924  16.393  72.487  1.00  0.00    -0.579 C  
ENDBRANCH  22  26
ENDBRANCH   7  11
ENDBRANCH   2   4
TORSDOF 3
ENDMDL
MODEL        4
REMARK 921   NORMALIZED FREE ENERGY PREDICTED BY IDOCK:   -7.65 KCAL/MOL
REMARK 922        TOTAL FREE ENERGY PREDICTED BY IDOCK:   -9.67 KCAL/MOL
REMARK 923 INTER-LIGAND FREE ENERGY PREDICTED BY IDOCK:   -8.75 KCAL/MOL
REMARK 924 INTRA-LIGAND FREE ENERGY PREDICTED BY IDOCK:   -0.92 KCAL/MOL
REMARK 927      BINDING AFFINITY PREDICTED BY RF-SCORE:    0.00 PKD
ROOT
HETATM    1  C   UNL     1      -8.002   7.647  74.226  1.00  0.00    -0.194 C  
HETATM    2  N   UNL     1      -9.080   7.083  73.431  1.00  0.00    -0.138 NA 
HETATM    3  H   UNL     1      -9.465   6.154  73.605  1.00  0.00     0.000 HD 
ENDROOT
BRANCH   2   4
HETATM    4  C   UNL     1      -9.551   7.917  72.404  1.00  0.00    -0.210 A  
HETATM    5  N   UNL     1      -8.722   8.821  71.849  1.00  0.00    -0.351 NA 
HETATM    6  C   UNL     1      -9.178   9.567  70.808  1.00  0.00    -0.128 A  
HETATM    7  C   UNL     1     -10.466   9.531  70.284  1.00  0.00    -0.319 A  
HETATM    8  C   UNL     1     -11.745   6.653  72.440  1.00  0.00    -0.260 C  
HETATM    9  C   UNL     1     -11.316   8.607  70.913  1.00  0.00    -0.314 A  
HETATM   10  C   UNL     1     -10.855   7.753  71.932  1.00  0.00    -0.281 A  
BRANCH   7  11
HETATM   11  C   UNL     1     -10.875  10.292  69.062  1.00  0.00    -0.265 A  
HETATM   12  C   UNL     1     -10.897  10.347  66.617  1.00  0.00    -0.140 A  
HETATM   13  C   UNL     1     -10.580   9.716  67.810  1.00  0.00    -0.320 A  
HETATM   14  C   UNL     1     -11.409  11.641  66.641  1.00  0.00    -0.338 A  
HETATM   15  C   UNL     1     -11.717  12.273  65.342  1.00  0.00    -0.370 C  
HETATM   16  C   UNL     1     -12.087  13.691  65.330  1.00  0.00    -0.429 C  
HETATM   17  O   UNL     1     -11.665  11.643  64.287  1.00  0.00    -0.281 OA 
HETATM   18  C   UNL     1     -12.162  14.305  66.521  1.00  0.00    -0.391 C  
HETATM   19  C   UNL     1     -12.342  14.452  64.088  1.00  0.00    -0.307 C  
HETATM   20  O   UNL     1     -12.289  13.718  62.958  1.00  0.00    -0.661 OA 
HETATM   21  O   UNL     1     -12.592  15.648  64.074  1.00  0.00    -0.632 OA 
HETATM   22  N   UNL     1     -11.992  13.732  67.777  1.00  0.00    -0.370 NA 
HETATM   23  C   UNL     1     -11.637  12.330  67.853  1.00  0.00    -0.354 A  
HETATM   24  C   UNL     1     -12.147  12.089  70.334  1.00  0.00    -0.407 C  
HETATM   25  C   UNL     1     -11.504  11.583  69.064  1.00  0.00    -0.355 A  
BRANCH  22  26
HETATM   26  C   UNL     1     -11.613  14.668  68.882  1.00  0.00    -0.310 C  
HETATM   27  C   UNL     1     -11.164  16.079  68.579  1.00  0.00    -0.374 C  
HETATM   28  C   UNL     1     -10.206  15.128  69.211  1.00  0.00    -0.251 C  
ENDBRANCH  22  26
ENDBRANCH   7  11
ENDBRANCH   2   4
TORSDOF 3
ENDMDL
MODEL        5
REMARK 921   NORMALIZED FREE ENERGY PREDICTED BY IDOCK:   -7.36 KCAL/MOL
REMARK 922        TOTAL FREE ENERGY PREDICTED BY IDOCK:   -9.33 KCAL/MOL
REMARK 923 INTER-LIGAND FREE ENERGY PREDICTED BY IDOCK:   -8.86 KCAL/MOL
REMARK 924 INTRA-LIGAND FREE ENERGY PREDICTED BY IDOCK:   -0.48 KCAL/MOL
REMARK 927      BINDING AFFINITY PREDICTED BY RF-SCORE:    0.00 PKD
ROOT
HETATM    1  C   UNL     1      -6.984  18.898  65.708  1.00  0.00    -0.261 C  
HETATM    2  N   UNL     1      -8.408  19.159  65.840  1.00  0.00    -0.440 NA 
HETATM    3  H   UNL     1      -8.843  20.020  65.509  1.00  0.00     0.000 HD 
ENDROOT
BRANCH   2   4
HETATM    4  C   UNL     1      -9.138  18.132  66.462  1.00  0.00    -0.276 A  
HETATM    5  N   UNL     1      -8.911  16.851  66.114  1.00  0.00    -0.463 NA 
HETATM    6  C   UNL     1      -9.577  15.871  66.779  1.00  0.00    -0.236 A  
HETATM    7  C   UNL     1     -10.537  16.065  67.767  1.00  0.00    -0.309 A  
HETATM    8  C   UNL     1     -10.203  19.861  67.974  1.00  0.00    -0.572 C  
HETATM    9  C   UNL     1     -10.779  17.413  68.075  1.00  0.00    -0.359 A  
HETATM   10  C   UNL     1     -10.045  18.452  67.475  1.00  0.00    -0.373 A  
BRANCH   7  11
HETATM   11  C   UNL     1     -11.150  14.944  68.545  1.00  0.00    -0.275 A  
HETATM   12  C   UNL     1     -11.994  14.203  70.718  1.00  0.00    -0.377 A  
HETATM   13  C   UNL     1     -11.444  15.180  69.903  1.00  0.00    -0.315 A  
HETATM   14  C   UNL     1     -12.150  12.910  70.228  1.00  0.00    -0.377 A  
HETATM   15  C   UNL     1     -12.728  11.903  71.141  1.00  0.00    -0.284 C  
HETATM   16  C   UNL     1     -12.739  10.501  70.713  1.00  0.00    -0.471 C  
HETATM   17  O   UNL     1     -13.189  12.213  72.238  1.00  0.00    -0.460 OA 
HETATM   18  C   UNL     1     -12.257  10.242  69.487  1.00  0.00     0.110 C  
HETATM   19  C   UNL     1     -13.219   9.396  71.568  1.00  0.00    -0.384 C  
HETATM   20  O   UNL     1     -13.728   9.783  72.755  1.00  0.00    -0.154 OA 
HETATM   21  O   UNL     1     -13.173   8.221  71.234  1.00  0.00    -0.249 OA 
HETATM   22  N   UNL     1     -11.805  11.161  68.546  1.00  0.00    -0.525 NA 
HETATM   23  C   UNL     1     -11.783  12.563  68.908  1.00  0.00    -0.322 A  
HETATM   24  C   UNL     1     -11.455  13.417  66.534  1.00  0.00    -0.372 C  
HETATM   25  C   UNL     1     -11.421  13.631  68.029  1.00  0.00    -0.345 A  
BRANCH  22  26
HETATM   26  C   UNL     1     -10.866  10.634  67.508  1.00  0.00    -0.296 C  
HETATM   27  C   UNL     1     -10.591   9.152  67.396  1.00  0.00    -0.315 C  
HETATM   28  C   UNL     1      -9.481  10.074  67.769  1.00  0.00    -0.157 C  
ENDBRANCH  22  26
ENDBRANCH   7  11
ENDBRANCH   2   4
TORSDOF 3
ENDMDL
MODEL        6
REMARK 921   NORMALIZED FREE ENERGY PREDICTED BY IDOCK:   -7.35 KCAL/MOL
REMARK 922        TOTAL FREE ENERGY PREDICTED BY IDOCK:   -9.32 KCAL/MOL
REMARK 923 INTER-LIGAND FREE ENERGY PREDICTED BY IDOCK:   -8.79 KCAL/MOL
REMARK 924 INTRA-LIGAND FREE ENERGY PREDICTED BY IDOCK:   -0.52 KCAL/MOL
REMARK 927      BINDING AFFINITY PREDICTED BY RF-SCORE:    0.00 PKD
ROOT
HETATM    1  C   UNL     1      -6.739  19.750  65.485  1.00  0.00    -0.287 C  
HETATM    2  N   UNL     1      -8.155  20.026  65.664  1.00  0.00    -0.503 NA 
HETATM    3  H   UNL     1      -8.584  20.907  65.380  1.00  0.00     0.000 HD 
ENDROOT
BRANCH   2   4
HETATM    4  C   UNL     1      -8.885  18.984  66.259  1.00  0.00    -0.277 A  
HETATM    5  N   UNL     1      -8.597  17.707  65.946  1.00  0.00    -0.528 NA 
HETATM    6  C   UNL     1      -9.268  16.715  66.588  1.00  0.00    -0.253 A  
HETATM    7  C   UNL     1     -10.290  16.891  67.516  1.00  0.00    -0.318 A  
HETATM    8  C   UNL     1     -10.093  20.698  67.679  1.00  0.00    -0.323 C  
HETATM    9  C   UNL     1     -10.593  18.234  67.788  1.00  0.00    -0.415 A  
HETATM   10  C   UNL     1      -9.859  19.289  67.213  1.00  0.00    -0.425 A  
BRANCH   7  11
HETATM   11  C   UNL     1     -10.910  15.761  68.276  1.00  0.00    -0.305 A  
HETATM   12  C   UNL     1     -11.767  14.993  70.435  1.00  0.00    -0.336 A  
HETATM   13  C   UNL     1     -11.210  15.980  69.636  1.00  0.00    -0.336 A  
HETATM   14  C   UNL     1     -11.924  13.708  69.926  1.00  0.00    -0.415 A  
HETATM   15  C   UNL     1     -12.510  12.690  70.823  1.00  0.00    -0.270 C  
HETATM   16  C   UNL     1     -12.522  11.294  70.375  1.00  0.00    -0.355 C  
HETATM   17  O   UNL     1     -12.974  12.987  71.922  1.00  0.00    -0.353 OA 
HETATM   18  C   UNL     1     -12.035  11.050  69.149  1.00  0.00    -0.324 C  
HETATM   19  C   UNL     1     -13.009  10.179  71.214  1.00  0.00    -0.413 C  
HETATM   20  O   UNL     1     -13.523  10.552  72.404  1.00  0.00    -0.258 OA 
HETATM   21  O   UNL     1     -12.965   9.009  70.864  1.00  0.00    -0.103 OA 
HETATM   22  N   UNL     1     -11.576  11.980  68.223  1.00  0.00    -0.312 NA 
HETATM   23  C   UNL     1     -11.552  13.377  68.604  1.00  0.00    -0.327 A  
HETATM   24  C   UNL     1     -11.209  14.262  66.243  1.00  0.00    -0.337 C  
HETATM   25  C   UNL     1     -11.182  14.456  67.741  1.00  0.00    -0.316 A  
BRANCH  22  26
HETATM   26  C   UNL     1     -10.633  11.465  67.182  1.00  0.00    -0.243 C  
HETATM   27  C   UNL     1     -10.395   9.980  67.022  1.00  0.00    -0.305 C  
HETATM   28  C   UNL     1      -9.268  10.859  67.446  1.00  0.00    -0.155 C  
ENDBRANCH  22  26
ENDBRANCH   7  11
ENDBRANCH   2   4
TORSDOF 3
ENDMDL
MODEL        7
REMARK 921   NORMALIZED FREE ENERGY PREDICTED BY IDOCK:   -7.34 KCAL/MOL
REMARK 922        TOTAL FREE ENERGY PREDICTED BY IDOCK:   -9.30 KCAL/MOL
REMARK 923 INTER-LIGAND FREE ENERGY PREDICTED BY IDOCK:   -8.52 KCAL/MOL
REMARK 924 INTRA-LIGAND FREE ENERGY PREDICTED BY IDOCK:   -0.78 KCAL/MOL
REMARK 927      BINDING AFFINITY PREDICTED BY RF-SCORE:    0.00 PKD
ROOT
HETATM    1  C   UNL     1      -6.676  20.862  67.407  1.00  0.00    -0.367 C  
HETATM    2  N   UNL     1      -7.982  20.594  66.828  1.00  0.00    -0.549 NA 
HETATM    3  H   UNL     1      -8.423  21.219  66.152  1.00  0.00     0.000 HD 
ENDROOT
BRANCH   2   4
HETATM    4  C   UNL     1      -8.590  19.409  67.272  1.00  0.00    -0.296 A  
HETATM    5  N   UNL     1      -7.979  18.659  68.209  1.00  0.00    -0.302 NA 
HETATM    6  C   UNL     1      -8.620  17.555  68.676  1.00  0.00    -0.259 A  
HETATM    7  C   UNL     1      -9.847  17.077  68.229  1.00  0.00    -0.278 A  
HETATM    8  C   UNL     1     -10.607  19.956  65.843  1.00  0.00    -0.523 C  
HETATM    9  C   UNL     1     -10.436  17.859  67.223  1.00  0.00    -0.373 A  
HETATM   10  C   UNL     1      -9.849  19.058  66.779  1.00  0.00    -0.395 A  
BRANCH   7  11
HETATM   11  C   UNL     1     -10.556  15.921  68.863  1.00  0.00    -0.244 A  
HETATM   12  C   UNL     1     -11.834  15.135  70.795  1.00  0.00    -0.371 A  
HETATM   13  C   UNL     1     -11.169  16.143  70.113  1.00  0.00    -0.374 A  
HETATM   14  C   UNL     1     -11.796  13.834  70.303  1.00  0.00    -0.342 A  
HETATM   15  C   UNL     1     -12.509  12.795  71.075  1.00  0.00    -0.277 C  
HETATM   16  C   UNL     1     -12.338  11.395  70.678  1.00  0.00    -0.466 C  
HETATM   17  O   UNL     1     -13.228  13.080  72.031  1.00  0.00    -0.438 OA 
HETATM   18  C   UNL     1     -11.571  11.163  69.601  1.00  0.00    -0.326 C  
HETATM   19  C   UNL     1     -12.936  10.264  71.418  1.00  0.00    -0.440 C  
HETATM   20  O   UNL     1     -13.727  10.622  72.449  1.00  0.00    -0.093 OA 
HETATM   21  O   UNL     1     -12.745   9.094  71.122  1.00  0.00    -0.295 OA 
HETATM   22  N   UNL     1     -10.969  12.106  68.774  1.00  0.00    -0.224 NA 
HETATM   23  C   UNL     1     -11.115  13.507  69.109  1.00  0.00    -0.225 A  
HETATM   24  C   UNL     1     -10.298  14.375  66.861  1.00  0.00    -0.265 C  
HETATM   25  C   UNL     1     -10.623  14.593  68.320  1.00  0.00    -0.235 A  
BRANCH  22  26
HETATM   26  C   UNL     1      -9.786  11.635  67.989  1.00  0.00    -0.182 C  
HETATM   27  C   UNL     1      -9.945  10.603  66.896  1.00  0.00    -0.245 C  
HETATM   28  C   UNL     1      -9.134  10.270  68.102  1.00  0.00    -0.136 C  
ENDBRANCH  22  26
ENDBRANCH   7  11
ENDBRANCH   2   4
TORSDOF 3
ENDMDL
MODEL        8
REMARK 921   NORMALIZED FREE ENERGY PREDICTED BY IDOCK:   -7.29 KCAL/MOL
REMARK 922        TOTAL FREE ENERGY PREDICTED BY IDOCK:   -9.25 KCAL/MOL
REMARK 923 INTER-LIGAND FREE ENERGY PREDICTED BY IDOCK:   -8.44 KCAL/MOL
REMARK 924 INTRA-LIGAND FREE ENERGY PREDICTED BY IDOCK:   -0.81 KCAL/MOL
REMARK 927      BINDING AFFINITY PREDICTED BY RF-SCORE:    0.00 PKD
ROOT
HETATM    1  C   UNL     1      -9.549   2.614  71.093  1.00  0.00    -0.150 C  
HETATM    2  N   UNL     1      -9.534   3.522  69.958  1.00  0.00    -0.184 NA 
HETATM    3  H   UNL     1      -9.126   3.271  69.057  1.00  0.00     0.000 HD 
ENDROOT
BRANCH   2   4
HETATM    4  C   UNL     1     -10.125   4.773  70.199  1.00  0.00    -0.240 A  
HETATM    5  N   UNL     1     -10.181   5.251  71.456  1.00  0.00    -0.205 NA 
HETATM    6  C   UNL     1     -10.692   6.495  71.655  1.00  0.00    -0.230 A  
HETATM    7  C   UNL     1     -11.231   7.320  70.674  1.00  0.00    -0.300 A  
HETATM    8  C   UNL     1     -10.405   5.075  67.700  1.00  0.00    -0.131 C  
HETATM    9  C   UNL     1     -11.194   6.774  69.381  1.00  0.00    -0.288 A  
HETATM   10  C   UNL     1     -10.591   5.530  69.121  1.00  0.00    -0.300 A  
BRANCH   7  11
HETATM   11  C   UNL     1     -11.671   8.726  70.936  1.00  0.00    -0.299 A  
HETATM   12  C   UNL     1     -13.315  10.169  72.031  1.00  0.00    -0.492 A  
HETATM   13  C   UNL     1     -12.812   8.909  71.743  1.00  0.00    -0.419 A  
HETATM   14  C   UNL     1     -12.762  11.285  71.411  1.00  0.00    -0.501 A  
HETATM   15  C   UNL     1     -13.344  12.603  71.741  1.00  0.00    -0.310 C  
HETATM   16  C   UNL     1     -12.902  13.770  70.973  1.00  0.00    -0.376 C  
HETATM   17  O   UNL     1     -14.183  12.735  72.631  1.00  0.00    -0.420 OA 
HETATM   18  C   UNL     1     -11.956  13.558  70.045  1.00  0.00    -0.340 C  
HETATM   19  C   UNL     1     -13.466  15.123  71.158  1.00  0.00    -0.465 C  
HETATM   20  O   UNL     1     -14.371  15.224  72.153  1.00  0.00    -0.527 OA 
HETATM   21  O   UNL     1     -13.140  16.084  70.477  1.00  0.00    -0.292 OA 
HETATM   22  N   UNL     1     -11.296  12.364  69.770  1.00  0.00    -0.124 NA 
HETATM   23  C   UNL     1     -11.682  11.179  70.507  1.00  0.00    -0.293 A  
HETATM   24  C   UNL     1      -9.654   9.803  69.822  1.00  0.00    -0.256 C  
HETATM   25  C   UNL     1     -11.049   9.902  70.394  1.00  0.00    -0.382 A  
BRANCH  22  26
HETATM   26  C   UNL     1     -10.693  12.243  68.406  1.00  0.00    -0.234 C  
HETATM   27  C   UNL     1     -10.751  13.397  67.431  1.00  0.00    -0.269 C  
HETATM   28  C   UNL     1     -11.463  12.129  67.104  1.00  0.00    -0.413 C  
ENDBRANCH  22  26
ENDBRANCH   7  11
ENDBRANCH   2   4
TORSDOF 3
ENDMDL
MODEL        9
REMARK 921   NORMALIZED FREE ENERGY PREDICTED BY IDOCK:   -7.21 KCAL/MOL
REMARK 922        TOTAL FREE ENERGY PREDICTED BY IDOCK:   -9.16 KCAL/MOL
REMARK 923 INTER-LIGAND FREE ENERGY PREDICTED BY IDOCK:   -8.69 KCAL/MOL
REMARK 924 INTRA-LIGAND FREE ENERGY PREDICTED BY IDOCK:   -0.47 KCAL/MOL
REMARK 927      BINDING AFFINITY PREDICTED BY RF-SCORE:    0.00 PKD
ROOT
HETATM    1  C   UNL     1      -6.671  19.586  65.691  1.00  0.00    -0.275 C  
HETATM    2  N   UNL     1      -8.118  19.491  65.582  1.00  0.00    -0.370 NA 
HETATM    3  H   UNL     1      -8.687  20.221  65.152  1.00  0.00     0.000 HD 
ENDROOT
BRANCH   2   4
HETATM    4  C   UNL     1      -8.671  18.316  66.117  1.00  0.00    -0.094 A  
HETATM    5  N   UNL     1      -8.056  17.136  65.906  1.00  0.00    -0.507 NA 
HETATM    6  C   UNL     1      -8.571  16.024  66.493  1.00  0.00    -0.309 A  
HETATM    7  C   UNL     1      -9.731  15.969  67.260  1.00  0.00    -0.232 A  
HETATM    8  C   UNL     1     -10.433  19.721  67.272  1.00  0.00    -0.579 C  
HETATM    9  C   UNL     1     -10.369  17.209  67.424  1.00  0.00    -0.333 A  
HETATM   10  C   UNL     1      -9.818  18.398  66.909  1.00  0.00    -0.347 A  
BRANCH   7  11
HETATM   11  C   UNL     1     -10.182  14.736  67.977  1.00  0.00    -0.226 A  
HETATM   12  C   UNL     1     -10.493  12.313  67.852  1.00  0.00    -0.227 A  
HETATM   13  C   UNL     1     -10.083  13.511  67.287  1.00  0.00    -0.235 A  
HETATM   14  C   UNL     1     -11.137  12.323  69.086  1.00  0.00    -0.261 A  
HETATM   15  C   UNL     1     -11.566  11.021  69.638  1.00  0.00    -0.318 C  
HETATM   16  C   UNL     1     -12.399  11.018  70.844  1.00  0.00    -0.503 C  
HETATM   17  O   UNL     1     -11.245   9.957  69.110  1.00  0.00    -0.197 OA 
HETATM   18  C   UNL     1     -12.676  12.213  71.388  1.00  0.00    -0.263 C  
HETATM   19  C   UNL     1     -12.952   9.785  71.443  1.00  0.00    -0.395 C  
HETATM   20  O   UNL     1     -12.564   8.643  70.841  1.00  0.00    -0.133 OA 
HETATM   21  O   UNL     1     -13.695   9.787  72.413  1.00  0.00    -0.376 OA 
HETATM   22  N   UNL     1     -12.208  13.456  70.976  1.00  0.00    -0.304 NA 
HETATM   23  C   UNL     1     -11.369  13.521  69.797  1.00  0.00    -0.091 A  
HETATM   24  C   UNL     1     -10.570  15.902  70.203  1.00  0.00    -0.302 C  
HETATM   25  C   UNL     1     -10.751  14.708  69.295  1.00  0.00    -0.254 A  
BRANCH  22  26
HETATM   26  C   UNL     1     -13.030  14.638  71.384  1.00  0.00    -0.334 C  
HETATM   27  C   UNL     1     -13.183  15.006  72.843  1.00  0.00    -0.585 C  
HETATM   28  C   UNL     1     -14.383  14.583  72.066  1.00  0.00    -0.639 C  
ENDBRANCH  22  26
ENDBRANCH   7  11
ENDBRANCH   2   4
TORSDOF 3
ENDMDL
MODEL       10
REMARK 921   NORMALIZED FREE ENERGY PREDICTED BY IDOCK:   -7.10 KCAL/MOL
REMARK 922        TOTAL FREE ENERGY PREDICTED BY IDOCK:   -9.03 KCAL/MOL
REMARK 923 INTER-LIGAND FREE ENERGY PREDICTED BY IDOCK:   -8.69 KCAL/MOL
REMARK 924 INTRA-LIGAND FREE ENERGY PREDICTED BY IDOCK:   -0.34 KCAL/MOL
REMARK 927      BINDING AFFINITY PREDICTED BY RF-SCORE:    0.00 PKD
ROOT
HETATM    1  C   UNL     1     -10.201   5.687  73.975  1.00  0.00    -0.259 C  
HETATM    2  N   UNL     1     -11.334   5.749  73.066  1.00  0.00    -0.459 NA 
HETATM    3  H   UNL     1     -12.049   5.022  73.027  1.00  0.00     0.000 HD 
ENDROOT
BRANCH   2   4
HETATM    4  C   UNL     1     -11.367   6.890  72.247  1.00  0.00    -0.269 A  
HETATM    5  N   UNL     1     -11.676   8.085  72.784  1.00  0.00    -0.368 NA 
HETATM    6  C   UNL     1     -11.631   9.185  71.986  1.00  0.00    -0.301 A  
HETATM    7  C   UNL     1     -11.350   9.192  70.624  1.00  0.00    -0.323 A  
HETATM    8  C   UNL     1     -10.534   5.477  70.318  1.00  0.00    -0.365 C  
HETATM    9  C   UNL     1     -11.074   7.924  70.089  1.00  0.00    -0.204 A  
HETATM   10  C   UNL     1     -11.020   6.775  70.899  1.00  0.00    -0.303 A  
BRANCH   7  11
HETATM   11  C   UNL     1     -11.200  10.448  69.824  1.00  0.00    -0.353 A  
HETATM   12  C   UNL     1     -10.100  11.529  67.926  1.00  0.00    -0.202 A  
HETATM   13  C   UNL     1     -10.326  10.415  68.720  1.00  0.00    -0.213 A  
HETATM   14  C   UNL     1     -10.649  12.754  68.292  1.00  0.00    -0.251 A  
HETATM   15  C   UNL     1     -10.367  13.912  67.420  1.00  0.00    -0.252 C  
HETATM   16  C   UNL     1     -10.782  15.242  67.875  1.00  0.00    -0.275 C  
HETATM   17  O   UNL     1      -9.795  13.783  66.339  1.00  0.00    -0.282 OA 
HETATM   18  C   UNL     1     -11.436  15.302  69.046  1.00  0.00    -0.324 C  
HETATM   19  C   UNL     1     -10.487  16.483  67.128  1.00  0.00    -0.300 C  
HETATM   20  O   UNL     1      -9.872  16.293  65.943  1.00  0.00    -0.318 OA 
HETATM   21  O   UNL     1     -10.781  17.596  67.536  1.00  0.00    -0.358 OA 
HETATM   22  N   UNL     1     -11.825  14.236  69.850  1.00  0.00    -0.303 NA 
HETATM   23  C   UNL     1     -11.454  12.896  69.445  1.00  0.00    -0.260 A  
HETATM   24  C   UNL     1     -13.029  11.715  71.056  1.00  0.00    -0.227 C  
HETATM   25  C   UNL     1     -11.843  11.698  70.121  1.00  0.00    -0.428 A  
BRANCH  22  26
HETATM   26  C   UNL     1     -12.059  14.551  71.294  1.00  0.00    -0.354 C  
HETATM   27  C   UNL     1     -13.272  15.343  71.724  1.00  0.00    -0.544 C  
HETATM   28  C   UNL     1     -11.913  15.916  71.938  1.00  0.00    -0.588 C  
ENDBRANCH  22  26
ENDBRANCH   7  11
ENDBRANCH   2   4
TORSDOF 3
ENDMDL
MODEL       11
REMARK 921   NORMALIZED FREE ENERGY PREDICTED BY IDOCK:   -7.00 KCAL/MOL
REMARK 922        TOTAL FREE ENERGY PREDICTED BY IDOCK:   -8.91 KCAL/MOL
REMARK 923 INTER-LIGAND FREE ENERGY PREDICTED BY IDOCK:   -8.22 KCAL/MOL
REMARK 924 INTRA-LIGAND FREE ENERGY PREDICTED BY IDOCK:   -0.69 KCAL/MOL
REMARK 927      BINDING AFFINITY PREDICTED BY RF-SCORE:    0.00 PKD
ROOT
HETATM    1  C   UNL     1     -10.879   5.455  73.139  1.00  0.00    -0.285 C  
HETATM    2  N   UNL     1     -12.125   6.083  72.730  1.00  0.00    -0.520 NA 
HETATM    3  H   UNL     1     -13.032   5.629  72.838  1.00  0.00     0.000 HD 
ENDROOT
BRANCH   2   4
HETATM    4  C   UNL     1     -11.981   7.365  72.173  1.00  0.00    -0.270 A  
HETATM    5  N   UNL     1     -10.781   7.975  72.209  1.00  0.00    -0.271 NA 
HETATM    6  C   UNL     1     -10.650   9.183  71.600  1.00  0.00    -0.357 A  
HETATM    7  C   UNL     1     -11.669   9.897  70.981  1.00  0.00    -0.466 A  
HETATM    8  C   UNL     1     -14.376   7.234  71.361  1.00  0.00    -0.484 C  
HETATM    9  C   UNL     1     -12.916   9.251  70.998  1.00  0.00    -0.176 A  
HETATM   10  C   UNL     1     -13.072   7.961  71.536  1.00  0.00    -0.343 A  
BRANCH   7  11
HETATM   11  C   UNL     1     -11.437  11.169  70.226  1.00  0.00    -0.329 A  
HETATM   12  C   UNL     1     -11.781  13.590  70.171  1.00  0.00    -0.280 A  
HETATM   13  C   UNL     1     -11.925  12.361  70.797  1.00  0.00    -0.087 A  
HETATM   14  C   UNL     1     -11.254  13.645  68.884  1.00  0.00    -0.309 A  
HETATM   15  C   UNL     1     -11.135  14.977  68.256  1.00  0.00    -0.286 C  
HETATM   16  C   UNL     1     -10.752  15.048  66.843  1.00  0.00    -0.308 C  
HETATM   17  O   UNL     1     -11.353  16.011  68.886  1.00  0.00    -0.334 OA 
HETATM   18  C   UNL     1     -10.491  13.882  66.231  1.00  0.00    -0.287 C  
HETATM   19  C   UNL     1     -10.675  16.315  66.086  1.00  0.00    -0.197 C  
HETATM   20  O   UNL     1     -10.907  17.423  66.819  1.00  0.00    -0.154 OA 
HETATM   21  O   UNL     1     -10.413  16.368  64.894  1.00  0.00    -0.643 OA 
HETATM   22  N   UNL     1     -10.479  12.614  66.801  1.00  0.00    -0.239 NA 
HETATM   23  C   UNL     1     -10.837  12.483  68.198  1.00  0.00    -0.222 A  
HETATM   24  C   UNL     1      -9.964  10.106  68.446  1.00  0.00    -0.173 C  
HETATM   25  C   UNL     1     -10.798  11.263  68.943  1.00  0.00    -0.253 A  
BRANCH  22  26
HETATM   26  C   UNL     1     -10.674  11.466  65.860  1.00  0.00    -0.255 C  
HETATM   27  C   UNL     1      -9.577  11.056  64.904  1.00  0.00    -0.289 C  
HETATM   28  C   UNL     1     -10.865  11.574  64.360  1.00  0.00    -0.405 C  
ENDBRANCH  22  26
ENDBRANCH   7  11
ENDBRANCH   2   4
TORSDOF 3
ENDMDL
MODEL       12
REMARK 921   NORMALIZED FREE ENERGY PREDICTED BY IDOCK:   -7.00 KCAL/MOL
REMARK 922        TOTAL FREE ENERGY PREDICTED BY IDOCK:   -8.90 KCAL/MOL
REMARK 923 INTER-LIGAND FREE ENERGY PREDICTED BY IDOCK:   -8.33 KCAL/MOL
REMARK 924 INTRA-LIGAND FREE ENERGY PREDICTED BY IDOCK:   -0.58 KCAL/MOL
REMARK 927      BINDING AFFINITY PREDICTED BY RF-SCORE:    0.00 PKD
ROOT
HETATM    1  C   UNL     1     -11.841  15.738  64.314  1.00  0.00    -0.118 C  
HETATM    2  N   UNL     1     -12.547  14.495  64.575  1.00  0.00    -0.650 NA 
HETATM    3  H   UNL     1     -13.383  14.217  64.060  1.00  0.00     0.000 HD 
ENDROOT
BRANCH   2   4
HETATM    4  C   UNL     1     -11.988  13.705  65.594  1.00  0.00    -0.395 A  
HETATM    5  N   UNL     1     -11.915  14.191  66.847  1.00  0.00    -0.433 NA 
HETATM    6  C   UNL     1     -11.436  13.382  67.829  1.00  0.00    -0.316 A  
HETATM    7  C   UNL     1     -10.948  12.092  67.655  1.00  0.00    -0.287 A  
HETATM    8  C   UNL     1     -11.781  11.797  63.942  1.00  0.00    -0.461 C  
HETATM    9  C   UNL     1     -11.001  11.632  66.329  1.00  0.00    -0.338 A  
HETATM   10  C   UNL     1     -11.573  12.404  65.302  1.00  0.00    -0.419 A  
BRANCH   7  11
HETATM   11  C   UNL     1     -10.544  11.208  68.793  1.00  0.00    -0.233 A  
HETATM   12  C   UNL     1      -8.737   9.917  69.820  1.00  0.00    -0.229 A  
HETATM   13  C   UNL     1      -9.209  10.756  68.822  1.00  0.00    -0.192 A  
HETATM   14  C   UNL     1      -9.627   9.399  70.756  1.00  0.00    -0.322 A  
HETATM   15  C   UNL     1      -9.076   8.499  71.790  1.00  0.00    -0.235 C  
HETATM   16  C   UNL     1     -10.013   7.802  72.675  1.00  0.00    -0.298 C  
HETATM   17  O   UNL     1      -7.865   8.323  71.917  1.00  0.00    -0.105 OA 
HETATM   18  C   UNL     1     -11.317   8.072  72.506  1.00  0.00    -0.406 C  
HETATM   19  C   UNL     1      -9.588   6.819  73.695  1.00  0.00    -0.198 C  
HETATM   20  O   UNL     1      -8.252   6.670  73.808  1.00  0.00    -0.106 OA 
HETATM   21  O   UNL     1     -10.372   6.195  74.392  1.00  0.00    -0.310 OA 
HETATM   22  N   UNL     1     -11.881   8.990  71.627  1.00  0.00    -0.335 NA 
HETATM   23  C   UNL     1     -11.003   9.719  70.735  1.00  0.00    -0.336 A  
HETATM   24  C   UNL     1     -12.738  11.450  70.054  1.00  0.00    -0.015 C  
HETATM   25  C   UNL     1     -11.420  10.746  69.833  1.00  0.00    -0.398 A  
BRANCH  22  26
HETATM   26  C   UNL     1     -13.310   8.752  71.252  1.00  0.00    -0.156 C  
HETATM   27  C   UNL     1     -14.387   8.692  72.312  1.00  0.00    -0.486 C  
HETATM   28  C   UNL     1     -14.091   7.476  71.502  1.00  0.00    -0.550 C  
ENDBRANCH  22  26
ENDBRANCH   7  11
ENDBRANCH   2   4
TORSDOF 3
ENDMDL
MODEL       13
REMARK 921   NORMALIZED FREE ENERGY PREDICTED BY IDOCK:   -6.97 KCAL/MOL
REMARK 922        TOTAL FREE ENERGY PREDICTED BY IDOCK:   -8.87 KCAL/MOL
REMARK 923 INTER-LIGAND FREE ENERGY PREDICTED BY IDOCK:   -8.16 KCAL/MOL
REMARK 924 INTRA-LIGAND FREE ENERGY PREDICTED BY IDOCK:   -0.71 KCAL/MOL
REMARK 927      BINDING AFFINITY PREDICTED BY RF-SCORE:    0.00 PKD
ROOT
HETATM    1  C   UNL     1     -11.784  16.216  64.219  1.00  0.00     0.003 C  
HETATM    2  N   UNL     1     -12.277  14.857  64.061  1.00  0.00    -0.967 NA 
HETATM    3  H   UNL     1     -12.844  14.566  63.264  1.00  0.00     0.000 HD 
ENDROOT
BRANCH   2   4
HETATM    4  C   UNL     1     -11.909  13.975  65.091  1.00  0.00    -0.365 A  
HETATM    5  N   UNL     1     -11.705  14.453  66.333  1.00  0.00    -0.380 NA 
HETATM    6  C   UNL     1     -11.421  13.571  67.328  1.00  0.00    -0.339 A  
HETATM    7  C   UNL     1     -11.259  12.198  67.177  1.00  0.00    -0.372 A  
HETATM    8  C   UNL     1     -12.188  12.043  63.479  1.00  0.00    -0.653 C  
HETATM    9  C   UNL     1     -11.438  11.740  65.862  1.00  0.00    -0.273 A  
HETATM   10  C   UNL     1     -11.822  12.607  64.823  1.00  0.00    -0.434 A  
BRANCH   7  11
HETATM   11  C   UNL     1     -11.063  11.264  68.330  1.00  0.00    -0.296 A  
HETATM   12  C   UNL     1     -12.059  10.272  70.332  1.00  0.00    -0.373 A  
HETATM   13  C   UNL     1     -12.142  11.097  69.221  1.00  0.00    -0.377 A  
HETATM   14  C   UNL     1     -10.840   9.683  70.658  1.00  0.00    -0.386 A  
HETATM   15  C   UNL     1     -10.802   8.824  71.859  1.00  0.00    -0.360 C  
HETATM   16  C   UNL     1      -9.500   8.337  72.323  1.00  0.00    -0.341 C  
HETATM   17  O   UNL     1     -11.825   8.518  72.469  1.00  0.00    -0.384 OA 
HETATM   18  C   UNL     1      -8.431   8.678  71.586  1.00  0.00    -0.167 C  
HETATM   19  C   UNL     1      -9.325   7.537  73.554  1.00  0.00    -0.263 C  
HETATM   20  O   UNL     1     -10.474   7.213  74.181  1.00  0.00    -0.291 OA 
HETATM   21  O   UNL     1      -8.234   7.181  73.973  1.00  0.00    -0.120 OA 
HETATM   22  N   UNL     1      -8.423   9.388  70.390  1.00  0.00    -0.202 NA 
HETATM   23  C   UNL     1      -9.682   9.883  69.875  1.00  0.00    -0.235 A  
HETATM   24  C   UNL     1      -8.793  10.423  67.553  1.00  0.00    -0.134 C  
HETATM   25  C   UNL     1      -9.846  10.560  68.626  1.00  0.00    -0.183 A  
BRANCH  22  26
HETATM   26  C   UNL     1      -7.140  10.075  70.040  1.00  0.00    -0.146 C  
HETATM   27  C   UNL     1      -5.919   9.276  69.646  1.00  0.00    -0.036 C  
HETATM   28  C   UNL     1      -5.885  10.094  70.891  1.00  0.00    -0.083 C  
ENDBRANCH  22  26
ENDBRANCH   7  11
ENDBRANCH   2   4
TORSDOF 3
ENDMDL
MODEL       14
REMARK 921   NORMALIZED FREE ENERGY PREDICTED BY IDOCK:   -6.94 KCAL/MOL
REMARK 922        TOTAL FREE ENERGY PREDICTED BY IDOCK:   -8.84 KCAL/MOL
REMARK 923 INTER-LIGAND FREE ENERGY PREDICTED BY IDOCK:   -8.00 KCAL/MOL
REMARK 924 INTRA-LIGAND FREE ENERGY PREDICTED BY IDOCK:   -0.84 KCAL/MOL
REMARK 927      BINDING AFFINITY PREDICTED BY RF-SCORE:    0.00 PKD
ROOT
HETATM    1  C   UNL     1      -8.133  19.770  66.427  1.00  0.00    -0.329 C  
HETATM    2  N   UNL     1      -8.271  18.445  65.847  1.00  0.00    -0.502 NA 
HETATM    3  H   UNL     1      -7.928  18.214  64.914  1.00  0.00     0.000 HD 
ENDROOT
BRANCH   2   4
HETATM    4  C   UNL     1      -8.913  17.506  66.672  1.00  0.00    -0.263 A  
HETATM    5  N   UNL     1     -10.254  17.530  66.787  1.00  0.00    -0.317 NA 
HETATM    6  C   UNL     1     -10.858  16.568  67.533  1.00  0.00    -0.237 A  
HETATM    7  C   UNL     1     -10.211  15.571  68.255  1.00  0.00    -0.222 A  
HETATM    8  C   UNL     1      -6.675  16.394  67.079  1.00  0.00    -0.239 C  
HETATM    9  C   UNL     1      -8.811  15.601  68.146  1.00  0.00    -0.174 A  
HETATM   10  C   UNL     1      -8.154  16.523  67.312  1.00  0.00    -0.193 A  
BRANCH   7  11
HETATM   11  C   UNL     1     -10.935  14.469  68.962  1.00  0.00    -0.272 A  
HETATM   12  C   UNL     1     -12.206  13.822  70.950  1.00  0.00    -0.427 A  
HETATM   13  C   UNL     1     -11.530  14.775  70.203  1.00  0.00    -0.313 A  
HETATM   14  C   UNL     1     -12.198  12.494  70.534  1.00  0.00    -0.382 A  
HETATM   15  C   UNL     1     -12.923  11.516  71.372  1.00  0.00    -0.348 C  
HETATM   16  C   UNL     1     -12.783  10.092  71.056  1.00  0.00    -0.481 C  
HETATM   17  O   UNL     1     -13.625  11.870  72.317  1.00  0.00    -0.364 OA 
HETATM   18  C   UNL     1     -12.033   9.783  69.987  1.00  0.00     0.055 C  
HETATM   19  C   UNL     1     -13.394   9.018  71.867  1.00  0.00    -0.417 C  
HETATM   20  O   UNL     1     -14.167   9.452  72.883  1.00  0.00    -0.389 OA 
HETATM   21  O   UNL     1     -13.229   7.829  71.638  1.00  0.00    -0.336 OA 
HETATM   22  N   UNL     1     -11.422  10.664  69.101  1.00  0.00    -0.275 NA 
HETATM   23  C   UNL     1     -11.537  12.085  69.355  1.00  0.00    -0.330 A  
HETATM   24  C   UNL     1     -10.729  12.804  67.052  1.00  0.00    -0.272 C  
HETATM   25  C   UNL     1     -11.033  13.113  68.498  1.00  0.00    -0.289 A  
BRANCH  22  26
HETATM   26  C   UNL     1     -10.257  10.125  68.333  1.00  0.00    -0.169 C  
HETATM   27  C   UNL     1     -10.456   9.079  67.259  1.00  0.00    -0.343 C  
HETATM   28  C   UNL     1      -9.667   8.735  68.477  1.00  0.00    -0.173 C  
ENDBRANCH  22  26
ENDBRANCH   7  11
ENDBRANCH   2   4
TORSDOF 3
ENDMDL
MODEL       15
REMARK 921   NORMALIZED FREE ENERGY PREDICTED BY IDOCK:   -6.90 KCAL/MOL
REMARK 922        TOTAL FREE ENERGY PREDICTED BY IDOCK:   -8.79 KCAL/MOL
REMARK 923 INTER-LIGAND FREE ENERGY PREDICTED BY IDOCK:   -8.18 KCAL/MOL
REMARK 924 INTRA-LIGAND FREE ENERGY PREDICTED BY IDOCK:   -0.62 KCAL/MOL
REMARK 927      BINDING AFFINITY PREDICTED BY RF-SCORE:    0.00 PKD
ROOT
HETATM    1  C   UNL     1      -9.817   4.975  70.478  1.00  0.00    -0.219 C  
HETATM    2  N   UNL     1     -10.897   5.906  70.758  1.00  0.00    -0.282 NA 
HETATM    3  H   UNL     1     -11.725   5.645  71.293  1.00  0.00     0.000 HD 
ENDROOT
BRANCH   2   4
HETATM    4  C   UNL     1     -10.710   7.196  70.234  1.00  0.00    -0.238 A  
HETATM    5  N   UNL     1     -10.739   7.383  68.901  1.00  0.00    -0.173 NA 
HETATM    6  C   UNL     1     -10.629   8.650  68.421  1.00  0.00    -0.120 A  
HETATM    7  C   UNL     1     -10.423   9.794  69.184  1.00  0.00    -0.232 A  
HETATM    8  C   UNL     1     -10.667   8.105  72.597  1.00  0.00    -0.421 C  
HETATM    9  C   UNL     1     -10.356   9.558  70.566  1.00  0.00    -0.350 A  
HETATM   10  C   UNL     1     -10.558   8.276  71.108  1.00  0.00    -0.258 A  
BRANCH   7  11
HETATM   11  C   UNL     1     -10.427  11.175  68.607  1.00  0.00    -0.220 A  
HETATM   12  C   UNL     1      -9.473  12.678  66.929  1.00  0.00    -0.229 A  
HETATM   13  C   UNL     1      -9.562  11.428  67.523  1.00  0.00    -0.176 A  
HETATM   14  C   UNL     1     -10.158  13.753  67.488  1.00  0.00    -0.241 A  
HETATM   15  C   UNL     1     -10.018  15.066  66.825  1.00  0.00    -0.248 C  
HETATM   16  C   UNL     1     -10.582  16.243  67.491  1.00  0.00    -0.310 C  
HETATM   17  O   UNL     1      -9.443  15.187  65.745  1.00  0.00    -0.327 OA 
HETATM   18  C   UNL     1     -11.230  16.030  68.647  1.00  0.00    -0.366 C  
HETATM   19  C   UNL     1     -10.439  17.617  66.965  1.00  0.00    -0.305 C  
HETATM   20  O   UNL     1      -9.815  17.701  65.773  1.00  0.00    -0.539 OA 
HETATM   21  O   UNL     1     -10.857  18.605  67.550  1.00  0.00    -0.435 OA 
HETATM   22  N   UNL     1     -11.487  14.807  69.257  1.00  0.00    -0.279 NA 
HETATM   23  C   UNL     1     -10.965  13.606  68.638  1.00  0.00    -0.267 A  
HETATM   24  C   UNL     1     -12.382  11.998  70.010  1.00  0.00    -0.179 C  
HETATM   25  C   UNL     1     -11.208  12.275  69.100  1.00  0.00    -0.300 A  
BRANCH  22  26
HETATM   26  C   UNL     1     -11.746  14.847  70.730  1.00  0.00    -0.311 C  
HETATM   27  C   UNL     1     -12.998  15.494  71.277  1.00  0.00    -0.565 C  
HETATM   28  C   UNL     1     -11.669  16.080  71.610  1.00  0.00    -0.583 C  
ENDBRANCH  22  26
ENDBRANCH   7  11
ENDBRANCH   2   4
TORSDOF 3
ENDMDL
MODEL       16
REMARK 921   NORMALIZED FREE ENERGY PREDICTED BY IDOCK:   -6.84 KCAL/MOL
REMARK 922        TOTAL FREE ENERGY PREDICTED BY IDOCK:   -8.72 KCAL/MOL
REMARK 923 INTER-LIGAND FREE ENERGY PREDICTED BY IDOCK:   -7.90 KCAL/MOL
REMARK 924 INTRA-LIGAND FREE ENERGY PREDICTED BY IDOCK:   -0.82 KCAL/MOL
REMARK 927      BINDING AFFINITY PREDICTED BY RF-SCORE:    0.00 PKD
ROOT
HETATM    1  C   UNL     1      -9.106   3.251  67.937  1.00  0.00    -0.169 C  
HETATM    2  N   UNL     1      -9.536   3.467  69.308  1.00  0.00    -0.153 NA 
HETATM    3  H   UNL     1      -9.597   2.712  69.992  1.00  0.00     0.000 HD 
ENDROOT
BRANCH   2   4
HETATM    4  C   UNL     1      -9.863   4.798  69.619  1.00  0.00    -0.221 A  
HETATM    5  N   UNL     1     -10.462   5.569  68.692  1.00  0.00    -0.189 NA 
HETATM    6  C   UNL     1     -10.833   6.830  69.039  1.00  0.00    -0.249 A  
HETATM    7  C   UNL     1     -10.598   7.438  70.267  1.00  0.00    -0.241 A  
HETATM    8  C   UNL     1      -9.081   4.391  71.993  1.00  0.00    -0.159 C  
HETATM    9  C   UNL     1      -9.934   6.620  71.196  1.00  0.00    -0.198 A  
HETATM   10  C   UNL     1      -9.616   5.281  70.906  1.00  0.00    -0.233 A  
BRANCH   7  11
HETATM   11  C   UNL     1     -11.134   8.788  70.630  1.00  0.00    -0.285 A  
HETATM   12  C   UNL     1     -12.735  10.038  71.993  1.00  0.00    -0.439 A  
HETATM   13  C   UNL     1     -12.155   8.841  71.601  1.00  0.00    -0.401 A  
HETATM   14  C   UNL     1     -12.397  11.213  71.328  1.00  0.00    -0.402 A  
HETATM   15  C   UNL     1     -13.054  12.459  71.776  1.00  0.00    -0.342 C  
HETATM   16  C   UNL     1     -12.853  13.674  70.983  1.00  0.00    -0.360 C  
HETATM   17  O   UNL     1     -13.759  12.492  72.783  1.00  0.00    -0.286 OA 
HETATM   18  C   UNL     1     -12.040  13.573  69.920  1.00  0.00    -0.341 C  
HETATM   19  C   UNL     1     -13.518  14.959  71.285  1.00  0.00    -0.430 C  
HETATM   20  O   UNL     1     -14.269  14.954  72.405  1.00  0.00    -0.464 OA 
HETATM   21  O   UNL     1     -13.397  15.956  70.590  1.00  0.00    -0.406 OA 
HETATM   22  N   UNL     1     -11.311  12.458  69.519  1.00  0.00    -0.220 NA 
HETATM   23  C   UNL     1     -11.459  11.230  70.272  1.00  0.00    -0.193 A  
HETATM   24  C   UNL     1      -9.427  10.082  69.259  1.00  0.00    -0.227 C  
HETATM   25  C   UNL     1     -10.724  10.028  70.033  1.00  0.00    -0.348 A  
BRANCH  22  26
HETATM   26  C   UNL     1     -10.909  12.416  68.078  1.00  0.00    -0.221 C  
HETATM   27  C   UNL     1     -10.740  13.693  67.286  1.00  0.00    -0.283 C  
HETATM   28  C   UNL     1     -11.809  12.730  66.898  1.00  0.00    -0.440 C  
ENDBRANCH  22  26
ENDBRANCH   7  11
ENDBRANCH   2   4
TORSDOF 3
ENDMDL
MODEL       17
REMARK 921   NORMALIZED FREE ENERGY PREDICTED BY IDOCK:   -6.80 KCAL/MOL
REMARK 922        TOTAL FREE ENERGY PREDICTED BY IDOCK:   -8.67 KCAL/MOL
REMARK 923 INTER-LIGAND FREE ENERGY PREDICTED BY IDOCK:   -7.83 KCAL/MOL
REMARK 924 INTRA-LIGAND FREE ENERGY PREDICTED BY IDOCK:   -0.85 KCAL/MOL
REMARK 927      BINDING AFFINITY PREDICTED BY RF-SCORE:    0.00 PKD
ROOT
HETATM    1  C   UNL     1      -8.376   5.977  70.428  1.00  0.00    -0.124 C  
HETATM    2  N   UNL     1      -9.407   6.200  69.428  1.00  0.00    -0.138 NA 
HETATM    3  H   UNL     1      -9.921   5.436  68.988  1.00  0.00     0.000 HD 
ENDROOT
BRANCH   2   4
HETATM    4  C   UNL     1      -9.641   7.549  69.116  1.00  0.00    -0.157 A  
HETATM    5  N   UNL     1      -9.084   8.513  69.873  1.00  0.00    -0.148 NA 
HETATM    6  C   UNL     1      -9.265   9.810  69.509  1.00  0.00    -0.213 A  
HETATM    7  C   UNL     1     -10.036  10.255  68.440  1.00  0.00    -0.178 A  
HETATM    8  C   UNL     1     -10.905   6.808  67.051  1.00  0.00    -0.453 C  
HETATM    9  C   UNL     1     -10.636   9.226  67.697  1.00  0.00    -0.324 A  
HETATM   10  C   UNL     1     -10.399   7.870  67.987  1.00  0.00    -0.264 A  
BRANCH   7  11
HETATM   11  C   UNL     1     -10.103  11.689  68.019  1.00  0.00    -0.198 A  
HETATM   12  C   UNL     1      -9.240  13.402  66.500  1.00  0.00    -0.182 A  
HETATM   13  C   UNL     1      -9.271  12.092  66.954  1.00  0.00    -0.203 A  
HETATM   14  C   UNL     1      -9.952  14.382  67.185  1.00  0.00    -0.253 A  
HETATM   15  C   UNL     1      -9.875  15.764  66.668  1.00  0.00    -0.252 C  
HETATM   16  C   UNL     1     -10.467  16.839  67.468  1.00  0.00    -0.319 C  
HETATM   17  O   UNL     1      -9.328  16.024  65.598  1.00  0.00    -0.385 OA 
HETATM   18  C   UNL     1     -11.082  16.476  68.605  1.00  0.00    -0.329 C  
HETATM   19  C   UNL     1     -10.385  18.267  67.095  1.00  0.00    -0.384 C  
HETATM   20  O   UNL     1      -9.791  18.504  65.908  1.00  0.00    -0.507 OA 
HETATM   21  O   UNL     1     -10.827  19.168  67.791  1.00  0.00    -0.407 OA 
HETATM   22  N   UNL     1     -11.281  15.185  69.082  1.00  0.00    -0.261 NA 
HETATM   23  C   UNL     1     -10.729  14.080  68.326  1.00  0.00    -0.254 A  
HETATM   24  C   UNL     1     -12.056  12.278  69.537  1.00  0.00    -0.260 C  
HETATM   25  C   UNL     1     -10.913  12.698  68.643  1.00  0.00    -0.292 A  
BRANCH  22  26
HETATM   26  C   UNL     1     -11.509  15.054  70.554  1.00  0.00    -0.290 C  
HETATM   27  C   UNL     1     -12.824  15.473  71.172  1.00  0.00    -0.551 C  
HETATM   28  C   UNL     1     -11.577  16.199  71.546  1.00  0.00    -0.502 C  
ENDBRANCH  22  26
ENDBRANCH   7  11
ENDBRANCH   2   4
TORSDOF 3
ENDMDL
MODEL       18
REMARK 921   NORMALIZED FREE ENERGY PREDICTED BY IDOCK:   -6.78 KCAL/MOL
REMARK 922        TOTAL FREE ENERGY PREDICTED BY IDOCK:   -8.65 KCAL/MOL
REMARK 923 INTER-LIGAND FREE ENERGY PREDICTED BY IDOCK:   -8.17 KCAL/MOL
REMARK 924 INTRA-LIGAND FREE ENERGY PREDICTED BY IDOCK:   -0.47 KCAL/MOL
REMARK 927      BINDING AFFINITY PREDICTED BY RF-SCORE:    0.00 PKD
ROOT
HETATM    1  C   UNL     1     -10.752   6.501  67.267  1.00  0.00    -0.356 C  
HETATM    2  N   UNL     1      -9.715   7.211  66.537  1.00  0.00    -0.331 NA 
HETATM    3  H   UNL     1      -8.886   6.746  66.166  1.00  0.00     0.000 HD 
ENDROOT
BRANCH   2   4
HETATM    4  C   UNL     1      -9.944   8.588  66.382  1.00  0.00    -0.244 A  
HETATM    5  N   UNL     1     -10.747   9.231  67.251  1.00  0.00    -0.237 NA 
HETATM    6  C   UNL     1     -10.896  10.576  67.123  1.00  0.00    -0.259 A  
HETATM    7  C   UNL     1     -10.335  11.366  66.125  1.00  0.00    -0.294 A  
HETATM    8  C   UNL     1      -8.276   8.608  64.477  1.00  0.00    -0.166 C  
HETATM    9  C   UNL     1      -9.538  10.658  65.212  1.00  0.00    -0.293 A  
HETATM   10  C   UNL     1      -9.285   9.282  65.364  1.00  0.00    -0.284 A  
BRANCH   7  11
HETATM   11  C   UNL     1     -10.440  12.859  66.106  1.00  0.00    -0.283 A  
HETATM   12  C   UNL     1     -10.924  14.844  64.761  1.00  0.00    -0.390 A  
HETATM   13  C   UNL     1     -10.817  13.468  64.892  1.00  0.00    -0.371 A  
HETATM   14  C   UNL     1     -10.529  15.665  65.813  1.00  0.00    -0.383 A  
HETATM   15  C   UNL     1     -10.650  17.124  65.617  1.00  0.00    -0.179 C  
HETATM   16  C   UNL     1     -10.079  18.011  66.634  1.00  0.00    -0.372 C  
HETATM   17  O   UNL     1     -11.207  17.600  64.630  1.00  0.00    -0.857 OA 
HETATM   18  C   UNL     1      -9.521  17.422  67.703  1.00  0.00    -0.251 C  
HETATM   19  C   UNL     1     -10.068  19.484  66.512  1.00  0.00    -0.439 C  
HETATM   20  O   UNL     1     -10.703  19.962  65.422  1.00  0.00    -0.421 OA 
HETATM   21  O   UNL     1      -9.540  20.221  67.331  1.00  0.00    -0.385 OA 
HETATM   22  N   UNL     1      -9.479  16.062  67.991  1.00  0.00    -0.206 NA 
HETATM   23  C   UNL     1     -10.040  15.137  67.028  1.00  0.00    -0.244 A  
HETATM   24  C   UNL     1     -10.070  13.141  68.606  1.00  0.00    -0.146 C  
HETATM   25  C   UNL     1     -10.141  13.723  67.214  1.00  0.00    -0.239 A  
BRANCH  22  26
HETATM   26  C   UNL     1      -8.396  15.618  68.923  1.00  0.00    -0.210 C  
HETATM   27  C   UNL     1      -7.205  16.506  69.201  1.00  0.00    -0.226 C  
HETATM   28  C   UNL     1      -6.996  15.198  68.519  1.00  0.00    -0.105 C  
ENDBRANCH  22  26
ENDBRANCH   7  11
ENDBRANCH   2   4
TORSDOF 3
ENDMDL
MODEL       19
REMARK 921   NORMALIZED FREE ENERGY PREDICTED BY IDOCK:   -6.77 KCAL/MOL
REMARK 922        TOTAL FREE ENERGY PREDICTED BY IDOCK:   -8.63 KCAL/MOL
REMARK 923 INTER-LIGAND FREE ENERGY PREDICTED BY IDOCK:   -7.95 KCAL/MOL
REMARK 924 INTRA-LIGAND FREE ENERGY PREDICTED BY IDOCK:   -0.68 KCAL/MOL
REMARK 927      BINDING AFFINITY PREDICTED BY RF-SCORE:    0.00 PKD
ROOT
HETATM    1  C   UNL     1      -6.524   8.667  62.935  1.00  0.00    -0.091 C  
HETATM    2  N   UNL     1      -7.974   8.604  62.862  1.00  0.00    -0.155 NA 
HETATM    3  H   UNL     1      -8.468   8.167  62.083  1.00  0.00     0.000 HD 
ENDROOT
BRANCH   2   4
HETATM    4  C   UNL     1      -8.644   9.193  63.948  1.00  0.00    -0.170 A  
HETATM    5  N   UNL     1      -8.636   8.579  65.145  1.00  0.00    -0.174 NA 
HETATM    6  C   UNL     1      -9.229   9.202  66.198  1.00  0.00    -0.205 A  
HETATM    7  C   UNL     1      -9.911  10.413  66.147  1.00  0.00    -0.290 A  
HETATM    8  C   UNL     1      -9.150  11.203  62.492  1.00  0.00    -0.347 C  
HETATM    9  C   UNL     1      -9.935  11.006  64.875  1.00  0.00    -0.343 A  
HETATM   10  C   UNL     1      -9.256  10.438  63.782  1.00  0.00    -0.302 A  
BRANCH   7  11
HETATM   11  C   UNL     1     -10.441  11.106  67.363  1.00  0.00    -0.255 A  
HETATM   12  C   UNL     1     -11.967  10.978  69.271  1.00  0.00    -0.410 A  
HETATM   13  C   UNL     1     -11.397  10.418  68.138  1.00  0.00    -0.284 A  
HETATM   14  C   UNL     1     -11.690  12.303  69.594  1.00  0.00    -0.386 A  
HETATM   15  C   UNL     1     -12.333  12.856  70.804  1.00  0.00    -0.299 C  
HETATM   16  C   UNL     1     -12.200  14.291  71.067  1.00  0.00    -0.428 C  
HETATM   17  O   UNL     1     -12.971  12.145  71.579  1.00  0.00    -0.391 OA 
HETATM   18  C   UNL     1     -11.457  14.997  70.200  1.00  0.00    -0.277 C  
HETATM   19  C   UNL     1     -12.862  14.972  72.200  1.00  0.00    -0.335 C  
HETATM   20  O   UNL     1     -13.538  14.153  73.031  1.00  0.00    -0.651 OA 
HETATM   21  O   UNL     1     -12.800  16.178  72.386  1.00  0.00    -0.426 OA 
HETATM   22  N   UNL     1     -10.740  14.510  69.112  1.00  0.00    -0.253 NA 
HETATM   23  C   UNL     1     -10.822  13.096  68.810  1.00  0.00    -0.246 A  
HETATM   24  C   UNL     1      -8.845  13.080  67.209  1.00  0.00    -0.208 C  
HETATM   25  C   UNL     1     -10.088  12.436  67.777  1.00  0.00    -0.203 A  
BRANCH  22  26
HETATM   26  C   UNL     1     -10.433  15.497  68.031  1.00  0.00    -0.259 C  
HETATM   27  C   UNL     1      -9.428  16.604  68.257  1.00  0.00    -0.230 C  
HETATM   28  C   UNL     1     -10.856  16.954  68.014  1.00  0.00    -0.338 C  
ENDBRANCH  22  26
ENDBRANCH   7  11
ENDBRANCH   2   4
TORSDOF 3
ENDMDL
MODEL       20
REMARK 921   NORMALIZED FREE ENERGY PREDICTED BY IDOCK:   -6.74 KCAL/MOL
REMARK 922        TOTAL FREE ENERGY PREDICTED BY IDOCK:   -8.60 KCAL/MOL
REMARK 923 INTER-LIGAND FREE ENERGY PREDICTED BY IDOCK:   -7.84 KCAL/MOL
REMARK 924 INTRA-LIGAND FREE ENERGY PREDICTED BY IDOCK:   -0.76 KCAL/MOL
REMARK 927      BINDING AFFINITY PREDICTED BY RF-SCORE:    0.00 PKD
ROOT
HETATM    1  C   UNL     1      -6.218  21.272  66.709  1.00  0.00    -0.325 C  
HETATM    2  N   UNL     1      -7.365  20.867  65.914  1.00  0.00    -0.428 NA 
HETATM    3  H   UNL     1      -7.834  21.496  65.262  1.00  0.00     0.000 HD 
ENDROOT
BRANCH   2   4
HETATM    4  C   UNL     1      -7.779  19.539  66.114  1.00  0.00    -0.313 A  
HETATM    5  N   UNL     1      -6.990  18.528  65.704  1.00  0.00    -0.468 NA 
HETATM    6  C   UNL     1      -7.378  17.253  65.973  1.00  0.00    -0.190 A  
HETATM    7  C   UNL     1      -8.565  16.877  66.592  1.00  0.00    -0.281 A  
HETATM    8  C   UNL     1      -9.795  20.403  67.381  1.00  0.00    -0.587 C  
HETATM    9  C   UNL     1      -9.383  17.954  66.969  1.00  0.00    -0.267 A  
HETATM   10  C   UNL     1      -8.976  19.289  66.791  1.00  0.00    -0.360 A  
BRANCH   7  11
HETATM   11  C   UNL     1      -8.882  15.463  66.966  1.00  0.00    -0.252 A  
HETATM   12  C   UNL     1      -8.362  13.589  68.450  1.00  0.00    -0.140 A  
HETATM   13  C   UNL     1      -8.161  14.897  68.037  1.00  0.00    -0.137 A  
HETATM   14  C   UNL     1      -9.208  12.762  67.717  1.00  0.00    -0.199 A  
HETATM   15  C   UNL     1      -9.377  11.373  68.192  1.00  0.00    -0.181 C  
HETATM   16  C   UNL     1     -10.117  10.434  67.344  1.00  0.00    -0.237 C  
HETATM   17  O   UNL     1      -8.912  10.996  69.266  1.00  0.00    -0.058 OA 
HETATM   18  C   UNL     1     -10.630  10.926  66.205  1.00  0.00    -0.214 C  
HETATM   19  C   UNL     1     -10.286   9.003  67.674  1.00  0.00    -0.242 C  
HETATM   20  O   UNL     1      -9.773   8.637  68.867  1.00  0.00    -0.164 OA 
HETATM   21  O   UNL     1     -10.851   8.208  66.940  1.00  0.00    -0.250 OA 
HETATM   22  N   UNL     1     -10.596  12.245  65.765  1.00  0.00    -0.247 NA 
HETATM   23  C   UNL     1      -9.890  13.221  66.569  1.00  0.00    -0.281 A  
HETATM   24  C   UNL     1     -10.862  15.252  65.384  1.00  0.00    -0.399 C  
HETATM   25  C   UNL     1      -9.831  14.622  66.291  1.00  0.00    -0.320 A  
BRANCH  22  26
HETATM   26  C   UNL     1     -10.757  12.452  64.292  1.00  0.00    -0.357 C  
HETATM   27  C   UNL     1     -11.969  11.916  63.565  1.00  0.00    -0.567 C  
HETATM   28  C   UNL     1     -10.618  11.383  63.226  1.00  0.00    -0.374 C  
ENDBRANCH  22  26
ENDBRANCH   7  11
ENDBRANCH   2   4
TORSDOF 3
ENDMDL
MODEL       21
REMARK 921   NORMALIZED FREE ENERGY PREDICTED BY IDOCK:   -6.60 KCAL/MOL
REMARK 922        TOTAL FREE ENERGY PREDICTED BY IDOCK:   -8.44 KCAL/MOL
REMARK 923 INTER-LIGAND FREE ENERGY PREDICTED BY IDOCK:   -7.59 KCAL/MOL
REMARK 924 INTRA-LIGAND FREE ENERGY PREDICTED BY IDOCK:   -0.85 KCAL/MOL
REMARK 927      BINDING AFFINITY PREDICTED BY RF-SCORE:    0.00 PKD
ROOT
HETATM    1  C   UNL     1     -10.876   4.584  74.222  1.00  0.00    -0.134 C  
HETATM    2  N   UNL     1     -10.646   6.017  74.309  1.00  0.00    -0.361 NA 
HETATM    3  H   UNL     1     -10.550   6.506  75.199  1.00  0.00     0.000 HD 
ENDROOT
BRANCH   2   4
HETATM    4  C   UNL     1     -10.567   6.675  73.071  1.00  0.00    -0.256 A  
HETATM    5  N   UNL     1     -11.454   6.378  72.102  1.00  0.00    -0.287 NA 
HETATM    6  C   UNL     1     -11.403   7.079  70.939  1.00  0.00    -0.295 A  
HETATM    7  C   UNL     1     -10.466   8.055  70.617  1.00  0.00    -0.219 A  
HETATM    8  C   UNL     1      -8.705   8.116  74.003  1.00  0.00    -0.199 C  
HETATM    9  C   UNL     1      -9.531   8.310  71.633  1.00  0.00    -0.258 A  
HETATM   10  C   UNL     1      -9.607   7.672  72.885  1.00  0.00    -0.274 A  
BRANCH   7  11
HETATM   11  C   UNL     1     -10.532   8.875  69.367  1.00  0.00    -0.228 A  
HETATM   12  C   UNL     1      -9.920   9.027  67.003  1.00  0.00    -0.295 A  
HETATM   13  C   UNL     1      -9.933   8.340  68.208  1.00  0.00    -0.217 A  
HETATM   14  C   UNL     1     -10.398  10.332  66.954  1.00  0.00    -0.298 A  
HETATM   15  C   UNL     1     -10.349  11.024  65.648  1.00  0.00    -0.251 C  
HETATM   16  C   UNL     1     -10.679  12.451  65.606  1.00  0.00    -0.299 C  
HETATM   17  O   UNL     1     -10.037  10.434  64.616  1.00  0.00    -0.345 OA 
HETATM   18  C   UNL     1     -11.049  13.019  66.764  1.00  0.00    -0.286 C  
HETATM   19  C   UNL     1     -10.591  13.267  64.376  1.00  0.00    -0.419 C  
HETATM   20  O   UNL     1     -10.260  12.577  63.266  1.00  0.00    -0.370 OA 
HETATM   21  O   UNL     1     -10.809  14.469  64.353  1.00  0.00    -0.284 OA 
HETATM   22  N   UNL     1     -11.220  12.393  67.994  1.00  0.00    -0.248 NA 
HETATM   23  C   UNL     1     -10.921  10.980  68.095  1.00  0.00    -0.247 A  
HETATM   24  C   UNL     1     -12.059  10.656  70.347  1.00  0.00    -0.430 C  
HETATM   25  C   UNL     1     -11.118  10.182  69.265  1.00  0.00    -0.270 A  
BRANCH  22  26
HETATM   26  C   UNL     1     -11.124  13.273  69.201  1.00  0.00    -0.209 C  
HETATM   27  C   UNL     1     -12.230  14.250  69.533  1.00  0.00    -0.341 C  
HETATM   28  C   UNL     1     -10.875  14.769  69.188  1.00  0.00    -0.267 C  
ENDBRANCH  22  26
ENDBRANCH   7  11
ENDBRANCH   2   4
TORSDOF 3
ENDMDL
MODEL       22
REMARK 921   NORMALIZED FREE ENERGY PREDICTED BY IDOCK:   -6.60 KCAL/MOL
REMARK 922        TOTAL FREE ENERGY PREDICTED BY IDOCK:   -8.43 KCAL/MOL
REMARK 923 INTER-LIGAND FREE ENERGY PREDICTED BY IDOCK:   -8.18 KCAL/MOL
REMARK 924 INTRA-LIGAND FREE ENERGY PREDICTED BY IDOCK:   -0.25 KCAL/MOL
REMARK 927      BINDING AFFINITY PREDICTED BY RF-SCORE:    0.00 PKD
ROOT
HETATM    1  C   UNL     1     -11.568  16.085  64.210  1.00  0.00    -0.138 C  
HETATM    2  N   UNL     1     -12.372  14.875  64.189  1.00  0.00    -0.925 NA 
HETATM    3  H   UNL     1     -13.108  14.715  63.500  1.00  0.00     0.000 HD 
ENDROOT
BRANCH   2   4
HETATM    4  C   UNL     1     -12.057  13.942  65.190  1.00  0.00    -0.403 A  
HETATM    5  N   UNL     1     -12.063  14.325  66.481  1.00  0.00    -0.441 NA 
HETATM    6  C   UNL     1     -11.825  13.388  67.437  1.00  0.00    -0.375 A  
HETATM    7  C   UNL     1     -11.509  12.053  67.207  1.00  0.00    -0.403 A  
HETATM    8  C   UNL     1     -11.931  12.141  63.415  1.00  0.00    -0.578 C  
HETATM    9  C   UNL     1     -11.470  11.698  65.849  1.00  0.00    -0.189 A  
HETATM   10  C   UNL     1     -11.800  12.615  64.835  1.00  0.00    -0.436 A  
BRANCH   7  11
HETATM   11  C   UNL     1     -11.373  11.042  68.302  1.00  0.00    -0.366 A  
HETATM   12  C   UNL     1     -11.969  10.442  70.598  1.00  0.00    -0.448 A  
HETATM   13  C   UNL     1     -12.046  11.303  69.513  1.00  0.00    -0.386 A  
HETATM   14  C   UNL     1     -11.108   9.351  70.546  1.00  0.00    -0.330 A  
HETATM   15  C   UNL     1     -11.053   8.473  71.733  1.00  0.00    -0.307 C  
HETATM   16  C   UNL     1     -10.030   7.424  71.775  1.00  0.00    -0.192 C  
HETATM   17  O   UNL     1     -11.835   8.607  72.673  1.00  0.00    -0.334 OA 
HETATM   18  C   UNL     1      -9.238   7.311  70.698  1.00  0.00    -0.157 C  
HETATM   19  C   UNL     1      -9.827   6.537  72.940  1.00  0.00    -0.163 C  
HETATM   20  O   UNL     1     -10.715   6.708  73.940  1.00  0.00    -0.288 OA 
HETATM   21  O   UNL     1      -8.936   5.702  72.999  1.00  0.00    -0.124 OA 
HETATM   22  N   UNL     1      -9.318   8.034  69.513  1.00  0.00    -0.156 NA 
HETATM   23  C   UNL     1     -10.318   9.076  69.407  1.00  0.00    -0.213 A  
HETATM   24  C   UNL     1     -10.119   9.344  66.885  1.00  0.00    -0.314 C  
HETATM   25  C   UNL     1     -10.574   9.851  68.233  1.00  0.00    -0.269 A  
BRANCH  22  26
HETATM   26  C   UNL     1      -8.065   8.106  68.698  1.00  0.00    -0.124 C  
HETATM   27  C   UNL     1      -6.812   7.385  69.143  1.00  0.00    -0.060 C  
HETATM   28  C   UNL     1      -6.810   8.874  69.068  1.00  0.00    -0.059 C  
ENDBRANCH  22  26
ENDBRANCH   7  11
ENDBRANCH   2   4
TORSDOF 3
ENDMDL
MODEL       23
REMARK 921   NORMALIZED FREE ENERGY PREDICTED BY IDOCK:   -6.59 KCAL/MOL
REMARK 922        TOTAL FREE ENERGY PREDICTED BY IDOCK:   -8.43 KCAL/MOL
REMARK 923 INTER-LIGAND FREE ENERGY PREDICTED BY IDOCK:   -7.51 KCAL/MOL
REMARK 924 INTRA-LIGAND FREE ENERGY PREDICTED BY IDOCK:   -0.92 KCAL/MOL
REMARK 927      BINDING AFFINITY PREDICTED BY RF-SCORE:    0.00 PKD
ROOT
HETATM    1  C   UNL     1      -8.420   4.650  65.115  1.00  0.00    -0.130 C  
HETATM    2  N   UNL     1      -8.396   4.612  66.568  1.00  0.00    -0.107 NA 
HETATM    3  H   UNL     1      -8.069   3.800  67.092  1.00  0.00     0.000 HD 
ENDROOT
BRANCH   2   4
HETATM    4  C   UNL     1      -8.857   5.782  67.194  1.00  0.00    -0.107 A  
HETATM    5  N   UNL     1      -9.793   6.535  66.588  1.00  0.00    -0.165 NA 
HETATM    6  C   UNL     1     -10.276   7.623  67.245  1.00  0.00    -0.272 A  
HETATM    7  C   UNL     1      -9.846   8.081  68.486  1.00  0.00    -0.185 A  
HETATM    8  C   UNL     1      -7.443   5.207  69.215  1.00  0.00    -0.058 C  
HETATM    9  C   UNL     1      -8.839   7.296  69.071  1.00  0.00    -0.132 A  
HETATM   10  C   UNL     1      -8.379   6.113  68.465  1.00  0.00    -0.114 A  
BRANCH   7  11
HETATM   11  C   UNL     1     -10.497   9.217  69.211  1.00  0.00    -0.231 A  
HETATM   12  C   UNL     1     -12.043   9.871  70.990  1.00  0.00    -0.450 A  
HETATM   13  C   UNL     1     -11.373   8.896  70.268  1.00  0.00    -0.179 A  
HETATM   14  C   UNL     1     -11.954  11.201  70.591  1.00  0.00    -0.459 A  
HETATM   15  C   UNL     1     -12.698  12.200  71.387  1.00  0.00    -0.263 C  
HETATM   16  C   UNL     1     -12.766  13.576  70.887  1.00  0.00    -0.366 C  
HETATM   17  O   UNL     1     -13.257  11.900  72.441  1.00  0.00    -0.329 OA 
HETATM   18  C   UNL     1     -12.100  13.838  69.752  1.00  0.00    -0.340 C  
HETATM   19  C   UNL     1     -13.543  14.642  71.553  1.00  0.00    -0.405 C  
HETATM   20  O   UNL     1     -14.126  14.274  72.712  1.00  0.00    -0.575 OA 
HETATM   21  O   UNL     1     -13.648  15.774  71.105  1.00  0.00    -0.576 OA 
HETATM   22  N   UNL     1     -11.295  12.967  69.025  1.00  0.00    -0.275 NA 
HETATM   23  C   UNL     1     -11.180  11.597  69.478  1.00  0.00    -0.213 A  
HETATM   24  C   UNL     1      -9.175  11.031  68.017  1.00  0.00    -0.159 C  
HETATM   25  C   UNL     1     -10.335  10.607  68.886  1.00  0.00    -0.225 A  
BRANCH  22  26
HETATM   26  C   UNL     1     -11.093  13.306  67.582  1.00  0.00    -0.269 C  
HETATM   27  C   UNL     1     -12.017  14.274  66.879  1.00  0.00    -0.467 C  
HETATM   28  C   UNL     1     -11.974  12.852  66.434  1.00  0.00    -0.462 C  
ENDBRANCH  22  26
ENDBRANCH   7  11
ENDBRANCH   2   4
TORSDOF 3
ENDMDL
MODEL       24
REMARK 921   NORMALIZED FREE ENERGY PREDICTED BY IDOCK:   -6.58 KCAL/MOL
REMARK 922        TOTAL FREE ENERGY PREDICTED BY IDOCK:   -8.41 KCAL/MOL
REMARK 923 INTER-LIGAND FREE ENERGY PREDICTED BY IDOCK:   -8.03 KCAL/MOL
REMARK 924 INTRA-LIGAND FREE ENERGY PREDICTED BY IDOCK:   -0.38 KCAL/MOL
REMARK 927      BINDING AFFINITY PREDICTED BY RF-SCORE:    0.00 PKD
ROOT
HETATM    1  C   UNL     1     -12.307  13.581  63.645  1.00  0.00    -0.310 C  
HETATM    2  N   UNL     1     -11.065  12.837  63.517  1.00  0.00    -0.558 NA 
HETATM    3  H   UNL     1     -10.416  12.978  62.743  1.00  0.00     0.000 HD 
ENDROOT
BRANCH   2   4
HETATM    4  C   UNL     1     -10.829  11.906  64.543  1.00  0.00    -0.316 A  
HETATM    5  N   UNL     1     -11.391  12.093  65.752  1.00  0.00    -0.344 NA 
HETATM    6  C   UNL     1     -11.208  11.143  66.706  1.00  0.00    -0.143 A  
HETATM    7  C   UNL     1     -10.430   9.998  66.575  1.00  0.00    -0.223 A  
HETATM    8  C   UNL     1      -9.551  10.473  62.892  1.00  0.00    -0.355 C  
HETATM    9  C   UNL     1      -9.825   9.855  65.316  1.00  0.00    -0.373 A  
HETATM   10  C   UNL     1     -10.064  10.769  64.273  1.00  0.00    -0.427 A  
BRANCH   7  11
HETATM   11  C   UNL     1     -10.361   8.929  67.621  1.00  0.00    -0.313 A  
HETATM   12  C   UNL     1     -10.212   6.529  68.066  1.00  0.00    -0.192 A  
HETATM   13  C   UNL     1     -10.261   7.594  67.181  1.00  0.00    -0.360 A  
HETATM   14  C   UNL     1     -10.390   6.760  69.427  1.00  0.00    -0.221 A  
HETATM   15  C   UNL     1     -10.342   5.589  70.327  1.00  0.00    -0.279 C  
HETATM   16  C   UNL     1     -10.702   5.780  71.734  1.00  0.00    -0.305 C  
HETATM   17  O   UNL     1     -10.016   4.475  69.921  1.00  0.00    -0.219 OA 
HETATM   18  C   UNL     1     -11.008   7.030  72.115  1.00  0.00    -0.234 C  
HETATM   19  C   UNL     1     -10.766   4.672  72.711  1.00  0.00    -0.204 C  
HETATM   20  O   UNL     1     -10.387   3.472  72.227  1.00  0.00    -0.147 OA 
HETATM   21  O   UNL     1     -11.123   4.821  73.870  1.00  0.00    -0.294 OA 
HETATM   22  N   UNL     1     -10.961   8.183  71.339  1.00  0.00    -0.231 NA 
HETATM   23  C   UNL     1     -10.600   8.059  69.942  1.00  0.00    -0.242 A  
HETATM   24  C   UNL     1     -10.197  10.545  69.578  1.00  0.00    -0.230 C  
HETATM   25  C   UNL     1     -10.434   9.154  69.038  1.00  0.00    -0.238 A  
BRANCH  22  26
HETATM   26  C   UNL     1     -11.813   9.323  71.800  1.00  0.00    -0.384 C  
HETATM   27  C   UNL     1     -13.094   9.071  72.562  1.00  0.00    -0.450 C  
HETATM   28  C   UNL     1     -13.158   9.716  71.219  1.00  0.00    -0.437 C  
ENDBRANCH  22  26
ENDBRANCH   7  11
ENDBRANCH   2   4
TORSDOF 3
ENDMDL
MODEL       25
REMARK 921   NORMALIZED FREE ENERGY PREDICTED BY IDOCK:   -6.50 KCAL/MOL
REMARK 922        TOTAL FREE ENERGY PREDICTED BY IDOCK:   -8.32 KCAL/MOL
REMARK 923 INTER-LIGAND FREE ENERGY PREDICTED BY IDOCK:   -7.53 KCAL/MOL
REMARK 924 INTRA-LIGAND FREE ENERGY PREDICTED BY IDOCK:   -0.79 KCAL/MOL
REMARK 927      BINDING AFFINITY PREDICTED BY RF-SCORE:    0.00 PKD
ROOT
HETATM    1  C   UNL     1     -10.938   3.674  73.215  1.00  0.00    -0.175 C  
HETATM    2  N   UNL     1     -11.525   4.865  73.806  1.00  0.00    -0.396 NA 
HETATM    3  H   UNL     1     -12.000   4.855  74.708  1.00  0.00     0.000 HD 
ENDROOT
BRANCH   2   4
HETATM    4  C   UNL     1     -11.385   6.032  73.036  1.00  0.00    -0.141 A  
HETATM    5  N   UNL     1     -12.263   6.284  72.047  1.00  0.00    -0.303 NA 
HETATM    6  C   UNL     1     -12.151   7.454  71.363  1.00  0.00    -0.327 A  
HETATM    7  C   UNL     1     -11.160   8.413  71.548  1.00  0.00    -0.329 A  
HETATM    8  C   UNL     1      -9.477   6.746  74.540  1.00  0.00    -0.258 C  
HETATM    9  C   UNL     1     -10.238   8.098  72.558  1.00  0.00    -0.383 A  
HETATM   10  C   UNL     1     -10.373   6.942  73.349  1.00  0.00    -0.337 A  
BRANCH   7  11
HETATM   11  C   UNL     1     -11.158   9.734  70.845  1.00  0.00    -0.428 A  
HETATM   12  C   UNL     1     -12.265  11.900  70.589  1.00  0.00    -0.424 A  
HETATM   13  C   UNL     1     -12.165  10.657  71.194  1.00  0.00    -0.479 A  
HETATM   14  C   UNL     1     -11.431  12.210  69.518  1.00  0.00    -0.334 A  
HETATM   15  C   UNL     1     -11.587  13.543  68.900  1.00  0.00    -0.323 C  
HETATM   16  C   UNL     1     -10.850  13.827  67.666  1.00  0.00    -0.264 C  
HETATM   17  O   UNL     1     -12.317  14.402  69.392  1.00  0.00    -0.294 OA 
HETATM   18  C   UNL     1     -10.043  12.857  67.209  1.00  0.00    -0.231 C  
HETATM   19  C   UNL     1     -10.984  15.093  66.915  1.00  0.00    -0.323 C  
HETATM   20  O   UNL     1     -11.782  16.011  67.498  1.00  0.00     0.051 OA 
HETATM   21  O   UNL     1     -10.415  15.307  65.855  1.00  0.00    -0.294 OA 
HETATM   22  N   UNL     1      -9.773  11.632  67.809  1.00  0.00    -0.170 NA 
HETATM   23  C   UNL     1     -10.463  11.300  69.038  1.00  0.00    -0.194 A  
HETATM   24  C   UNL     1      -8.956   9.339  69.636  1.00  0.00    -0.164 C  
HETATM   25  C   UNL     1     -10.238  10.118  69.811  1.00  0.00    -0.286 A  
BRANCH  22  26
HETATM   26  C   UNL     1      -9.283  10.548  66.902  1.00  0.00    -0.155 C  
HETATM   27  C   UNL     1      -9.366  10.701  65.400  1.00  0.00    -0.250 C  
HETATM   28  C   UNL     1     -10.154   9.627  66.069  1.00  0.00    -0.318 C  
ENDBRANCH  22  26
ENDBRANCH   7  11
ENDBRANCH   2   4
TORSDOF 3
ENDMDL
MODEL       26
REMARK 921   NORMALIZED FREE ENERGY PREDICTED BY IDOCK:   -6.45 KCAL/MOL
REMARK 922        TOTAL FREE ENERGY PREDICTED BY IDOCK:   -8.26 KCAL/MOL
REMARK 923 INTER-LIGAND FREE ENERGY PREDICTED BY IDOCK:   -7.38 KCAL/MOL
REMARK 924 INTRA-LIGAND FREE ENERGY PREDICTED BY IDOCK:   -0.88 KCAL/MOL
REMARK 927      BINDING AFFINITY PREDICTED BY RF-SCORE:    0.00 PKD
ROOT
HETATM    1  C   UNL     1     -10.532  18.255  66.081  1.00  0.00    -0.383 C  
HETATM    2  N   UNL     1     -10.197  16.987  65.454  1.00  0.00    -0.617 NA 
HETATM    3  H   UNL     1      -9.826  16.922  64.506  1.00  0.00     0.000 HD 
ENDROOT
BRANCH   2   4
HETATM    4  C   UNL     1     -10.426  15.857  66.256  1.00  0.00    -0.318 A  
HETATM    5  N   UNL     1     -11.645  15.286  66.269  1.00  0.00    -0.089 NA 
HETATM    6  C   UNL     1     -11.823  14.152  66.997  1.00  0.00    -0.429 A  
HETATM    7  C   UNL     1     -10.864  13.539  67.797  1.00  0.00    -0.267 A  
HETATM    8  C   UNL     1      -7.968  15.844  66.865  1.00  0.00    -0.287 C  
HETATM    9  C   UNL     1      -9.616  14.184  67.793  1.00  0.00    -0.219 A  
HETATM   10  C   UNL     1      -9.366  15.306  66.982  1.00  0.00    -0.238 A  
BRANCH   7  11
HETATM   11  C   UNL     1     -11.084  12.227  68.482  1.00  0.00    -0.290 A  
HETATM   12  C   UNL     1     -11.949  11.093  70.469  1.00  0.00    -0.475 A  
HETATM   13  C   UNL     1     -11.716  12.250  69.741  1.00  0.00    -0.368 A  
HETATM   14  C   UNL     1     -11.438   9.882  70.011  1.00  0.00    -0.274 A  
HETATM   15  C   UNL     1     -11.703   8.681  70.831  1.00  0.00    -0.252 C  
HETATM   16  C   UNL     1     -11.030   7.430  70.468  1.00  0.00    -0.270 C  
HETATM   17  O   UNL     1     -12.461   8.713  71.799  1.00  0.00    -0.309 OA 
HETATM   18  C   UNL     1     -10.249   7.460  69.377  1.00  0.00    -0.201 C  
HETATM   19  C   UNL     1     -11.155   6.185  71.255  1.00  0.00    -0.291 C  
HETATM   20  O   UNL     1     -12.007   6.262  72.298  1.00  0.00    -0.312 OA 
HETATM   21  O   UNL     1     -10.548   5.160  70.987  1.00  0.00    -0.212 OA 
HETATM   22  N   UNL     1     -10.053   8.529  68.509  1.00  0.00    -0.189 NA 
HETATM   23  C   UNL     1     -10.703   9.788  68.809  1.00  0.00    -0.215 A  
HETATM   24  C   UNL     1     -10.301  10.816  66.516  1.00  0.00    -0.300 C  
HETATM   25  C   UNL     1     -10.661  10.950  67.977  1.00  0.00    -0.239 A  
BRANCH  22  26
HETATM   26  C   UNL     1      -8.792   8.503  67.705  1.00  0.00    -0.136 C  
HETATM   27  C   UNL     1      -7.846   7.326  67.790  1.00  0.00    -0.114 C  
HETATM   28  C   UNL     1      -7.387   8.666  68.254  1.00  0.00    -0.087 C  
ENDBRANCH  22  26
ENDBRANCH   7  11
ENDBRANCH   2   4
TORSDOF 3
ENDMDL
MODEL       27
REMARK 921   NORMALIZED FREE ENERGY PREDICTED BY IDOCK:   -6.41 KCAL/MOL
REMARK 922        TOTAL FREE ENERGY PREDICTED BY IDOCK:   -8.22 KCAL/MOL
REMARK 923 INTER-LIGAND FREE ENERGY PREDICTED BY IDOCK:   -7.91 KCAL/MOL
REMARK 924 INTRA-LIGAND FREE ENERGY PREDICTED BY IDOCK:   -0.31 KCAL/MOL
REMARK 927      BINDING AFFINITY PREDICTED BY RF-SCORE:    0.00 PKD
ROOT
HETATM    1  C   UNL     1     -13.142  16.051  73.629  1.00  0.00    -0.499 C  
HETATM    2  N   UNL     1     -13.862  15.465  72.510  1.00  0.00    -0.532 NA 
HETATM    3  H   UNL     1     -14.720  15.870  72.135  1.00  0.00     0.000 HD 
ENDROOT
BRANCH   2   4
HETATM    4  C   UNL     1     -13.284  14.297  71.986  1.00  0.00    -0.385 A  
HETATM    5  N   UNL     1     -13.630  13.099  72.492  1.00  0.00    -0.625 NA 
HETATM    6  C   UNL     1     -13.113  11.980  71.921  1.00  0.00    -0.370 A  
HETATM    7  C   UNL     1     -12.192  11.949  70.878  1.00  0.00    -0.351 A  
HETATM    8  C   UNL     1     -12.119  15.710  70.236  1.00  0.00    -0.413 C  
HETATM    9  C   UNL     1     -11.822  13.217  70.402  1.00  0.00    -0.259 A  
HETATM   10  C   UNL     1     -12.404  14.395  70.905  1.00  0.00    -0.419 A  
BRANCH   7  11
HETATM   11  C   UNL     1     -11.748  10.683  70.213  1.00  0.00    -0.433 A  
HETATM   12  C   UNL     1     -11.197   8.319  70.510  1.00  0.00    -0.247 A  
HETATM   13  C   UNL     1     -11.621   9.536  71.022  1.00  0.00    -0.419 A  
HETATM   14  C   UNL     1     -10.763   8.245  69.190  1.00  0.00    -0.117 A  
HETATM   15  C   UNL     1     -10.309   6.928  68.698  1.00  0.00    -0.186 C  
HETATM   16  C   UNL     1      -9.683   6.859  67.374  1.00  0.00    -0.172 C  
HETATM   17  O   UNL     1     -10.439   5.906  69.370  1.00  0.00    -0.218 OA 
HETATM   18  C   UNL     1      -9.610   8.006  66.681  1.00  0.00    -0.230 C  
HETATM   19  C   UNL     1      -9.120   5.615  66.808  1.00  0.00    -0.120 C  
HETATM   20  O   UNL     1      -9.299   4.518  67.572  1.00  0.00    -0.130 OA 
HETATM   21  O   UNL     1      -8.547   5.569  65.730  1.00  0.00    -0.134 OA 
HETATM   22  N   UNL     1     -10.120   9.247  67.048  1.00  0.00    -0.227 NA 
HETATM   23  C   UNL     1     -10.761   9.373  68.341  1.00  0.00    -0.168 A  
HETATM   24  C   UNL     1     -11.833  11.629  67.854  1.00  0.00    -0.273 C  
HETATM   25  C   UNL     1     -11.398  10.557  68.826  1.00  0.00    -0.310 A  
BRANCH  22  26
HETATM   26  C   UNL     1      -9.488  10.437  66.398  1.00  0.00    -0.169 C  
HETATM   27  C   UNL     1      -9.681  10.705  64.923  1.00  0.00    -0.341 C  
HETATM   28  C   UNL     1      -8.315  10.403  65.437  1.00  0.00    -0.166 C  
ENDBRANCH  22  26
ENDBRANCH   7  11
ENDBRANCH   2   4
TORSDOF 3
ENDMDL
MODEL       28
REMARK 921   NORMALIZED FREE ENERGY PREDICTED BY IDOCK:   -6.39 KCAL/MOL
REMARK 922        TOTAL FREE ENERGY PREDICTED BY IDOCK:   -8.19 KCAL/MOL
REMARK 923 INTER-LIGAND FREE ENERGY PREDICTED BY IDOCK:   -7.29 KCAL/MOL
REMARK 924 INTRA-LIGAND FREE ENERGY PREDICTED BY IDOCK:   -0.90 KCAL/MOL
REMARK 927      BINDING AFFINITY PREDICTED BY RF-SCORE:    0.00 PKD
ROOT
HETATM    1  C   UNL     1      -8.744  19.084  66.428  1.00  0.00    -0.317 C  
HETATM    2  N   UNL     1      -8.547  17.823  65.732  1.00  0.00    -0.426 NA 
HETATM    3  H   UNL     1      -8.070  17.760  64.832  1.00  0.00     0.000 HD 
ENDROOT
BRANCH   2   4
HETATM    4  C   UNL     1      -9.064  16.698  66.396  1.00  0.00    -0.292 A  
HETATM    5  N   UNL     1      -8.500  16.289  67.548  1.00  0.00    -0.166 NA 
HETATM    6  C   UNL     1      -9.062  15.242  68.208  1.00  0.00    -0.181 A  
HETATM    7  C   UNL     1     -10.152  14.496  67.774  1.00  0.00    -0.225 A  
HETATM    8  C   UNL     1     -10.920  16.589  64.677  1.00  0.00    -0.096 C  
HETATM    9  C   UNL     1     -10.689  14.923  66.549  1.00  0.00    -0.309 A  
HETATM   10  C   UNL     1     -10.194  16.058  65.881  1.00  0.00    -0.386 A  
BRANCH   7  11
HETATM   11  C   UNL     1     -10.798  13.429  68.602  1.00  0.00    -0.287 A  
HETATM   12  C   UNL     1     -12.295  12.939  70.473  1.00  0.00    -0.362 A  
HETATM   13  C   UNL     1     -11.663  13.844  69.635  1.00  0.00    -0.370 A  
HETATM   14  C   UNL     1     -11.980  11.586  70.383  1.00  0.00    -0.459 A  
HETATM   15  C   UNL     1     -12.672  10.665  71.308  1.00  0.00    -0.433 C  
HETATM   16  C   UNL     1     -12.232   9.268  71.355  1.00  0.00    -0.426 C  
HETATM   17  O   UNL     1     -13.593  11.044  72.029  1.00  0.00    -0.281 OA 
HETATM   18  C   UNL     1     -11.249   8.916  70.512  1.00  0.00    -0.252 C  
HETATM   19  C   UNL     1     -12.793   8.273  72.293  1.00  0.00    -0.277 C  
HETATM   20  O   UNL     1     -13.809   8.728  73.054  1.00  0.00    -0.225 OA 
HETATM   21  O   UNL     1     -12.386   7.124  72.374  1.00  0.00    -0.148 OA 
HETATM   22  N   UNL     1     -10.641   9.712  69.546  1.00  0.00    -0.218 NA 
HETATM   23  C   UNL     1     -11.045  11.099  69.443  1.00  0.00    -0.255 A  
HETATM   24  C   UNL     1      -9.947  11.499  67.183  1.00  0.00    -0.222 C  
HETATM   25  C   UNL     1     -10.571  12.019  68.456  1.00  0.00    -0.252 A  
BRANCH  22  26
HETATM   26  C   UNL     1      -9.276   9.288  69.107  1.00  0.00    -0.149 C  
HETATM   27  C   UNL     1      -8.530   8.200  69.846  1.00  0.00    -0.125 C  
HETATM   28  C   UNL     1      -7.979   9.585  69.835  1.00  0.00    -0.154 C  
ENDBRANCH  22  26
ENDBRANCH   7  11
ENDBRANCH   2   4
TORSDOF 3
ENDMDL
MODEL       29
REMARK 921   NORMALIZED FREE ENERGY PREDICTED BY IDOCK:   -6.38 KCAL/MOL
REMARK 922        TOTAL FREE ENERGY PREDICTED BY IDOCK:   -8.18 KCAL/MOL
REMARK 923 INTER-LIGAND FREE ENERGY PREDICTED BY IDOCK:   -7.40 KCAL/MOL
REMARK 924 INTRA-LIGAND FREE ENERGY PREDICTED BY IDOCK:   -0.78 KCAL/MOL
REMARK 927      BINDING AFFINITY PREDICTED BY RF-SCORE:    0.00 PKD
ROOT
HETATM    1  C   UNL     1      -8.736   4.485  64.913  1.00  0.00    -0.140 C  
HETATM    2  N   UNL     1      -8.952   5.057  66.232  1.00  0.00    -0.123 NA 
HETATM    3  H   UNL     1      -8.970   4.492  67.081  1.00  0.00     0.000 HD 
ENDROOT
BRANCH   2   4
HETATM    4  C   UNL     1      -9.135   6.450  66.245  1.00  0.00    -0.151 A  
HETATM    5  N   UNL     1      -8.398   7.225  65.427  1.00  0.00    -0.139 NA 
HETATM    6  C   UNL     1      -8.643   8.562  65.405  1.00  0.00    -0.176 A  
HETATM    7  C   UNL     1      -9.560   9.234  66.206  1.00  0.00    -0.313 A  
HETATM    8  C   UNL     1     -11.051   6.141  67.872  1.00  0.00    -0.311 C  
HETATM    9  C   UNL     1     -10.282   8.401  67.075  1.00  0.00    -0.377 A  
HETATM   10  C   UNL     1     -10.123   7.004  67.063  1.00  0.00    -0.298 A  
BRANCH   7  11
HETATM   11  C   UNL     1      -9.868  10.691  66.053  1.00  0.00    -0.280 A  
HETATM   12  C   UNL     1     -10.937  12.408  64.677  1.00  0.00    -0.344 A  
HETATM   13  C   UNL     1     -10.615  11.082  64.924  1.00  0.00    -0.328 A  
HETATM   14  C   UNL     1     -10.408  13.404  65.492  1.00  0.00    -0.302 A  
HETATM   15  C   UNL     1     -10.770  14.801  65.178  1.00  0.00    -0.415 C  
HETATM   16  C   UNL     1     -10.090  15.876  65.906  1.00  0.00    -0.376 C  
HETATM   17  O   UNL     1     -11.615  15.075  64.327  1.00  0.00    -0.292 OA 
HETATM   18  C   UNL     1      -9.209  15.503  66.847  1.00  0.00    -0.236 C  
HETATM   19  C   UNL     1     -10.310  17.310  65.626  1.00  0.00    -0.171 C  
HETATM   20  O   UNL     1     -11.255  17.564  64.698  1.00  0.00    -0.934 OA 
HETATM   21  O   UNL     1      -9.700  18.205  66.192  1.00  0.00    -0.449 OA 
HETATM   22  N   UNL     1      -8.913  14.208  67.260  1.00  0.00    -0.203 NA 
HETATM   23  C   UNL     1      -9.564  13.104  66.585  1.00  0.00    -0.260 A  
HETATM   24  C   UNL     1      -8.930  11.356  68.321  1.00  0.00    -0.175 C  
HETATM   25  C   UNL     1      -9.423  11.727  66.943  1.00  0.00    -0.200 A  
BRANCH  22  26
HETATM   26  C   UNL     1      -7.582  14.013  67.915  1.00  0.00    -0.155 C  
HETATM   27  C   UNL     1      -7.030  15.050  68.866  1.00  0.00    -0.114 C  
HETATM   28  C   UNL     1      -6.313  14.777  67.588  1.00  0.00    -0.139 C  
ENDBRANCH  22  26
ENDBRANCH   7  11
ENDBRANCH   2   4
TORSDOF 3
ENDMDL
MODEL       30
REMARK 921   NORMALIZED FREE ENERGY PREDICTED BY IDOCK:   -6.37 KCAL/MOL
REMARK 922        TOTAL FREE ENERGY PREDICTED BY IDOCK:   -8.16 KCAL/MOL
REMARK 923 INTER-LIGAND FREE ENERGY PREDICTED BY IDOCK:   -7.30 KCAL/MOL
REMARK 924 INTRA-LIGAND FREE ENERGY PREDICTED BY IDOCK:   -0.86 KCAL/MOL
REMARK 927      BINDING AFFINITY PREDICTED BY RF-SCORE:    0.00 PKD
ROOT
HETATM    1  C   UNL     1      -9.649   4.016  67.175  1.00  0.00    -0.196 C  
HETATM    2  N   UNL     1      -9.479   4.914  68.305  1.00  0.00    -0.131 NA 
HETATM    3  H   UNL     1      -9.379   4.580  69.264  1.00  0.00     0.000 HD 
ENDROOT
BRANCH   2   4
HETATM    4  C   UNL     1      -9.463   6.279  67.974  1.00  0.00    -0.116 A  
HETATM    5  N   UNL     1     -10.547   6.838  67.404  1.00  0.00    -0.259 NA 
HETATM    6  C   UNL     1     -10.534   8.175  67.158  1.00  0.00    -0.326 A  
HETATM    7  C   UNL     1      -9.464   9.034  67.387  1.00  0.00    -0.179 A  
HETATM    8  C   UNL     1      -7.184   6.473  69.062  1.00  0.00    -0.091 C  
HETATM    9  C   UNL     1      -8.336   8.411  67.943  1.00  0.00    -0.131 A  
HETATM   10  C   UNL     1      -8.342   7.049  68.297  1.00  0.00    -0.123 A  
BRANCH   7  11
HETATM   11  C   UNL     1      -9.551  10.517  67.206  1.00  0.00    -0.188 A  
HETATM   12  C   UNL     1      -9.617  12.698  68.310  1.00  0.00    -0.208 A  
HETATM   13  C   UNL     1      -9.522  11.316  68.366  1.00  0.00    -0.192 A  
HETATM   14  C   UNL     1      -9.873  13.319  67.091  1.00  0.00    -0.237 A  
HETATM   15  C   UNL     1      -9.979  14.793  67.089  1.00  0.00    -0.236 C  
HETATM   16  C   UNL     1     -10.422  15.455  65.859  1.00  0.00    -0.354 C  
HETATM   17  O   UNL     1      -9.711  15.462  68.085  1.00  0.00    -0.209 OA 
HETATM   18  C   UNL     1     -10.658  14.665  64.800  1.00  0.00    -0.353 C  
HETATM   19  C   UNL     1     -10.640  16.914  65.758  1.00  0.00    -0.230 C  
HETATM   20  O   UNL     1     -10.319  17.609  66.868  1.00  0.00    -0.326 OA 
HETATM   21  O   UNL     1     -11.065  17.459  64.751  1.00  0.00    -0.973 OA 
HETATM   22  N   UNL     1     -10.469  13.290  64.714  1.00  0.00    -0.370 NA 
HETATM   23  C   UNL     1     -10.020  12.582  65.895  1.00  0.00    -0.257 A  
HETATM   24  C   UNL     1      -9.404  10.440  64.668  1.00  0.00    -0.304 C  
HETATM   25  C   UNL     1      -9.708  11.187  65.945  1.00  0.00    -0.268 A  
BRANCH  22  26
HETATM   26  C   UNL     1     -11.262  12.579  63.663  1.00  0.00    -0.483 C  
HETATM   27  C   UNL     1     -12.508  13.206  63.081  1.00  0.00    -0.115 C  
HETATM   28  C   UNL     1     -12.624  11.941  63.861  1.00  0.00    -0.450 C  
ENDBRANCH  22  26
ENDBRANCH   7  11
ENDBRANCH   2   4
TORSDOF 3
ENDMDL
MODEL       31
REMARK 921   NORMALIZED FREE ENERGY PREDICTED BY IDOCK:   -6.31 KCAL/MOL
REMARK 922        TOTAL FREE ENERGY PREDICTED BY IDOCK:   -8.09 KCAL/MOL
REMARK 923 INTER-LIGAND FREE ENERGY PREDICTED BY IDOCK:   -7.33 KCAL/MOL
REMARK 924 INTRA-LIGAND FREE ENERGY PREDICTED BY IDOCK:   -0.76 KCAL/MOL
REMARK 927      BINDING AFFINITY PREDICTED BY RF-SCORE:    0.00 PKD
ROOT
HETATM    1  C   UNL     1     -11.354  14.804  65.851  1.00  0.00    -0.331 C  
HETATM    2  N   UNL     1     -12.013  13.588  65.406  1.00  0.00    -0.358 NA 
HETATM    3  H   UNL     1     -12.754  13.588  64.705  1.00  0.00     0.000 HD 
ENDROOT
BRANCH   2   4
HETATM    4  C   UNL     1     -11.550  12.411  66.018  1.00  0.00    -0.401 A  
HETATM    5  N   UNL     1     -11.933  12.122  67.276  1.00  0.00    -0.578 NA 
HETATM    6  C   UNL     1     -11.530  10.943  67.821  1.00  0.00    -0.243 A  
HETATM    7  C   UNL     1     -10.694  10.010  67.216  1.00  0.00    -0.309 A  
HETATM    8  C   UNL     1     -10.433  11.767  63.839  1.00  0.00    -0.437 C  
HETATM    9  C   UNL     1     -10.281  10.363  65.922  1.00  0.00    -0.302 A  
HETATM   10  C   UNL     1     -10.749  11.529  65.289  1.00  0.00    -0.337 A  
BRANCH   7  11
HETATM   11  C   UNL     1     -10.382   8.677  67.820  1.00  0.00    -0.303 A  
HETATM   12  C   UNL     1     -10.430   6.250  67.521  1.00  0.00    -0.295 A  
HETATM   13  C   UNL     1     -10.663   7.532  67.047  1.00  0.00    -0.367 A  
HETATM   14  C   UNL     1     -10.026   6.069  68.840  1.00  0.00    -0.192 A  
HETATM   15  C   UNL     1      -9.805   4.682  69.298  1.00  0.00    -0.190 C  
HETATM   16  C   UNL     1      -9.552   4.453  70.723  1.00  0.00    -0.259 C  
HETATM   17  O   UNL     1      -9.834   3.731  68.519  1.00  0.00    -0.081 OA 
HETATM   18  C   UNL     1      -9.496   5.541  71.508  1.00  0.00    -0.148 C  
HETATM   19  C   UNL     1      -9.394   3.107  71.313  1.00  0.00    -0.137 C  
HETATM   20  O   UNL     1      -9.418   2.096  70.420  1.00  0.00    -0.126 OA 
HETATM   21  O   UNL     1      -9.242   2.913  72.509  1.00  0.00    -0.091 OA 
HETATM   22  N   UNL     1      -9.585   6.871  71.113  1.00  0.00    -0.166 NA 
HETATM   23  C   UNL     1      -9.821   7.160  69.714  1.00  0.00    -0.173 A  
HETATM   24  C   UNL     1      -9.226   9.629  69.876  1.00  0.00    -0.255 C  
HETATM   25  C   UNL     1      -9.861   8.470  69.143  1.00  0.00    -0.186 A  
BRANCH  22  26
HETATM   26  C   UNL     1     -10.007   7.845  72.167  1.00  0.00    -0.207 C  
HETATM   27  C   UNL     1     -10.562   7.361  73.488  1.00  0.00    -0.388 C  
HETATM   28  C   UNL     1     -11.438   8.147  72.572  1.00  0.00    -0.470 C  
ENDBRANCH  22  26
ENDBRANCH   7  11
ENDBRANCH   2   4
TORSDOF 3
ENDMDL
MODEL       32
REMARK 921   NORMALIZED FREE ENERGY PREDICTED BY IDOCK:   -6.25 KCAL/MOL
REMARK 922        TOTAL FREE ENERGY PREDICTED BY IDOCK:   -8.02 KCAL/MOL
REMARK 923 INTER-LIGAND FREE ENERGY PREDICTED BY IDOCK:   -7.49 KCAL/MOL
REMARK 924 INTRA-LIGAND FREE ENERGY PREDICTED BY IDOCK:   -0.54 KCAL/MOL
REMARK 927      BINDING AFFINITY PREDICTED BY RF-SCORE:    0.00 PKD
ROOT
HETATM    1  C   UNL     1     -10.932  16.192  68.708  1.00  0.00    -0.330 C  
HETATM    2  N   UNL     1     -12.222  15.682  69.142  1.00  0.00    -0.589 NA 
HETATM    3  H   UNL     1     -13.067  16.255  69.148  1.00  0.00     0.000 HD 
ENDROOT
BRANCH   2   4
HETATM    4  C   UNL     1     -12.214  14.339  69.554  1.00  0.00    -0.297 A  
HETATM    5  N   UNL     1     -11.964  13.370  68.655  1.00  0.00    -0.351 NA 
HETATM    6  C   UNL     1     -11.890  12.084  69.090  1.00  0.00    -0.311 A  
HETATM    7  C   UNL     1     -12.112  11.653  70.394  1.00  0.00    -0.462 A  
HETATM    8  C   UNL     1     -12.542  15.114  71.943  1.00  0.00    -0.417 C  
HETATM    9  C   UNL     1     -12.411  12.685  71.297  1.00  0.00    -0.276 A  
HETATM   10  C   UNL     1     -12.406  14.036  70.904  1.00  0.00    -0.443 A  
BRANCH   7  11
HETATM   11  C   UNL     1     -11.901  10.238  70.836  1.00  0.00    -0.473 A  
HETATM   12  C   UNL     1     -12.897   8.273  71.900  1.00  0.00    -0.371 A  
HETATM   13  C   UNL     1     -12.992   9.577  71.436  1.00  0.00    -0.450 A  
HETATM   14  C   UNL     1     -11.662   7.632  71.892  1.00  0.00    -0.328 A  
HETATM   15  C   UNL     1     -11.612   6.249  72.409  1.00  0.00    -0.282 C  
HETATM   16  C   UNL     1     -10.301   5.616  72.576  1.00  0.00    -0.240 C  
HETATM   17  O   UNL     1     -12.634   5.631  72.701  1.00  0.00     0.017 OA 
HETATM   18  C   UNL     1      -9.232   6.335  72.200  1.00  0.00    -0.144 C  
HETATM   19  C   UNL     1     -10.119   4.269  73.156  1.00  0.00    -0.148 C  
HETATM   20  O   UNL     1     -11.266   3.622  73.448  1.00  0.00    -0.218 OA 
HETATM   21  O   UNL     1      -9.023   3.765  73.350  1.00  0.00    -0.095 OA 
HETATM   22  N   UNL     1      -9.228   7.593  71.605  1.00  0.00    -0.133 NA 
HETATM   23  C   UNL     1     -10.496   8.263  71.403  1.00  0.00    -0.219 A  
HETATM   24  C   UNL     1      -9.581  10.029  69.817  1.00  0.00    -0.249 C  
HETATM   25  C   UNL     1     -10.663   9.518  70.739  1.00  0.00    -0.391 A  
BRANCH  22  26
HETATM   26  C   UNL     1      -7.969   8.388  71.752  1.00  0.00    -0.133 C  
HETATM   27  C   UNL     1      -6.620   7.706  71.740  1.00  0.00    -0.042 C  
HETATM   28  C   UNL     1      -7.072   8.408  72.975  1.00  0.00    -0.111 C  
ENDBRANCH  22  26
ENDBRANCH   7  11
ENDBRANCH   2   4
TORSDOF 3
ENDMDL
MODEL       33
REMARK 921   NORMALIZED FREE ENERGY PREDICTED BY IDOCK:   -6.24 KCAL/MOL
REMARK 922        TOTAL FREE ENERGY PREDICTED BY IDOCK:   -8.01 KCAL/MOL
REMARK 923 INTER-LIGAND FREE ENERGY PREDICTED BY IDOCK:   -7.17 KCAL/MOL
REMARK 924 INTRA-LIGAND FREE ENERGY PREDICTED BY IDOCK:   -0.84 KCAL/MOL
REMARK 927      BINDING AFFINITY PREDICTED BY RF-SCORE:    0.00 PKD
ROOT
HETATM    1  C   UNL     1      -7.180  20.147  65.636  1.00  0.00    -0.280 C  
HETATM    2  N   UNL     1      -8.548  19.954  66.088  1.00  0.00    -0.460 NA 
HETATM    3  H   UNL     1      -9.183  20.732  66.269  1.00  0.00     0.000 HD 
ENDROOT
BRANCH   2   4
HETATM    4  C   UNL     1      -8.927  18.612  66.256  1.00  0.00    -0.219 A  
HETATM    5  N   UNL     1      -8.096  17.631  65.856  1.00  0.00    -0.554 NA 
HETATM    6  C   UNL     1      -8.453  16.342  66.094  1.00  0.00    -0.278 A  
HETATM    7  C   UNL     1      -9.647  15.921  66.671  1.00  0.00    -0.265 A  
HETATM    8  C   UNL     1     -11.005  19.396  67.474  1.00  0.00    -0.416 C  
HETATM    9  C   UNL     1     -10.507  16.967  67.039  1.00  0.00    -0.279 A  
HETATM   10  C   UNL     1     -10.135  18.316  66.893  1.00  0.00    -0.377 A  
BRANCH   7  11
HETATM   11  C   UNL     1      -9.932  14.492  67.015  1.00  0.00    -0.255 A  
HETATM   12  C   UNL     1     -10.162  12.841  68.804  1.00  0.00    -0.094 A  
HETATM   13  C   UNL     1      -9.931  14.140  68.380  1.00  0.00    -0.235 A  
HETATM   14  C   UNL     1     -10.278  11.822  67.863  1.00  0.00    -0.203 A  
HETATM   15  C   UNL     1     -10.511  10.454  68.369  1.00  0.00    -0.189 C  
HETATM   16  C   UNL     1     -10.459   9.343  67.415  1.00  0.00    -0.343 C  
HETATM   17  O   UNL     1     -10.739  10.233  69.557  1.00  0.00    -0.215 OA 
HETATM   18  C   UNL     1     -10.245   9.661  66.129  1.00  0.00    -0.205 C  
HETATM   19  C   UNL     1     -10.598   7.926  67.812  1.00  0.00    -0.175 C  
HETATM   20  O   UNL     1     -10.862   7.732  69.120  1.00  0.00    -0.171 OA 
HETATM   21  O   UNL     1     -10.496   6.996  67.026  1.00  0.00    -0.259 OA 
HETATM   22  N   UNL     1     -10.130  10.936  65.583  1.00  0.00    -0.250 NA 
HETATM   23  C   UNL     1     -10.187  12.075  66.476  1.00  0.00    -0.206 A  
HETATM   24  C   UNL     1     -10.514  13.803  64.637  1.00  0.00    -0.433 C  
HETATM   25  C   UNL     1     -10.161  13.443  66.061  1.00  0.00    -0.301 A  
BRANCH  22  26
HETATM   26  C   UNL     1      -9.400  11.032  64.281  1.00  0.00    -0.205 C  
HETATM   27  C   UNL     1      -9.265   9.826  63.380  1.00  0.00    -0.217 C  
HETATM   28  C   UNL     1      -8.042  10.430  63.980  1.00  0.00    -0.092 C  
ENDBRANCH  22  26
ENDBRANCH   7  11
ENDBRANCH   2   4
TORSDOF 3
ENDMDL
MODEL       34
REMARK 921   NORMALIZED FREE ENERGY PREDICTED BY IDOCK:   -6.24 KCAL/MOL
REMARK 922        TOTAL FREE ENERGY PREDICTED BY IDOCK:   -8.01 KCAL/MOL
REMARK 923 INTER-LIGAND FREE ENERGY PREDICTED BY IDOCK:   -7.69 KCAL/MOL
REMARK 924 INTRA-LIGAND FREE ENERGY PREDICTED BY IDOCK:   -0.32 KCAL/MOL
REMARK 927      BINDING AFFINITY PREDICTED BY RF-SCORE:    0.00 PKD
ROOT
HETATM    1  C   UNL     1     -10.695  16.661  65.059  1.00  0.00    -0.152 C  
HETATM    2  N   UNL     1     -11.044  15.502  64.253  1.00  0.00    -0.724 NA 
HETATM    3  H   UNL     1     -11.439  15.582  63.316  1.00  0.00     0.000 HD 
ENDROOT
BRANCH   2   4
HETATM    4  C   UNL     1     -10.793  14.263  64.866  1.00  0.00    -0.416 A  
HETATM    5  N   UNL     1     -10.010  14.210  65.960  1.00  0.00    -0.313 NA 
HETATM    6  C   UNL     1      -9.840  13.011  66.578  1.00  0.00    -0.263 A  
HETATM    7  C   UNL     1     -10.359  11.794  66.149  1.00  0.00    -0.266 A  
HETATM    8  C   UNL     1     -12.400  13.179  63.237  1.00  0.00    -0.366 C  
HETATM    9  C   UNL     1     -11.136  11.880  64.983  1.00  0.00    -0.360 A  
HETATM   10  C   UNL     1     -11.410  13.114  64.367  1.00  0.00    -0.400 A  
BRANCH   7  11
HETATM   11  C   UNL     1     -10.235  10.527  66.937  1.00  0.00    -0.280 A  
HETATM   12  C   UNL     1      -9.983   8.096  66.846  1.00  0.00    -0.343 A  
HETATM   13  C   UNL     1     -10.085   9.326  66.215  1.00  0.00    -0.322 A  
HETATM   14  C   UNL     1     -10.156   8.017  68.225  1.00  0.00    -0.227 A  
HETATM   15  C   UNL     1     -10.050   6.681  68.847  1.00  0.00    -0.165 C  
HETATM   16  C   UNL     1     -10.402   6.544  70.262  1.00  0.00    -0.241 C  
HETATM   17  O   UNL     1      -9.683   5.697  68.207  1.00  0.00    -0.120 OA 
HETATM   18  C   UNL     1     -10.756   7.667  70.907  1.00  0.00    -0.235 C  
HETATM   19  C   UNL     1     -10.411   5.248  70.974  1.00  0.00    -0.228 C  
HETATM   20  O   UNL     1      -9.987   4.200  70.239  1.00  0.00    -0.201 OA 
HETATM   21  O   UNL     1     -10.761   5.125  72.138  1.00  0.00    -0.219 OA 
HETATM   22  N   UNL     1     -10.764   8.962  70.402  1.00  0.00    -0.219 NA 
HETATM   23  C   UNL     1     -10.413   9.162  69.011  1.00  0.00    -0.221 A  
HETATM   24  C   UNL     1     -10.116  11.682  69.199  1.00  0.00     0.053 C  
HETATM   25  C   UNL     1     -10.302  10.434  68.368  1.00  0.00    -0.198 A  
BRANCH  22  26
HETATM   26  C   UNL     1     -11.657   9.937  71.103  1.00  0.00    -0.389 C  
HETATM   27  C   UNL     1     -12.694   9.460  72.094  1.00  0.00    -0.460 C  
HETATM   28  C   UNL     1     -13.138  10.130  70.839  1.00  0.00    -0.412 C  
ENDBRANCH  22  26
ENDBRANCH   7  11
ENDBRANCH   2   4
TORSDOF 3
ENDMDL
MODEL       35
REMARK 921   NORMALIZED FREE ENERGY PREDICTED BY IDOCK:   -6.23 KCAL/MOL
REMARK 922        TOTAL FREE ENERGY PREDICTED BY IDOCK:   -8.00 KCAL/MOL
REMARK 923 INTER-LIGAND FREE ENERGY PREDICTED BY IDOCK:   -7.84 KCAL/MOL
REMARK 924 INTRA-LIGAND FREE ENERGY PREDICTED BY IDOCK:   -0.16 KCAL/MOL
REMARK 927      BINDING AFFINITY PREDICTED BY RF-SCORE:    0.00 PKD
ROOT
HETATM    1  C   UNL     1     -11.431  16.076  69.326  1.00  0.00    -0.350 C  
HETATM    2  N   UNL     1     -12.544  15.484  70.050  1.00  0.00    -0.589 NA 
HETATM    3  H   UNL     1     -13.328  16.035  70.400  1.00  0.00     0.000 HD 
ENDROOT
BRANCH   2   4
HETATM    4  C   UNL     1     -12.454  14.094  70.231  1.00  0.00    -0.353 A  
HETATM    5  N   UNL     1     -11.910  13.331  69.264  1.00  0.00    -0.322 NA 
HETATM    6  C   UNL     1     -11.769  11.999  69.491  1.00  0.00    -0.342 A  
HETATM    7  C   UNL     1     -12.194  11.317  70.626  1.00  0.00    -0.489 A  
HETATM    8  C   UNL     1     -13.351  14.384  72.581  1.00  0.00    -0.599 C  
HETATM    9  C   UNL     1     -12.794  12.136  71.596  1.00  0.00    -0.390 A  
HETATM   10  C   UNL     1     -12.876  13.531  71.438  1.00  0.00    -0.440 A  
BRANCH   7  11
HETATM   11  C   UNL     1     -11.905   9.869  70.869  1.00  0.00    -0.443 A  
HETATM   12  C   UNL     1     -12.158   7.976  72.397  1.00  0.00    -0.374 A  
HETATM   13  C   UNL     1     -12.388   9.302  72.066  1.00  0.00    -0.433 A  
HETATM   14  C   UNL     1     -11.323   7.204  71.595  1.00  0.00    -0.282 A  
HETATM   15  C   UNL     1     -11.099   5.801  72.000  1.00  0.00    -0.260 C  
HETATM   16  C   UNL     1     -10.090   5.022  71.278  1.00  0.00    -0.276 C  
HETATM   17  O   UNL     1     -11.731   5.285  72.920  1.00  0.00    -0.295 OA 
HETATM   18  C   UNL     1      -9.468   5.637  70.260  1.00  0.00    -0.161 C  
HETATM   19  C   UNL     1      -9.723   3.637  71.640  1.00  0.00    -0.166 C  
HETATM   20  O   UNL     1     -10.451   3.106  72.644  1.00  0.00    -0.156 OA 
HETATM   21  O   UNL     1      -8.841   3.008  71.076  1.00  0.00    -0.074 OA 
HETATM   22  N   UNL     1      -9.717   6.914  69.767  1.00  0.00    -0.164 NA 
HETATM   23  C   UNL     1     -10.714   7.727  70.432  1.00  0.00    -0.236 A  
HETATM   24  C   UNL     1     -10.890   9.456  68.575  1.00  0.00    -0.149 C  
HETATM   25  C   UNL     1     -11.135   9.023  70.001  1.00  0.00    -0.197 A  
BRANCH  22  26
HETATM   26  C   UNL     1      -8.599   7.558  69.010  1.00  0.00    -0.136 C  
HETATM   27  C   UNL     1      -7.194   7.006  69.090  1.00  0.00    -0.090 C  
HETATM   28  C   UNL     1      -7.472   8.372  69.618  1.00  0.00    -0.073 C  
ENDBRANCH  22  26
ENDBRANCH   7  11
ENDBRANCH   2   4
TORSDOF 3
ENDMDL
MODEL       36
REMARK 921   NORMALIZED FREE ENERGY PREDICTED BY IDOCK:   -6.22 KCAL/MOL
REMARK 922        TOTAL FREE ENERGY PREDICTED BY IDOCK:   -7.99 KCAL/MOL
REMARK 923 INTER-LIGAND FREE ENERGY PREDICTED BY IDOCK:   -7.15 KCAL/MOL
REMARK 924 INTRA-LIGAND FREE ENERGY PREDICTED BY IDOCK:   -0.84 KCAL/MOL
REMARK 927      BINDING AFFINITY PREDICTED BY RF-SCORE:    0.00 PKD
ROOT
HETATM    1  C   UNL     1      -9.082  15.430  66.157  1.00  0.00    -0.304 C  
HETATM    2  N   UNL     1      -9.788  14.342  65.500  1.00  0.00    -0.510 NA 
HETATM    3  H   UNL     1     -10.145  14.414  64.547  1.00  0.00     0.000 HD 
ENDROOT
BRANCH   2   4
HETATM    4  C   UNL     1      -9.940  13.184  66.281  1.00  0.00    -0.285 A  
HETATM    5  N   UNL     1      -8.905  12.739  67.018  1.00  0.00    -0.213 NA 
HETATM    6  C   UNL     1      -9.098  11.659  67.821  1.00  0.00    -0.175 A  
HETATM    7  C   UNL     1     -10.269  10.913  67.914  1.00  0.00    -0.205 A  
HETATM    8  C   UNL     1     -12.385  13.114  65.625  1.00  0.00    -0.519 C  
HETATM    9  C   UNL     1     -11.314  11.380  67.102  1.00  0.00    -0.327 A  
HETATM   10  C   UNL     1     -11.183  12.548  66.327  1.00  0.00    -0.359 A  
BRANCH   7  11
HETATM   11  C   UNL     1     -10.458   9.805  68.903  1.00  0.00    -0.233 A  
HETATM   12  C   UNL     1     -10.861   9.218  71.243  1.00  0.00    -0.417 A  
HETATM   13  C   UNL     1     -10.693  10.166  70.245  1.00  0.00    -0.352 A  
HETATM   14  C   UNL     1     -10.670   7.872  70.948  1.00  0.00    -0.234 A  
HETATM   15  C   UNL     1     -10.848   6.904  72.050  1.00  0.00    -0.225 C  
HETATM   16  C   UNL     1     -10.482   5.505  71.812  1.00  0.00    -0.287 C  
HETATM   17  O   UNL     1     -11.286   7.246  73.147  1.00  0.00    -0.302 OA 
HETATM   18  C   UNL     1     -10.050   5.197  70.579  1.00  0.00    -0.256 C  
HETATM   19  C   UNL     1     -10.542   4.462  72.858  1.00  0.00    -0.193 C  
HETATM   20  O   UNL     1     -11.041   4.878  74.039  1.00  0.00    -0.287 OA 
HETATM   21  O   UNL     1     -10.181   3.309  72.676  1.00  0.00    -0.153 OA 
HETATM   22  N   UNL     1      -9.969   6.041  69.477  1.00  0.00    -0.169 NA 
HETATM   23  C   UNL     1     -10.330   7.433  69.649  1.00  0.00    -0.223 A  
HETATM   24  C   UNL     1     -10.468   7.952  67.162  1.00  0.00    -0.414 C  
HETATM   25  C   UNL     1     -10.373   8.404  68.600  1.00  0.00    -0.222 A  
BRANCH  22  26
HETATM   26  C   UNL     1      -9.007   5.637  68.406  1.00  0.00    -0.114 C  
HETATM   27  C   UNL     1      -8.351   4.275  68.430  1.00  0.00    -0.098 C  
HETATM   28  C   UNL     1      -7.506   5.495  68.571  1.00  0.00    -0.076 C  
ENDBRANCH  22  26
ENDBRANCH   7  11
ENDBRANCH   2   4
TORSDOF 3
ENDMDL
MODEL       37
REMARK 921   NORMALIZED FREE ENERGY PREDICTED BY IDOCK:   -6.18 KCAL/MOL
REMARK 922        TOTAL FREE ENERGY PREDICTED BY IDOCK:   -7.95 KCAL/MOL
REMARK 923 INTER-LIGAND FREE ENERGY PREDICTED BY IDOCK:   -7.17 KCAL/MOL
REMARK 924 INTRA-LIGAND FREE ENERGY PREDICTED BY IDOCK:   -0.78 KCAL/MOL
REMARK 927      BINDING AFFINITY PREDICTED BY RF-SCORE:    0.00 PKD
ROOT
HETATM    1  C   UNL     1      -9.325   3.883  66.628  1.00  0.00    -0.186 C  
HETATM    2  N   UNL     1      -8.644   4.948  67.346  1.00  0.00    -0.105 NA 
HETATM    3  H   UNL     1      -7.954   4.767  68.075  1.00  0.00     0.000 HD 
ENDROOT
BRANCH   2   4
HETATM    4  C   UNL     1      -9.011   6.247  66.955  1.00  0.00    -0.120 A  
HETATM    5  N   UNL     1     -10.173   6.769  67.391  1.00  0.00    -0.174 NA 
HETATM    6  C   UNL     1     -10.472   8.052  67.058  1.00  0.00    -0.340 A  
HETATM    7  C   UNL     1      -9.707   8.882  66.245  1.00  0.00    -0.345 A  
HETATM    8  C   UNL     1      -6.772   6.485  65.796  1.00  0.00    -0.048 C  
HETATM    9  C   UNL     1      -8.523   8.292  65.774  1.00  0.00    -0.164 A  
HETATM   10  C   UNL     1      -8.134   6.999  66.169  1.00  0.00    -0.119 A  
BRANCH   7  11
HETATM   11  C   UNL     1     -10.030  10.324  66.011  1.00  0.00    -0.308 A  
HETATM   12  C   UNL     1     -10.982  11.969  64.470  1.00  0.00    -0.369 A  
HETATM   13  C   UNL     1     -10.659  10.660  64.795  1.00  0.00    -0.184 A  
HETATM   14  C   UNL     1     -10.568  13.003  65.304  1.00  0.00    -0.320 A  
HETATM   15  C   UNL     1     -10.926  14.380  64.905  1.00  0.00    -0.406 C  
HETATM   16  C   UNL     1     -10.353  15.495  65.666  1.00  0.00    -0.407 C  
HETATM   17  O   UNL     1     -11.680  14.605  63.960  1.00  0.00    -0.223 OA 
HETATM   18  C   UNL     1      -9.571  15.174  66.708  1.00  0.00    -0.245 C  
HETATM   19  C   UNL     1     -10.575  16.913  65.316  1.00  0.00    -0.120 C  
HETATM   20  O   UNL     1     -11.419  17.113  64.283  1.00  0.00    -1.062 OA 
HETATM   21  O   UNL     1     -10.050  17.841  65.913  1.00  0.00    -0.526 OA 
HETATM   22  N   UNL     1      -9.292  13.901  67.194  1.00  0.00    -0.233 NA 
HETATM   23  C   UNL     1      -9.841  12.760  66.490  1.00  0.00    -0.258 A  
HETATM   24  C   UNL     1      -9.359  11.084  68.343  1.00  0.00    -0.179 C  
HETATM   25  C   UNL     1      -9.708  11.399  66.907  1.00  0.00    -0.213 A  
BRANCH  22  26
HETATM   26  C   UNL     1      -8.036  13.762  67.995  1.00  0.00    -0.163 C  
HETATM   27  C   UNL     1      -6.873  14.702  67.777  1.00  0.00    -0.193 C  
HETATM   28  C   UNL     1      -6.706  13.252  67.475  1.00  0.00    -0.156 C  
ENDBRANCH  22  26
ENDBRANCH   7  11
ENDBRANCH   2   4
TORSDOF 3
ENDMDL
MODEL       38
REMARK 921   NORMALIZED FREE ENERGY PREDICTED BY IDOCK:   -6.18 KCAL/MOL
REMARK 922        TOTAL FREE ENERGY PREDICTED BY IDOCK:   -7.95 KCAL/MOL
REMARK 923 INTER-LIGAND FREE ENERGY PREDICTED BY IDOCK:   -7.03 KCAL/MOL
REMARK 924 INTRA-LIGAND FREE ENERGY PREDICTED BY IDOCK:   -0.91 KCAL/MOL
REMARK 927      BINDING AFFINITY PREDICTED BY RF-SCORE:    0.00 PKD
ROOT
HETATM    1  C   UNL     1     -12.056  13.694  63.942  1.00  0.00    -0.411 C  
HETATM    2  N   UNL     1     -12.585  13.958  65.270  1.00  0.00    -0.594 NA 
HETATM    3  H   UNL     1     -13.304  14.660  65.447  1.00  0.00     0.000 HD 
ENDROOT
BRANCH   2   4
HETATM    4  C   UNL     1     -12.029  13.170  66.291  1.00  0.00    -0.415 A  
HETATM    5  N   UNL     1     -11.865  11.848  66.096  1.00  0.00    -0.508 NA 
HETATM    6  C   UNL     1     -11.259  11.119  67.070  1.00  0.00    -0.219 A  
HETATM    7  C   UNL     1     -10.833  11.602  68.303  1.00  0.00    -0.260 A  
HETATM    8  C   UNL     1     -11.641  15.274  67.646  1.00  0.00    -0.249 C  
HETATM    9  C   UNL     1     -11.057  12.976  68.490  1.00  0.00    -0.298 A  
HETATM   10  C   UNL     1     -11.598  13.782  67.471  1.00  0.00    -0.387 A  
BRANCH   7  11
HETATM   11  C   UNL     1     -10.066  10.776  69.287  1.00  0.00    -0.200 A  
HETATM   12  C   UNL     1      -7.887   9.851  69.901  1.00  0.00    -0.182 A  
HETATM   13  C   UNL     1      -8.685  10.613  69.062  1.00  0.00    -0.152 A  
HETATM   14  C   UNL     1      -8.475   9.118  70.927  1.00  0.00    -0.251 A  
HETATM   15  C   UNL     1      -7.582   8.311  71.784  1.00  0.00    -0.099 C  
HETATM   16  C   UNL     1      -8.190   7.396  72.754  1.00  0.00    -0.134 C  
HETATM   17  O   UNL     1      -6.358   8.389  71.695  1.00  0.00    -0.045 OA 
HETATM   18  C   UNL     1      -9.531   7.394  72.822  1.00  0.00    -0.160 C  
HETATM   19  C   UNL     1      -7.404   6.483  73.610  1.00  0.00    -0.084 C  
HETATM   20  O   UNL     1      -6.067   6.613  73.491  1.00  0.00    -0.061 OA 
HETATM   21  O   UNL     1      -7.912   5.679  74.376  1.00  0.00    -0.104 OA 
HETATM   22  N   UNL     1     -10.413   8.209  72.121  1.00  0.00    -0.259 NA 
HETATM   23  C   UNL     1      -9.869   9.143  71.157  1.00  0.00    -0.301 A  
HETATM   24  C   UNL     1     -12.008  10.499  70.906  1.00  0.00    -0.481 C  
HETATM   25  C   UNL     1     -10.636  10.097  70.418  1.00  0.00    -0.287 A  
BRANCH  22  26
HETATM   26  C   UNL     1     -11.808   7.693  71.969  1.00  0.00    -0.301 C  
HETATM   27  C   UNL     1     -12.138   6.253  72.289  1.00  0.00    -0.255 C  
HETATM   28  C   UNL     1     -12.288   6.742  70.889  1.00  0.00    -0.336 C  
ENDBRANCH  22  26
ENDBRANCH   7  11
ENDBRANCH   2   4
TORSDOF 3
ENDMDL
MODEL       39
REMARK 921   NORMALIZED FREE ENERGY PREDICTED BY IDOCK:   -6.18 KCAL/MOL
REMARK 922        TOTAL FREE ENERGY PREDICTED BY IDOCK:   -7.94 KCAL/MOL
REMARK 923 INTER-LIGAND FREE ENERGY PREDICTED BY IDOCK:   -7.81 KCAL/MOL
REMARK 924 INTRA-LIGAND FREE ENERGY PREDICTED BY IDOCK:   -0.14 KCAL/MOL
REMARK 927      BINDING AFFINITY PREDICTED BY RF-SCORE:    0.00 PKD
ROOT
HETATM    1  C   UNL     1     -11.874  16.025  71.407  1.00  0.00    -0.470 C  
HETATM    2  N   UNL     1     -12.869  15.349  70.591  1.00  0.00    -0.557 NA 
HETATM    3  H   UNL     1     -13.749  15.788  70.319  1.00  0.00     0.000 HD 
ENDROOT
BRANCH   2   4
HETATM    4  C   UNL     1     -12.525  14.042  70.207  1.00  0.00    -0.338 A  
HETATM    5  N   UNL     1     -11.781  13.849  69.101  1.00  0.00    -0.313 NA 
HETATM    6  C   UNL     1     -11.400  12.582  68.789  1.00  0.00    -0.293 A  
HETATM    7  C   UNL     1     -11.759  11.430  69.482  1.00  0.00    -0.417 A  
HETATM    8  C   UNL     1     -13.612  13.178  72.324  1.00  0.00    -0.677 C  
HETATM    9  C   UNL     1     -12.568  11.664  70.605  1.00  0.00    -0.319 A  
HETATM   10  C   UNL     1     -12.908  12.967  71.013  1.00  0.00    -0.281 A  
BRANCH   7  11
HETATM   11  C   UNL     1     -11.212  10.075  69.159  1.00  0.00    -0.197 A  
HETATM   12  C   UNL     1     -10.547   8.522  67.390  1.00  0.00    -0.304 A  
HETATM   13  C   UNL     1     -11.028   9.757  67.798  1.00  0.00    -0.242 A  
HETATM   14  C   UNL     1     -10.354   7.517  68.332  1.00  0.00    -0.226 A  
HETATM   15  C   UNL     1      -9.853   6.215  67.842  1.00  0.00    -0.123 C  
HETATM   16  C   UNL     1      -9.810   5.090  68.781  1.00  0.00    -0.236 C  
HETATM   17  O   UNL     1      -9.482   6.061  66.680  1.00  0.00    -0.141 OA 
HETATM   18  C   UNL     1     -10.193   5.342  70.042  1.00  0.00    -0.279 C  
HETATM   19  C   UNL     1      -9.403   3.724  68.390  1.00  0.00    -0.166 C  
HETATM   20  O   UNL     1      -8.990   3.604  67.112  1.00  0.00    -0.121 OA 
HETATM   21  O   UNL     1      -9.424   2.774  69.157  1.00  0.00    -0.156 OA 
HETATM   22  N   UNL     1     -10.566   6.569  70.582  1.00  0.00    -0.223 NA 
HETATM   23  C   UNL     1     -10.614   7.721  69.705  1.00  0.00    -0.241 A  
HETATM   24  C   UNL     1     -10.750   9.439  71.577  1.00  0.00    -0.367 C  
HETATM   25  C   UNL     1     -10.903   9.057  70.123  1.00  0.00    -0.261 A  
BRANCH  22  26
HETATM   26  C   UNL     1     -11.420   6.517  71.809  1.00  0.00    -0.300 C  
HETATM   27  C   UNL     1     -10.794   6.473  73.184  1.00  0.00    -0.286 C  
HETATM   28  C   UNL     1     -11.601   5.312  72.712  1.00  0.00    -0.270 C  
ENDBRANCH  22  26
ENDBRANCH   7  11
ENDBRANCH   2   4
TORSDOF 3
ENDMDL
MODEL       40
REMARK 921   NORMALIZED FREE ENERGY PREDICTED BY IDOCK:   -6.16 KCAL/MOL
REMARK 922        TOTAL FREE ENERGY PREDICTED BY IDOCK:   -7.91 KCAL/MOL
REMARK 923 INTER-LIGAND FREE ENERGY PREDICTED BY IDOCK:   -6.99 KCAL/MOL
REMARK 924 INTRA-LIGAND FREE ENERGY PREDICTED BY IDOCK:   -0.92 KCAL/MOL
REMARK 927      BINDING AFFINITY PREDICTED BY RF-SCORE:    0.00 PKD
ROOT
HETATM    1  C   UNL     1      -7.328   7.062  62.362  1.00  0.00    -0.076 C  
HETATM    2  N   UNL     1      -6.806   8.405  62.553  1.00  0.00    -0.091 NA 
HETATM    3  H   UNL     1      -5.985   8.752  62.056  1.00  0.00     0.000 HD 
ENDROOT
BRANCH   2   4
HETATM    4  C   UNL     1      -7.519   9.187  63.476  1.00  0.00    -0.102 A  
HETATM    5  N   UNL     1      -8.781   9.563  63.194  1.00  0.00    -0.219 NA 
HETATM    6  C   UNL     1      -9.476  10.258  64.133  1.00  0.00    -0.301 A  
HETATM    7  C   UNL     1      -8.983  10.681  65.362  1.00  0.00    -0.208 A  
HETATM    8  C   UNL     1      -5.578   8.979  65.089  1.00  0.00    -0.050 C  
HETATM    9  C   UNL     1      -7.651  10.308  65.606  1.00  0.00    -0.148 A  
HETATM   10  C   UNL     1      -6.929   9.511  64.700  1.00  0.00    -0.102 A  
BRANCH   7  11
HETATM   11  C   UNL     1      -9.833  11.342  66.403  1.00  0.00    -0.243 A  
HETATM   12  C   UNL     1     -10.593  13.460  67.359  1.00  0.00    -0.254 A  
HETATM   13  C   UNL     1      -9.856  12.751  66.424  1.00  0.00    -0.269 A  
HETATM   14  C   UNL     1     -11.234  12.777  68.388  1.00  0.00    -0.313 A  
HETATM   15  C   UNL     1     -11.995  13.581  69.366  1.00  0.00    -0.330 C  
HETATM   16  C   UNL     1     -12.528  12.908  70.554  1.00  0.00    -0.294 C  
HETATM   17  O   UNL     1     -12.182  14.786  69.207  1.00  0.00    -0.277 OA 
HETATM   18  C   UNL     1     -12.320  11.585  70.642  1.00  0.00    -0.364 C  
HETATM   19  C   UNL     1     -13.238  13.619  71.639  1.00  0.00    -0.367 C  
HETATM   20  O   UNL     1     -13.433  14.935  71.415  1.00  0.00    -0.371 OA 
HETATM   21  O   UNL     1     -13.630  13.069  72.656  1.00  0.00    -0.573 OA 
HETATM   22  N   UNL     1     -11.710  10.763  69.701  1.00  0.00    -0.298 NA 
HETATM   23  C   UNL     1     -11.174  11.370  68.500  1.00  0.00    -0.250 A  
HETATM   24  C   UNL     1     -10.883   9.181  67.237  1.00  0.00    -0.121 C  
HETATM   25  C   UNL     1     -10.590  10.653  67.410  1.00  0.00    -0.304 A  
BRANCH  22  26
HETATM   26  C   UNL     1     -11.140   9.480  70.217  1.00  0.00    -0.271 C  
HETATM   27  C   UNL     1     -11.144   9.173  71.698  1.00  0.00    -0.445 C  
HETATM   28  C   UNL     1      -9.842   9.333  70.989  1.00  0.00    -0.355 C  
ENDBRANCH  22  26
ENDBRANCH   7  11
ENDBRANCH   2   4
TORSDOF 3
ENDMDL
MODEL       41
REMARK 921   NORMALIZED FREE ENERGY PREDICTED BY IDOCK:   -6.13 KCAL/MOL
REMARK 922        TOTAL FREE ENERGY PREDICTED BY IDOCK:   -7.88 KCAL/MOL
REMARK 923 INTER-LIGAND FREE ENERGY PREDICTED BY IDOCK:   -7.63 KCAL/MOL
REMARK 924 INTRA-LIGAND FREE ENERGY PREDICTED BY IDOCK:   -0.25 KCAL/MOL
REMARK 927      BINDING AFFINITY PREDICTED BY RF-SCORE:    0.00 PKD
ROOT
HETATM    1  C   UNL     1     -12.885   7.908  72.101  1.00  0.00    -0.201 C  
HETATM    2  N   UNL     1     -12.011   7.978  70.942  1.00  0.00    -0.438 NA 
HETATM    3  H   UNL     1     -11.574   7.152  70.531  1.00  0.00     0.000 HD 
ENDROOT
BRANCH   2   4
HETATM    4  C   UNL     1     -11.814   9.272  70.432  1.00  0.00    -0.054 A  
HETATM    5  N   UNL     1     -12.598  10.281  70.857  1.00  0.00    -0.346 NA 
HETATM    6  C   UNL     1     -12.342  11.536  70.404  1.00  0.00    -0.305 A  
HETATM    7  C   UNL     1     -11.365  11.883  69.476  1.00  0.00    -0.306 A  
HETATM    8  C   UNL     1      -9.795   8.419  69.163  1.00  0.00    -0.183 C  
HETATM    9  C   UNL     1     -10.594  10.802  69.022  1.00  0.00    -0.250 A  
HETATM   10  C   UNL     1     -10.767   9.503  69.536  1.00  0.00    -0.246 A  
BRANCH   7  11
HETATM   11  C   UNL     1     -11.054  13.300  69.105  1.00  0.00    -0.259 A  
HETATM   12  C   UNL     1     -11.009  15.630  69.845  1.00  0.00    -0.323 A  
HETATM   13  C   UNL     1     -11.247  14.287  70.092  1.00  0.00    -0.103 A  
HETATM   14  C   UNL     1     -10.690  16.044  68.555  1.00  0.00    -0.287 A  
HETATM   15  C   UNL     1     -10.459  17.488  68.343  1.00  0.00    -0.372 C  
HETATM   16  C   UNL     1     -10.297  17.970  66.969  1.00  0.00    -0.377 C  
HETATM   17  O   UNL     1     -10.406  18.279  69.282  1.00  0.00    -0.215 OA 
HETATM   18  C   UNL     1     -10.327  17.045  65.997  1.00  0.00    -0.315 C  
HETATM   19  C   UNL     1     -10.139  19.399  66.625  1.00  0.00    -0.407 C  
HETATM   20  O   UNL     1     -10.071  20.229  67.686  1.00  0.00    -0.404 OA 
HETATM   21  O   UNL     1     -10.063  19.808  65.476  1.00  0.00    -0.366 OA 
HETATM   22  N   UNL     1     -10.429  15.666  66.148  1.00  0.00    -0.305 NA 
HETATM   23  C   UNL     1     -10.578  15.129  67.484  1.00  0.00    -0.269 A  
HETATM   24  C   UNL     1     -10.071  12.723  66.832  1.00  0.00    -0.234 C  
HETATM   25  C   UNL     1     -10.619  13.737  67.808  1.00  0.00    -0.250 A  
BRANCH  22  26
HETATM   26  C   UNL     1     -10.952  14.911  64.967  1.00  0.00    -0.420 C  
HETATM   27  C   UNL     1     -11.874  15.577  63.971  1.00  0.00     0.031 C  
HETATM   28  C   UNL     1     -12.379  14.433  64.782  1.00  0.00    -0.427 C  
ENDBRANCH  22  26
ENDBRANCH   7  11
ENDBRANCH   2   4
TORSDOF 3
ENDMDL
MODEL       42
REMARK 921   NORMALIZED FREE ENERGY PREDICTED BY IDOCK:   -6.12 KCAL/MOL
REMARK 922        TOTAL FREE ENERGY PREDICTED BY IDOCK:   -7.87 KCAL/MOL
REMARK 923 INTER-LIGAND FREE ENERGY PREDICTED BY IDOCK:   -7.06 KCAL/MOL
REMARK 924 INTRA-LIGAND FREE ENERGY PREDICTED BY IDOCK:   -0.82 KCAL/MOL
REMARK 927      BINDING AFFINITY PREDICTED BY RF-SCORE:    0.00 PKD
ROOT
HETATM    1  C   UNL     1     -12.265  16.170  73.438  1.00  0.00    -0.533 C  
HETATM    2  N   UNL     1     -13.309  15.853  72.478  1.00  0.00    -0.468 NA 
HETATM    3  H   UNL     1     -14.289  16.094  72.630  1.00  0.00     0.000 HD 
ENDROOT
BRANCH   2   4
HETATM    4  C   UNL     1     -12.864  15.187  71.324  1.00  0.00    -0.391 A  
HETATM    5  N   UNL     1     -12.308  15.893  70.322  1.00  0.00    -0.295 NA 
HETATM    6  C   UNL     1     -11.819  15.219  69.247  1.00  0.00    -0.329 A  
HETATM    7  C   UNL     1     -11.890  13.845  69.047  1.00  0.00    -0.397 A  
HETATM    8  C   UNL     1     -13.432  12.980  72.429  1.00  0.00    -0.615 C  
HETATM    9  C   UNL     1     -12.512  13.144  70.093  1.00  0.00    -0.192 A  
HETATM   10  C   UNL     1     -12.949  13.794  71.262  1.00  0.00    -0.409 A  
BRANCH   7  11
HETATM   11  C   UNL     1     -11.229  13.148  67.899  1.00  0.00    -0.300 A  
HETATM   12  C   UNL     1     -11.527  12.148  65.687  1.00  0.00    -0.408 A  
HETATM   13  C   UNL     1     -12.035  12.812  66.793  1.00  0.00    -0.389 A  
HETATM   14  C   UNL     1     -10.215  11.684  65.710  1.00  0.00    -0.281 A  
HETATM   15  C   UNL     1      -9.727  10.971  64.511  1.00  0.00    -0.273 C  
HETATM   16  C   UNL     1      -8.415  10.320  64.577  1.00  0.00    -0.183 C  
HETATM   17  O   UNL     1     -10.392  10.910  63.479  1.00  0.00    -0.352 OA 
HETATM   18  C   UNL     1      -7.728  10.461  65.721  1.00  0.00    -0.146 C  
HETATM   19  C   UNL     1      -7.855   9.513  63.472  1.00  0.00    -0.134 C  
HETATM   20  O   UNL     1      -8.611   9.486  62.356  1.00  0.00    -0.169 OA 
HETATM   21  O   UNL     1      -6.789   8.922  63.548  1.00  0.00    -0.089 OA 
HETATM   22  N   UNL     1      -8.090  11.212  66.835  1.00  0.00    -0.144 NA 
HETATM   23  C   UNL     1      -9.370  11.888  66.823  1.00  0.00    -0.201 A  
HETATM   24  C   UNL     1      -8.873  13.374  68.827  1.00  0.00     0.122 C  
HETATM   25  C   UNL     1      -9.848  12.755  67.855  1.00  0.00    -0.223 A  
BRANCH  22  26
HETATM   26  C   UNL     1      -7.457  10.815  68.131  1.00  0.00    -0.091 C  
HETATM   27  C   UNL     1      -6.815   9.456  68.292  1.00  0.00    -0.063 C  
HETATM   28  C   UNL     1      -8.011   9.800  69.113  1.00  0.00    -0.104 C  
ENDBRANCH  22  26
ENDBRANCH   7  11
ENDBRANCH   2   4
TORSDOF 3
ENDMDL
MODEL       43
REMARK 921   NORMALIZED FREE ENERGY PREDICTED BY IDOCK:   -6.08 KCAL/MOL
REMARK 922        TOTAL FREE ENERGY PREDICTED BY IDOCK:   -7.83 KCAL/MOL
REMARK 923 INTER-LIGAND FREE ENERGY PREDICTED BY IDOCK:   -7.17 KCAL/MOL
REMARK 924 INTRA-LIGAND FREE ENERGY PREDICTED BY IDOCK:   -0.66 KCAL/MOL
REMARK 927      BINDING AFFINITY PREDICTED BY RF-SCORE:    0.00 PKD
ROOT
HETATM    1  C   UNL     1     -12.395  15.609  71.408  1.00  0.00    -0.426 C  
HETATM    2  N   UNL     1     -12.698  15.070  70.093  1.00  0.00    -0.584 NA 
HETATM    3  H   UNL     1     -13.255  15.577  69.405  1.00  0.00     0.000 HD 
ENDROOT
BRANCH   2   4
HETATM    4  C   UNL     1     -12.164  13.795  69.843  1.00  0.00    -0.321 A  
HETATM    5  N   UNL     1     -12.464  12.775  70.670  1.00  0.00    -0.293 NA 
HETATM    6  C   UNL     1     -11.994  11.536  70.367  1.00  0.00    -0.368 A  
HETATM    7  C   UNL     1     -11.165  11.219  69.296  1.00  0.00    -0.336 A  
HETATM    8  C   UNL     1     -11.154  14.684  67.698  1.00  0.00    -0.311 C  
HETATM    9  C   UNL     1     -10.838  12.313  68.479  1.00  0.00    -0.267 A  
HETATM   10  C   UNL     1     -11.378  13.592  68.706  1.00  0.00    -0.329 A  
BRANCH   7  11
HETATM   11  C   UNL     1     -10.776   9.816  68.948  1.00  0.00    -0.241 A  
HETATM   12  C   UNL     1     -10.594   8.138  67.178  1.00  0.00    -0.355 A  
HETATM   13  C   UNL     1     -10.906   9.421  67.602  1.00  0.00    -0.222 A  
HETATM   14  C   UNL     1     -10.259   7.169  68.118  1.00  0.00    -0.220 A  
HETATM   15  C   UNL     1      -9.947   5.815  67.614  1.00  0.00    -0.140 C  
HETATM   16  C   UNL     1      -9.766   4.736  68.589  1.00  0.00    -0.223 C  
HETATM   17  O   UNL     1      -9.844   5.580  66.412  1.00  0.00    -0.156 OA 
HETATM   18  C   UNL     1      -9.854   5.073  69.885  1.00  0.00    -0.226 C  
HETATM   19  C   UNL     1      -9.529   3.328  68.206  1.00  0.00    -0.152 C  
HETATM   20  O   UNL     1      -9.408   3.119  66.879  1.00  0.00    -0.179 OA 
HETATM   21  O   UNL     1      -9.437   2.419  69.017  1.00  0.00    -0.148 OA 
HETATM   22  N   UNL     1     -10.034   6.347  70.415  1.00  0.00    -0.182 NA 
HETATM   23  C   UNL     1     -10.206   7.455  69.500  1.00  0.00    -0.204 A  
HETATM   24  C   UNL     1      -9.840   9.267  71.248  1.00  0.00    -0.318 C  
HETATM   25  C   UNL     1     -10.323   8.827  69.887  1.00  0.00    -0.212 A  
BRANCH  22  26
HETATM   26  C   UNL     1     -10.606   6.412  71.796  1.00  0.00    -0.220 C  
HETATM   27  C   UNL     1     -11.027   5.151  72.517  1.00  0.00    -0.276 C  
HETATM   28  C   UNL     1     -12.057   6.171  72.166  1.00  0.00    -0.263 C  
ENDBRANCH  22  26
ENDBRANCH   7  11
ENDBRANCH   2   4
TORSDOF 3
ENDMDL
MODEL       44
REMARK 921   NORMALIZED FREE ENERGY PREDICTED BY IDOCK:   -6.04 KCAL/MOL
REMARK 922        TOTAL FREE ENERGY PREDICTED BY IDOCK:   -7.78 KCAL/MOL
REMARK 923 INTER-LIGAND FREE ENERGY PREDICTED BY IDOCK:   -7.17 KCAL/MOL
REMARK 924 INTRA-LIGAND FREE ENERGY PREDICTED BY IDOCK:   -0.61 KCAL/MOL
REMARK 927      BINDING AFFINITY PREDICTED BY RF-SCORE:    0.00 PKD
ROOT
HETATM    1  C   UNL     1     -11.733  12.722  63.481  1.00  0.00    -0.530 C  
HETATM    2  N   UNL     1     -10.408  12.257  63.855  1.00  0.00    -0.400 NA 
HETATM    3  H   UNL     1      -9.575  12.469  63.305  1.00  0.00     0.000 HD 
ENDROOT
BRANCH   2   4
HETATM    4  C   UNL     1     -10.364  11.494  65.033  1.00  0.00    -0.281 A  
HETATM    5  N   UNL     1     -11.077  11.885  66.106  1.00  0.00    -0.316 NA 
HETATM    6  C   UNL     1     -11.076  11.092  67.210  1.00  0.00    -0.294 A  
HETATM    7  C   UNL     1     -10.347   9.918  67.368  1.00  0.00    -0.301 A  
HETATM    8  C   UNL     1      -8.945   9.782  63.821  1.00  0.00    -0.272 C  
HETATM    9  C   UNL     1      -9.582   9.562  66.246  1.00  0.00    -0.287 A  
HETATM   10  C   UNL     1      -9.628  10.306  65.053  1.00  0.00    -0.346 A  
BRANCH   7  11
HETATM   11  C   UNL     1     -10.478   9.026  68.563  1.00  0.00    -0.232 A  
HETATM   12  C   UNL     1     -10.518   8.896  71.005  1.00  0.00    -0.316 A  
HETATM   13  C   UNL     1     -10.428   9.633  69.834  1.00  0.00    -0.285 A  
HETATM   14  C   UNL     1     -10.534   7.506  70.940  1.00  0.00    -0.218 A  
HETATM   15  C   UNL     1     -10.618   6.768  72.218  1.00  0.00    -0.213 C  
HETATM   16  C   UNL     1     -10.458   5.312  72.190  1.00  0.00    -0.278 C  
HETATM   17  O   UNL     1     -10.812   7.345  73.286  1.00  0.00    -0.374 OA 
HETATM   18  C   UNL     1     -10.290   4.746  70.984  1.00  0.00    -0.118 C  
HETATM   19  C   UNL     1     -10.445   4.474  73.408  1.00  0.00    -0.201 C  
HETATM   20  O   UNL     1     -10.676   5.146  74.555  1.00  0.00    -0.343 OA 
HETATM   21  O   UNL     1     -10.253   3.268  73.390  1.00  0.00    -0.121 OA 
HETATM   22  N   UNL     1     -10.315   5.378  69.745  1.00  0.00    -0.283 NA 
HETATM   23  C   UNL     1     -10.483   6.816  69.709  1.00  0.00    -0.210 A  
HETATM   24  C   UNL     1     -11.005   6.931  67.221  1.00  0.00    -0.406 C  
HETATM   25  C   UNL     1     -10.604   7.596  68.517  1.00  0.00    -0.162 A  
BRANCH  22  26
HETATM   26  C   UNL     1      -9.610   4.671  68.631  1.00  0.00    -0.162 C  
HETATM   27  C   UNL     1      -8.712   3.488  68.912  1.00  0.00    -0.138 C  
HETATM   28  C   UNL     1      -8.122   4.732  68.343  1.00  0.00    -0.084 C  
ENDBRANCH  22  26
ENDBRANCH   7  11
ENDBRANCH   2   4
TORSDOF 3
ENDMDL
MODEL       45
REMARK 921   NORMALIZED FREE ENERGY PREDICTED BY IDOCK:   -6.00 KCAL/MOL
REMARK 922        TOTAL FREE ENERGY PREDICTED BY IDOCK:   -7.73 KCAL/MOL
REMARK 923 INTER-LIGAND FREE ENERGY PREDICTED BY IDOCK:   -7.63 KCAL/MOL
REMARK 924 INTRA-LIGAND FREE ENERGY PREDICTED BY IDOCK:   -0.10 KCAL/MOL
REMARK 927      BINDING AFFINITY PREDICTED BY RF-SCORE:    0.00 PKD
ROOT
HETATM    1  C   UNL     1     -10.844  16.379  68.706  1.00  0.00    -0.338 C  
HETATM    2  N   UNL     1     -12.141  15.786  68.990  1.00  0.00    -0.563 NA 
HETATM    3  H   UNL     1     -13.008  16.322  68.966  1.00  0.00     0.000 HD 
ENDROOT
BRANCH   2   4
HETATM    4  C   UNL     1     -12.105  14.416  69.298  1.00  0.00    -0.299 A  
HETATM    5  N   UNL     1     -11.740  13.530  68.352  1.00  0.00    -0.338 NA 
HETATM    6  C   UNL     1     -11.644  12.219  68.695  1.00  0.00    -0.323 A  
HETATM    7  C   UNL     1     -11.950  11.677  69.939  1.00  0.00    -0.414 A  
HETATM    8  C   UNL     1     -12.660  14.986  71.702  1.00  0.00    -0.409 C  
HETATM    9  C   UNL     1     -12.367  12.623  70.889  1.00  0.00    -0.352 A  
HETATM   10  C   UNL     1     -12.392  14.000  70.601  1.00  0.00    -0.446 A  
BRANCH   7  11
HETATM   11  C   UNL     1     -11.711  10.242  70.290  1.00  0.00    -0.388 A  
HETATM   12  C   UNL     1     -12.000   8.486  71.968  1.00  0.00    -0.427 A  
HETATM   13  C   UNL     1     -12.187   9.791  71.537  1.00  0.00    -0.493 A  
HETATM   14  C   UNL     1     -11.216   7.621  71.211  1.00  0.00    -0.277 A  
HETATM   15  C   UNL     1     -11.038   6.245  71.721  1.00  0.00    -0.273 C  
HETATM   16  C   UNL     1     -10.078   5.372  71.041  1.00  0.00    -0.281 C  
HETATM   17  O   UNL     1     -11.667   5.829  72.692  1.00  0.00    -0.293 OA 
HETATM   18  C   UNL     1      -9.457   5.879  69.965  1.00  0.00    -0.159 C  
HETATM   19  C   UNL     1      -9.757   4.005  71.504  1.00  0.00    -0.176 C  
HETATM   20  O   UNL     1     -10.480   3.585  72.562  1.00  0.00    -0.151 OA 
HETATM   21  O   UNL     1      -8.914   3.298  70.973  1.00  0.00    -0.082 OA 
HETATM   22  N   UNL     1      -9.669   7.122  69.378  1.00  0.00    -0.160 NA 
HETATM   23  C   UNL     1     -10.616   8.025  69.998  1.00  0.00    -0.242 A  
HETATM   24  C   UNL     1     -10.769   9.610  68.014  1.00  0.00    -0.284 C  
HETATM   25  C   UNL     1     -10.997   9.300  69.474  1.00  0.00    -0.169 A  
BRANCH  22  26
HETATM   26  C   UNL     1      -8.545   7.660  68.549  1.00  0.00    -0.129 C  
HETATM   27  C   UNL     1      -7.396   6.768  68.134  1.00  0.00    -0.097 C  
HETATM   28  C   UNL     1      -7.133   7.925  69.036  1.00  0.00    -0.070 C  
ENDBRANCH  22  26
ENDBRANCH   7  11
ENDBRANCH   2   4
TORSDOF 3
ENDMDL
MODEL       46
REMARK 921   NORMALIZED FREE ENERGY PREDICTED BY IDOCK:   -5.98 KCAL/MOL
REMARK 922        TOTAL FREE ENERGY PREDICTED BY IDOCK:   -7.70 KCAL/MOL
REMARK 923 INTER-LIGAND FREE ENERGY PREDICTED BY IDOCK:   -6.91 KCAL/MOL
REMARK 924 INTRA-LIGAND FREE ENERGY PREDICTED BY IDOCK:   -0.79 KCAL/MOL
REMARK 927      BINDING AFFINITY PREDICTED BY RF-SCORE:    0.00 PKD
ROOT
HETATM    1  C   UNL     1     -12.026  15.126  63.978  1.00  0.00    -0.027 C  
HETATM    2  N   UNL     1     -11.371  15.511  65.217  1.00  0.00    -0.243 NA 
HETATM    3  H   UNL     1     -10.942  16.427  65.352  1.00  0.00     0.000 HD 
ENDROOT
BRANCH   2   4
HETATM    4  C   UNL     1     -11.375  14.523  66.216  1.00  0.00    -0.352 A  
HETATM    5  N   UNL     1     -11.789  13.277  65.916  1.00  0.00    -0.372 NA 
HETATM    6  C   UNL     1     -11.716  12.320  66.879  1.00  0.00    -0.334 A  
HETATM    7  C   UNL     1     -11.302  12.517  68.192  1.00  0.00    -0.343 A  
HETATM    8  C   UNL     1     -10.293  16.176  67.799  1.00  0.00    -0.283 C  
HETATM    9  C   UNL     1     -10.918  13.836  68.481  1.00  0.00    -0.283 A  
HETATM   10  C   UNL     1     -10.892  14.833  67.489  1.00  0.00    -0.287 A  
BRANCH   7  11
HETATM   11  C   UNL     1     -11.132  11.400  69.174  1.00  0.00    -0.317 A  
HETATM   12  C   UNL     1     -12.093  10.209  71.082  1.00  0.00    -0.485 A  
HETATM   13  C   UNL     1     -12.161  11.202  70.116  1.00  0.00    -0.443 A  
HETATM   14  C   UNL     1     -10.926   9.462  71.215  1.00  0.00    -0.440 A  
HETATM   15  C   UNL     1     -10.900   8.426  72.268  1.00  0.00    -0.352 C  
HETATM   16  C   UNL     1      -9.630   7.749  72.546  1.00  0.00    -0.250 C  
HETATM   17  O   UNL     1     -11.907   8.129  72.908  1.00  0.00    -0.352 OA 
HETATM   18  C   UNL     1      -8.583   8.095  71.781  1.00  0.00    -0.146 C  
HETATM   19  C   UNL     1      -9.461   6.754  73.625  1.00  0.00    -0.178 C  
HETATM   20  O   UNL     1     -10.594   6.449  74.291  1.00  0.00    -0.257 OA 
HETATM   21  O   UNL     1      -8.390   6.233  73.895  1.00  0.00    -0.115 OA 
HETATM   22  N   UNL     1      -8.578   8.979  70.707  1.00  0.00    -0.200 NA 
HETATM   23  C   UNL     1      -9.808   9.668  70.377  1.00  0.00    -0.256 A  
HETATM   24  C   UNL     1      -9.023  10.475  68.095  1.00  0.00    -0.138 C  
HETATM   25  C   UNL     1      -9.982  10.544  69.260  1.00  0.00    -0.233 A  
BRANCH  22  26
HETATM   26  C   UNL     1      -7.255   9.585  70.358  1.00  0.00    -0.127 C  
HETATM   27  C   UNL     1      -6.083   8.711  69.973  1.00  0.00    -0.030 C  
HETATM   28  C   UNL     1      -6.004   9.534  71.213  1.00  0.00    -0.069 C  
ENDBRANCH  22  26
ENDBRANCH   7  11
ENDBRANCH   2   4
TORSDOF 3
ENDMDL
MODEL       47
REMARK 921   NORMALIZED FREE ENERGY PREDICTED BY IDOCK:   -5.90 KCAL/MOL
REMARK 922        TOTAL FREE ENERGY PREDICTED BY IDOCK:   -7.62 KCAL/MOL
REMARK 923 INTER-LIGAND FREE ENERGY PREDICTED BY IDOCK:   -7.52 KCAL/MOL
REMARK 924 INTRA-LIGAND FREE ENERGY PREDICTED BY IDOCK:   -0.09 KCAL/MOL
REMARK 927      BINDING AFFINITY PREDICTED BY RF-SCORE:    0.00 PKD
ROOT
HETATM    1  C   UNL     1     -13.425  15.173  73.290  1.00  0.00    -0.243 C  
HETATM    2  N   UNL     1     -14.118  14.158  72.514  1.00  0.00    -0.635 NA 
HETATM    3  H   UNL     1     -15.128  14.023  72.562  1.00  0.00     0.000 HD 
ENDROOT
BRANCH   2   4
HETATM    4  C   UNL     1     -13.287  13.378  71.692  1.00  0.00    -0.338 A  
HETATM    5  N   UNL     1     -13.243  12.044  71.867  1.00  0.00    -0.450 NA 
HETATM    6  C   UNL     1     -12.488  11.303  71.014  1.00  0.00    -0.400 A  
HETATM    7  C   UNL     1     -11.690  11.802  69.990  1.00  0.00    -0.386 A  
HETATM    8  C   UNL     1     -12.716  15.458  70.366  1.00  0.00    -0.407 C  
HETATM    9  C   UNL     1     -11.727  13.199  69.863  1.00  0.00    -0.327 A  
HETATM   10  C   UNL     1     -12.566  13.993  70.666  1.00  0.00    -0.414 A  
BRANCH   7  11
HETATM   11  C   UNL     1     -10.974  10.928  69.009  1.00  0.00    -0.285 A  
HETATM   12  C   UNL     1     -10.444  10.526  66.655  1.00  0.00    -0.290 A  
HETATM   13  C   UNL     1     -11.053  11.280  67.646  1.00  0.00    -0.336 A  
HETATM   14  C   UNL     1      -9.838   9.318  66.988  1.00  0.00    -0.257 A  
HETATM   15  C   UNL     1      -9.215   8.547  65.892  1.00  0.00    -0.182 C  
HETATM   16  C   UNL     1      -8.729   7.196  66.183  1.00  0.00    -0.164 C  
HETATM   17  O   UNL     1      -9.103   9.010  64.758  1.00  0.00    -0.165 OA 
HETATM   18  C   UNL     1      -8.848   6.772  67.450  1.00  0.00    -0.117 C  
HETATM   19  C   UNL     1      -8.159   6.301  65.154  1.00  0.00    -0.130 C  
HETATM   20  O   UNL     1      -8.041   6.854  63.929  1.00  0.00    -0.095 OA 
HETATM   21  O   UNL     1      -7.808   5.153  65.384  1.00  0.00    -0.086 OA 
HETATM   22  N   UNL     1      -9.322   7.494  68.540  1.00  0.00    -0.143 NA 
HETATM   23  C   UNL     1      -9.805   8.841  68.317  1.00  0.00    -0.165 A  
HETATM   24  C   UNL     1      -9.840   9.493  70.776  1.00  0.00    -0.309 C  
HETATM   25  C   UNL     1     -10.249   9.733  69.342  1.00  0.00    -0.223 A  
BRANCH  22  26
HETATM   26  C   UNL     1      -9.837   6.689  69.691  1.00  0.00    -0.157 C  
HETATM   27  C   UNL     1     -10.178   5.226  69.519  1.00  0.00    -0.338 C  
HETATM   28  C   UNL     1     -11.261   6.192  69.859  1.00  0.00    -0.484 C  
ENDBRANCH  22  26
ENDBRANCH   7  11
ENDBRANCH   2   4
TORSDOF 3
ENDMDL
MODEL       48
REMARK 921   NORMALIZED FREE ENERGY PREDICTED BY IDOCK:   -5.89 KCAL/MOL
REMARK 922        TOTAL FREE ENERGY PREDICTED BY IDOCK:   -7.61 KCAL/MOL
REMARK 923 INTER-LIGAND FREE ENERGY PREDICTED BY IDOCK:   -7.28 KCAL/MOL
REMARK 924 INTRA-LIGAND FREE ENERGY PREDICTED BY IDOCK:   -0.33 KCAL/MOL
REMARK 927      BINDING AFFINITY PREDICTED BY RF-SCORE:    0.00 PKD
ROOT
HETATM    1  C   UNL     1     -13.585  16.139  72.883  1.00  0.00    -0.253 C  
HETATM    2  N   UNL     1     -13.771  15.601  71.546  1.00  0.00    -0.512 NA 
HETATM    3  H   UNL     1     -14.246  16.118  70.806  1.00  0.00     0.000 HD 
ENDROOT
BRANCH   2   4
HETATM    4  C   UNL     1     -13.246  14.312  71.353  1.00  0.00    -0.349 A  
HETATM    5  N   UNL     1     -13.666  13.299  72.133  1.00  0.00    -0.534 NA 
HETATM    6  C   UNL     1     -13.198  12.048  71.880  1.00  0.00    -0.364 A  
HETATM    7  C   UNL     1     -12.259  11.711  70.911  1.00  0.00    -0.401 A  
HETATM    8  C   UNL     1     -11.971  15.179  69.344  1.00  0.00    -0.337 C  
HETATM    9  C   UNL     1     -11.811  12.798  70.143  1.00  0.00    -0.326 A  
HETATM   10  C   UNL     1     -12.339  14.091  70.313  1.00  0.00    -0.425 A  
BRANCH   7  11
HETATM   11  C   UNL     1     -11.870  10.299  70.602  1.00  0.00    -0.439 A  
HETATM   12  C   UNL     1     -11.641   8.021  71.463  1.00  0.00    -0.313 A  
HETATM   13  C   UNL     1     -11.994   9.351  71.637  1.00  0.00    -0.465 A  
HETATM   14  C   UNL     1     -11.031   7.624  70.277  1.00  0.00    -0.261 A  
HETATM   15  C   UNL     1     -10.663   6.199  70.147  1.00  0.00    -0.302 C  
HETATM   16  C   UNL     1      -9.863   5.791  68.989  1.00  0.00    -0.204 C  
HETATM   17  O   UNL     1     -11.006   5.364  70.982  1.00  0.00    -0.179 OA 
HETATM   18  C   UNL     1      -9.559   6.748  68.099  1.00  0.00    -0.122 C  
HETATM   19  C   UNL     1      -9.369   4.412  68.790  1.00  0.00    -0.151 C  
HETATM   20  O   UNL     1      -9.781   3.528  69.721  1.00  0.00    -0.171 OA 
HETATM   21  O   UNL     1      -8.653   4.085  67.856  1.00  0.00    -0.093 OA 
HETATM   22  N   UNL     1      -9.972   8.076  68.114  1.00  0.00    -0.178 NA 
HETATM   23  C   UNL     1     -10.776   8.535  69.228  1.00  0.00    -0.133 A  
HETATM   24  C   UNL     1     -11.501  10.707  68.119  1.00  0.00    -0.303 C  
HETATM   25  C   UNL     1     -11.338   9.844  69.348  1.00  0.00    -0.143 A  
BRANCH  22  26
HETATM   26  C   UNL     1      -9.120   9.040  67.349  1.00  0.00    -0.131 C  
HETATM   27  C   UNL     1      -7.804   8.601  66.750  1.00  0.00    -0.094 C  
HETATM   28  C   UNL     1      -7.808   9.633  67.825  1.00  0.00    -0.094 C  
ENDBRANCH  22  26
ENDBRANCH   7  11
ENDBRANCH   2   4
TORSDOF 3
ENDMDL
MODEL       49
REMARK 921   NORMALIZED FREE ENERGY PREDICTED BY IDOCK:   -5.89 KCAL/MOL
REMARK 922        TOTAL FREE ENERGY PREDICTED BY IDOCK:   -7.60 KCAL/MOL
REMARK 923 INTER-LIGAND FREE ENERGY PREDICTED BY IDOCK:   -7.11 KCAL/MOL
REMARK 924 INTRA-LIGAND FREE ENERGY PREDICTED BY IDOCK:   -0.49 KCAL/MOL
REMARK 927      BINDING AFFINITY PREDICTED BY RF-SCORE:    0.00 PKD
ROOT
HETATM    1  C   UNL     1     -11.181   1.953  73.254  1.00  0.00    -0.164 C  
HETATM    2  N   UNL     1     -10.059   2.802  72.890  1.00  0.00    -0.134 NA 
HETATM    3  H   UNL     1      -9.092   2.478  72.916  1.00  0.00     0.000 HD 
ENDROOT
BRANCH   2   4
HETATM    4  C   UNL     1     -10.411   4.105  72.501  1.00  0.00    -0.133 A  
HETATM    5  N   UNL     1     -10.878   4.971  73.420  1.00  0.00    -0.272 NA 
HETATM    6  C   UNL     1     -11.143   6.246  73.033  1.00  0.00    -0.207 A  
HETATM    7  C   UNL     1     -11.035   6.744  71.739  1.00  0.00    -0.266 A  
HETATM    8  C   UNL     1      -9.559   3.593  70.171  1.00  0.00    -0.242 C  
HETATM    9  C   UNL     1     -10.585   5.804  70.798  1.00  0.00    -0.337 A  
HETATM   10  C   UNL     1     -10.213   4.500  71.175  1.00  0.00    -0.163 A  
BRANCH   7  11
HETATM   11  C   UNL     1     -11.228   8.188  71.397  1.00  0.00    -0.297 A  
HETATM   12  C   UNL     1     -12.595  10.189  71.731  1.00  0.00    -0.500 A  
HETATM   13  C   UNL     1     -12.315   8.857  71.996  1.00  0.00    -0.460 A  
HETATM   14  C   UNL     1     -11.867  10.861  70.754  1.00  0.00    -0.424 A  
HETATM   15  C   UNL     1     -12.215  12.275  70.501  1.00  0.00    -0.300 C  
HETATM   16  C   UNL     1     -11.589  12.951  69.362  1.00  0.00    -0.363 C  
HETATM   17  O   UNL     1     -13.011  12.882  71.214  1.00  0.00    -0.321 OA 
HETATM   18  C   UNL     1     -10.701  12.238  68.651  1.00  0.00    -0.233 C  
HETATM   19  C   UNL     1     -11.915  14.336  68.962  1.00  0.00    -0.325 C  
HETATM   20  O   UNL     1     -12.780  14.969  69.780  1.00  0.00    -0.169 OA 
HETATM   21  O   UNL     1     -11.437  14.879  67.978  1.00  0.00    -0.313 OA 
HETATM   22  N   UNL     1     -10.255  10.946  68.911  1.00  0.00    -0.192 NA 
HETATM   23  C   UNL     1     -10.829  10.232  70.032  1.00  0.00    -0.307 A  
HETATM   24  C   UNL     1      -9.069   8.395  70.070  1.00  0.00    -0.150 C  
HETATM   25  C   UNL     1     -10.422   8.934  70.471  1.00  0.00    -0.257 A  
BRANCH  22  26
HETATM   26  C   UNL     1      -9.693  10.196  67.745  1.00  0.00    -0.153 C  
HETATM   27  C   UNL     1      -9.057  10.931  66.587  1.00  0.00    -0.175 C  
HETATM   28  C   UNL     1     -10.297  10.138  66.355  1.00  0.00    -0.258 C  
ENDBRANCH  22  26
ENDBRANCH   7  11
ENDBRANCH   2   4
TORSDOF 3
ENDMDL
MODEL       50
REMARK 921   NORMALIZED FREE ENERGY PREDICTED BY IDOCK:   -5.89 KCAL/MOL
REMARK 922        TOTAL FREE ENERGY PREDICTED BY IDOCK:   -7.60 KCAL/MOL
REMARK 923 INTER-LIGAND FREE ENERGY PREDICTED BY IDOCK:   -6.69 KCAL/MOL
REMARK 924 INTRA-LIGAND FREE ENERGY PREDICTED BY IDOCK:   -0.91 KCAL/MOL
REMARK 927      BINDING AFFINITY PREDICTED BY RF-SCORE:    0.00 PKD
ROOT
HETATM    1  C   UNL     1      -9.464   3.113  65.412  1.00  0.00    -0.091 C  
HETATM    2  N   UNL     1      -9.541   3.465  66.820  1.00  0.00    -0.386 NA 
HETATM    3  H   UNL     1      -9.489   2.769  67.565  1.00  0.00     0.000 HD 
ENDROOT
BRANCH   2   4
HETATM    4  C   UNL     1      -9.692   4.838  67.075  1.00  0.00    -0.186 A  
HETATM    5  N   UNL     1     -10.766   5.489  66.590  1.00  0.00    -0.300 NA 
HETATM    6  C   UNL     1     -10.928   6.800  66.911  1.00  0.00    -0.300 A  
HETATM    7  C   UNL     1     -10.044   7.571  67.659  1.00  0.00    -0.243 A  
HETATM    8  C   UNL     1      -7.634   4.748  68.547  1.00  0.00    -0.073 C  
HETATM    9  C   UNL     1      -8.915   6.871  68.113  1.00  0.00    -0.123 A  
HETATM   10  C   UNL     1      -8.757   5.492  67.880  1.00  0.00    -0.106 A  
BRANCH   7  11
HETATM   11  C   UNL     1     -10.335   8.978  68.077  1.00  0.00    -0.275 A  
HETATM   12  C   UNL     1     -11.491  10.424  69.675  1.00  0.00    -0.326 A  
HETATM   13  C   UNL     1     -11.145   9.163  69.215  1.00  0.00     0.001 A  
HETATM   14  C   UNL     1     -11.140  11.545  68.930  1.00  0.00    -0.288 A  
HETATM   15  C   UNL     1     -11.545  12.865  69.457  1.00  0.00    -0.282 C  
HETATM   16  C   UNL     1     -11.344  14.043  68.609  1.00  0.00    -0.307 C  
HETATM   17  O   UNL     1     -12.043  12.990  70.574  1.00  0.00    -0.355 OA 
HETATM   18  C   UNL     1     -10.759  13.837  67.419  1.00  0.00    -0.275 C  
HETATM   19  C   UNL     1     -11.779  15.402  68.993  1.00  0.00    -0.361 C  
HETATM   20  O   UNL     1     -12.307  15.495  70.231  1.00  0.00    -0.386 OA 
HETATM   21  O   UNL     1     -11.666  16.374  68.262  1.00  0.00    -0.176 OA 
HETATM   22  N   UNL     1     -10.258  12.638  66.921  1.00  0.00    -0.233 NA 
HETATM   23  C   UNL     1     -10.416  11.441  67.721  1.00  0.00    -0.185 A  
HETATM   24  C   UNL     1      -8.762  10.043  66.386  1.00  0.00    -0.140 C  
HETATM   25  C   UNL     1      -9.891  10.155  67.383  1.00  0.00    -0.225 A  
BRANCH  22  26
HETATM   26  C   UNL     1     -10.136  12.541  65.433  1.00  0.00    -0.267 C  
HETATM   27  C   UNL     1     -10.703  13.622  64.540  1.00  0.00    -0.420 C  
HETATM   28  C   UNL     1     -11.269  12.245  64.469  1.00  0.00    -0.378 C  
ENDBRANCH  22  26
ENDBRANCH   7  11
ENDBRANCH   2   4
TORSDOF 3
ENDMDL
MODEL       51
REMARK 921   NORMALIZED FREE ENERGY PREDICTED BY IDOCK:   -5.89 KCAL/MOL
REMARK 922        TOTAL FREE ENERGY PREDICTED BY IDOCK:   -7.60 KCAL/MOL
REMARK 923 INTER-LIGAND FREE ENERGY PREDICTED BY IDOCK:   -6.98 KCAL/MOL
REMARK 924 INTRA-LIGAND FREE ENERGY PREDICTED BY IDOCK:   -0.62 KCAL/MOL
REMARK 927      BINDING AFFINITY PREDICTED BY RF-SCORE:    0.00 PKD
ROOT
HETATM    1  C   UNL     1     -11.281   6.007  69.695  1.00  0.00    -0.357 C  
HETATM    2  N   UNL     1     -10.207   6.302  68.762  1.00  0.00    -0.163 NA 
HETATM    3  H   UNL     1      -9.650   5.574  68.315  1.00  0.00     0.000 HD 
ENDROOT
BRANCH   2   4
HETATM    4  C   UNL     1      -9.995   7.671  68.525  1.00  0.00    -0.180 A  
HETATM    5  N   UNL     1     -10.646   8.279  67.516  1.00  0.00    -0.248 NA 
HETATM    6  C   UNL     1     -10.480   9.618  67.351  1.00  0.00    -0.257 A  
HETATM    7  C   UNL     1      -9.639  10.432  68.101  1.00  0.00    -0.155 A  
HETATM    8  C   UNL     1      -8.539   7.761  70.595  1.00  0.00    -0.127 C  
HETATM    9  C   UNL     1      -8.944   9.758  69.118  1.00  0.00    -0.161 A  
HETATM   10  C   UNL     1      -9.158   8.392  69.380  1.00  0.00    -0.154 A  
BRANCH   7  11
HETATM   11  C   UNL     1      -9.587  11.920  67.948  1.00  0.00    -0.193 A  
HETATM   12  C   UNL     1      -8.356  13.827  67.036  1.00  0.00    -0.107 A  
HETATM   13  C   UNL     1      -8.509  12.461  67.219  1.00  0.00    -0.183 A  
HETATM   14  C   UNL     1      -9.214  14.706  67.689  1.00  0.00    -0.193 A  
HETATM   15  C   UNL     1      -9.000  16.152  67.471  1.00  0.00    -0.191 C  
HETATM   16  C   UNL     1      -9.772  17.098  68.281  1.00  0.00    -0.280 C  
HETATM   17  O   UNL     1      -8.196  16.568  66.639  1.00  0.00    -0.211 OA 
HETATM   18  C   UNL     1     -10.659  16.573  69.140  1.00  0.00    -0.319 C  
HETATM   19  C   UNL     1      -9.590  18.563  68.209  1.00  0.00    -0.343 C  
HETATM   20  O   UNL     1      -8.709  18.975  67.274  1.00  0.00    -0.273 OA 
HETATM   21  O   UNL     1     -10.190  19.349  68.926  1.00  0.00    -0.410 OA 
HETATM   22  N   UNL     1     -10.980  15.230  69.306  1.00  0.00    -0.246 NA 
HETATM   23  C   UNL     1     -10.259  14.248  68.523  1.00  0.00    -0.245 A  
HETATM   24  C   UNL     1     -11.861  12.332  69.009  1.00  0.00    -0.358 C  
HETATM   25  C   UNL     1     -10.525  12.843  68.524  1.00  0.00    -0.260 A  
BRANCH  22  26
HETATM   26  C   UNL     1     -11.579  14.853  70.624  1.00  0.00    -0.291 C  
HETATM   27  C   UNL     1     -12.983  15.281  70.985  1.00  0.00    -0.526 C  
HETATM   28  C   UNL     1     -11.835  15.797  71.783  1.00  0.00    -0.549 C  
ENDBRANCH  22  26
ENDBRANCH   7  11
ENDBRANCH   2   4
TORSDOF 3
ENDMDL
MODEL       52
REMARK 921   NORMALIZED FREE ENERGY PREDICTED BY IDOCK:   -5.88 KCAL/MOL
REMARK 922        TOTAL FREE ENERGY PREDICTED BY IDOCK:   -7.59 KCAL/MOL
REMARK 923 INTER-LIGAND FREE ENERGY PREDICTED BY IDOCK:   -7.16 KCAL/MOL
REMARK 924 INTRA-LIGAND FREE ENERGY PREDICTED BY IDOCK:   -0.43 KCAL/MOL
REMARK 927      BINDING AFFINITY PREDICTED BY RF-SCORE:    0.00 PKD
ROOT
HETATM    1  C   UNL     1     -12.191  16.206  73.051  1.00  0.00    -0.541 C  
HETATM    2  N   UNL     1     -13.211  15.737  72.128  1.00  0.00    -0.458 NA 
HETATM    3  H   UNL     1     -14.204  15.930  72.260  1.00  0.00     0.000 HD 
ENDROOT
BRANCH   2   4
HETATM    4  C   UNL     1     -12.722  14.994  71.040  1.00  0.00    -0.366 A  
HETATM    5  N   UNL     1     -12.066  15.624  70.047  1.00  0.00    -0.370 NA 
HETATM    6  C   UNL     1     -11.539  14.876  69.042  1.00  0.00    -0.305 A  
HETATM    7  C   UNL     1     -11.664  13.498  68.901  1.00  0.00    -0.379 A  
HETATM    8  C   UNL     1     -13.471  12.874  72.204  1.00  0.00    -0.619 C  
HETATM    9  C   UNL     1     -12.389  12.879  69.932  1.00  0.00    -0.156 A  
HETATM   10  C   UNL     1     -12.870  13.605  71.036  1.00  0.00    -0.360 A  
BRANCH   7  11
HETATM   11  C   UNL     1     -10.962  12.716  67.835  1.00  0.00    -0.262 A  
HETATM   12  C   UNL     1     -10.312  12.625  65.479  1.00  0.00    -0.305 A  
HETATM   13  C   UNL     1     -10.918  13.276  66.542  1.00  0.00    -0.299 A  
HETATM   14  C   UNL     1      -9.839  11.327  65.650  1.00  0.00    -0.277 A  
HETATM   15  C   UNL     1      -9.213  10.674  64.482  1.00  0.00    -0.231 C  
HETATM   16  C   UNL     1      -8.869   9.253  64.583  1.00  0.00    -0.218 C  
HETATM   17  O   UNL     1      -8.985  11.289  63.442  1.00  0.00    -0.135 OA 
HETATM   18  C   UNL     1      -9.111   8.656  65.761  1.00  0.00    -0.187 C  
HETATM   19  C   UNL     1      -8.312   8.472  63.458  1.00  0.00    -0.082 C  
HETATM   20  O   UNL     1      -8.064   9.189  62.344  1.00  0.00    -0.125 OA 
HETATM   21  O   UNL     1      -8.080   7.274  63.524  1.00  0.00    -0.100 OA 
HETATM   22  N   UNL     1      -9.592   9.248  66.923  1.00  0.00    -0.163 NA 
HETATM   23  C   UNL     1      -9.938  10.654  66.888  1.00  0.00    -0.202 A  
HETATM   24  C   UNL     1     -10.081  10.928  69.413  1.00  0.00    -0.116 C  
HETATM   25  C   UNL     1     -10.371  11.420  68.015  1.00  0.00    -0.204 A  
BRANCH  22  26
HETATM   26  C   UNL     1     -10.253   8.332  67.905  1.00  0.00    -0.220 C  
HETATM   27  C   UNL     1      -9.501   7.161  68.495  1.00  0.00    -0.139 C  
HETATM   28  C   UNL     1     -10.688   6.906  67.631  1.00  0.00    -0.344 C  
ENDBRANCH  22  26
ENDBRANCH   7  11
ENDBRANCH   2   4
TORSDOF 3
ENDMDL
MODEL       53
REMARK 921   NORMALIZED FREE ENERGY PREDICTED BY IDOCK:   -5.82 KCAL/MOL
REMARK 922        TOTAL FREE ENERGY PREDICTED BY IDOCK:   -7.52 KCAL/MOL
REMARK 923 INTER-LIGAND FREE ENERGY PREDICTED BY IDOCK:   -7.05 KCAL/MOL
REMARK 924 INTRA-LIGAND FREE ENERGY PREDICTED BY IDOCK:   -0.47 KCAL/MOL
REMARK 927      BINDING AFFINITY PREDICTED BY RF-SCORE:    0.00 PKD
ROOT
HETATM    1  C   UNL     1     -11.932  16.341  72.704  1.00  0.00    -0.546 C  
HETATM    2  N   UNL     1     -12.626  16.144  71.442  1.00  0.00    -0.501 NA 
HETATM    3  H   UNL     1     -13.272  16.834  71.055  1.00  0.00     0.000 HD 
ENDROOT
BRANCH   2   4
HETATM    4  C   UNL     1     -12.339  14.930  70.796  1.00  0.00    -0.329 A  
HETATM    5  N   UNL     1     -11.349  14.880  69.885  1.00  0.00    -0.265 NA 
HETATM    6  C   UNL     1     -11.041  13.680  69.327  1.00  0.00    -0.193 A  
HETATM    7  C   UNL     1     -11.702  12.479  69.564  1.00  0.00    -0.375 A  
HETATM    8  C   UNL     1     -14.052  13.789  72.270  1.00  0.00    -0.627 C  
HETATM    9  C   UNL     1     -12.756  12.576  70.487  1.00  0.00    -0.059 A  
HETATM   10  C   UNL     1     -13.045  13.780  71.154  1.00  0.00    -0.324 A  
BRANCH   7  11
HETATM   11  C   UNL     1     -11.243  11.167  69.008  1.00  0.00    -0.318 A  
HETATM   12  C   UNL     1     -10.496   8.895  69.519  1.00  0.00    -0.229 A  
HETATM   13  C   UNL     1     -10.948  10.140  69.927  1.00  0.00    -0.344 A  
HETATM   14  C   UNL     1     -10.202   8.679  68.176  1.00  0.00    -0.250 A  
HETATM   15  C   UNL     1      -9.710   7.339  67.796  1.00  0.00    -0.140 C  
HETATM   16  C   UNL     1      -9.227   7.139  66.427  1.00  0.00    -0.196 C  
HETATM   17  O   UNL     1      -9.695   6.405  68.596  1.00  0.00    -0.123 OA 
HETATM   18  C   UNL     1      -9.310   8.191  65.598  1.00  0.00     0.102 C  
HETATM   19  C   UNL     1      -8.641   5.868  65.952  1.00  0.00    -0.145 C  
HETATM   20  O   UNL     1      -8.658   4.868  66.856  1.00  0.00    -0.107 OA 
HETATM   21  O   UNL     1      -8.184   5.719  64.829  1.00  0.00    -0.131 OA 
HETATM   22  N   UNL     1      -9.865   9.437  65.870  1.00  0.00    -0.297 NA 
HETATM   23  C   UNL     1     -10.371   9.690  67.204  1.00  0.00    -0.254 A  
HETATM   24  C   UNL     1     -11.647  11.800  66.579  1.00  0.00    -0.256 C  
HETATM   25  C   UNL     1     -11.036  10.887  67.615  1.00  0.00    -0.350 A  
BRANCH  22  26
HETATM   26  C   UNL     1      -9.393  10.570  65.015  1.00  0.00    -0.222 C  
HETATM   27  C   UNL     1      -9.938  10.762  63.618  1.00  0.00    -0.405 C  
HETATM   28  C   UNL     1      -8.493  10.448  63.800  1.00  0.00    -0.162 C  
ENDBRANCH  22  26
ENDBRANCH   7  11
ENDBRANCH   2   4
TORSDOF 3
ENDMDL
MODEL       54
REMARK 921   NORMALIZED FREE ENERGY PREDICTED BY IDOCK:   -5.80 KCAL/MOL
REMARK 922        TOTAL FREE ENERGY PREDICTED BY IDOCK:   -7.49 KCAL/MOL
REMARK 923 INTER-LIGAND FREE ENERGY PREDICTED BY IDOCK:   -6.93 KCAL/MOL
REMARK 924 INTRA-LIGAND FREE ENERGY PREDICTED BY IDOCK:   -0.56 KCAL/MOL
REMARK 927      BINDING AFFINITY PREDICTED BY RF-SCORE:    0.00 PKD
ROOT
HETATM    1  C   UNL     1     -10.882   6.220  67.690  1.00  0.00    -0.346 C  
HETATM    2  N   UNL     1      -9.933   6.838  66.778  1.00  0.00    -0.235 NA 
HETATM    3  H   UNL     1      -9.330   6.294  66.160  1.00  0.00     0.000 HD 
ENDROOT
BRANCH   2   4
HETATM    4  C   UNL     1      -9.912   8.242  66.814  1.00  0.00    -0.285 A  
HETATM    5  N   UNL     1     -10.638   8.894  67.741  1.00  0.00    -0.231 NA 
HETATM    6  C   UNL     1     -10.546  10.249  67.802  1.00  0.00    -0.250 A  
HETATM    7  C   UNL     1      -9.804  11.053  66.944  1.00  0.00    -0.222 A  
HETATM    8  C   UNL     1      -8.165   8.221  64.981  1.00  0.00    -0.160 C  
HETATM    9  C   UNL     1      -9.093  10.344  65.963  1.00  0.00    -0.187 A  
HETATM   10  C   UNL     1      -9.090   8.938  65.924  1.00  0.00    -0.271 A  
BRANCH   7  11
HETATM   11  C   UNL     1      -9.649  12.530  67.134  1.00  0.00    -0.208 A  
HETATM   12  C   UNL     1      -8.112  14.432  67.092  1.00  0.00    -0.171 A  
HETATM   13  C   UNL     1      -8.369  13.080  66.923  1.00  0.00    -0.033 A  
HETATM   14  C   UNL     1      -9.107  15.259  67.605  1.00  0.00    -0.184 A  
HETATM   15  C   UNL     1      -8.778  16.689  67.779  1.00  0.00    -0.201 C  
HETATM   16  C   UNL     1      -9.741  17.544  68.479  1.00  0.00    -0.319 C  
HETATM   17  O   UNL     1      -7.726  17.167  67.358  1.00  0.00    -0.165 OA 
HETATM   18  C   UNL     1     -10.885  16.964  68.875  1.00  0.00    -0.274 C  
HETATM   19  C   UNL     1      -9.491  18.969  68.781  1.00  0.00    -0.382 C  
HETATM   20  O   UNL     1      -8.333  19.453  68.288  1.00  0.00    -0.322 OA 
HETATM   21  O   UNL     1     -10.268  19.665  69.416  1.00  0.00    -0.328 OA 
HETATM   22  N   UNL     1     -11.293  15.655  68.640  1.00  0.00    -0.337 NA 
HETATM   23  C   UNL     1     -10.387  14.766  67.941  1.00  0.00    -0.240 A  
HETATM   24  C   UNL     1     -12.130  12.974  67.470  1.00  0.00    -0.279 C  
HETATM   25  C   UNL     1     -10.691  13.422  67.560  1.00  0.00    -0.263 A  
BRANCH  22  26
HETATM   26  C   UNL     1     -12.314  15.103  69.585  1.00  0.00    -0.207 C  
HETATM   27  C   UNL     1     -12.546  15.746  70.933  1.00  0.00    -0.437 C  
HETATM   28  C   UNL     1     -12.018  14.353  70.870  1.00  0.00    -0.393 C  
ENDBRANCH  22  26
ENDBRANCH   7  11
ENDBRANCH   2   4
TORSDOF 3
ENDMDL
MODEL       55
REMARK 921   NORMALIZED FREE ENERGY PREDICTED BY IDOCK:   -5.75 KCAL/MOL
REMARK 922        TOTAL FREE ENERGY PREDICTED BY IDOCK:   -7.43 KCAL/MOL
REMARK 923 INTER-LIGAND FREE ENERGY PREDICTED BY IDOCK:   -6.74 KCAL/MOL
REMARK 924 INTRA-LIGAND FREE ENERGY PREDICTED BY IDOCK:   -0.69 KCAL/MOL
REMARK 927      BINDING AFFINITY PREDICTED BY RF-SCORE:    0.00 PKD
ROOT
HETATM    1  C   UNL     1      -6.870   7.999  63.161  1.00  0.00    -0.084 C  
HETATM    2  N   UNL     1      -6.816   9.451  63.141  1.00  0.00    -0.098 NA 
HETATM    3  H   UNL     1      -6.299   9.974  62.433  1.00  0.00     0.000 HD 
ENDROOT
BRANCH   2   4
HETATM    4  C   UNL     1      -7.532  10.079  64.174  1.00  0.00    -0.132 A  
HETATM    5  N   UNL     1      -6.959  10.231  65.383  1.00  0.00    -0.139 NA 
HETATM    6  C   UNL     1      -7.643  10.906  66.344  1.00  0.00    -0.146 A  
HETATM    7  C   UNL     1      -8.931  11.416  66.221  1.00  0.00    -0.205 A  
HETATM    8  C   UNL     1      -9.399  10.559  62.532  1.00  0.00    -0.319 C  
HETATM    9  C   UNL     1      -9.514  11.204  64.962  1.00  0.00    -0.259 A  
HETATM   10  C   UNL     1      -8.805  10.592  63.912  1.00  0.00    -0.203 A  
BRANCH   7  11
HETATM   11  C   UNL     1      -9.586  12.252  67.276  1.00  0.00    -0.187 A  
HETATM   12  C   UNL     1      -9.498  14.326  68.569  1.00  0.00    -0.206 A  
HETATM   13  C   UNL     1      -8.984  13.486  67.593  1.00  0.00    -0.200 A  
HETATM   14  C   UNL     1     -10.566  13.895  69.351  1.00  0.00     0.019 A  
HETATM   15  C   UNL     1     -11.067  14.823  70.386  1.00  0.00    -0.118 C  
HETATM   16  C   UNL     1     -12.067  14.329  71.336  1.00  0.00    -0.354 C  
HETATM   17  O   UNL     1     -10.663  15.981  70.466  1.00  0.00    -0.271 OA 
HETATM   18  C   UNL     1     -12.491  13.067  71.164  1.00  0.00    -0.271 C  
HETATM   19  C   UNL     1     -12.586  15.136  72.460  1.00  0.00    -0.354 C  
HETATM   20  O   UNL     1     -12.128  16.404  72.500  1.00  0.00    -0.516 OA 
HETATM   21  O   UNL     1     -13.376  14.705  73.286  1.00  0.00    -0.585 OA 
HETATM   22  N   UNL     1     -12.137  12.190  70.144  1.00  0.00    -0.319 NA 
HETATM   23  C   UNL     1     -11.161  12.627  69.167  1.00  0.00    -0.243 A  
HETATM   24  C   UNL     1     -11.629  10.755  67.508  1.00  0.00    -0.011 C  
HETATM   25  C   UNL     1     -10.754  11.874  68.022  1.00  0.00    -0.242 A  
BRANCH  22  26
HETATM   26  C   UNL     1     -12.312  10.733  70.436  1.00  0.00    -0.353 C  
HETATM   27  C   UNL     1     -13.004  10.277  71.701  1.00  0.00    -0.570 C  
HETATM   28  C   UNL     1     -11.565   9.946  71.496  1.00  0.00    -0.375 C  
ENDBRANCH  22  26
ENDBRANCH   7  11
ENDBRANCH   2   4
TORSDOF 3
ENDMDL
MODEL       56
REMARK 921   NORMALIZED FREE ENERGY PREDICTED BY IDOCK:   -5.74 KCAL/MOL
REMARK 922        TOTAL FREE ENERGY PREDICTED BY IDOCK:   -7.43 KCAL/MOL
REMARK 923 INTER-LIGAND FREE ENERGY PREDICTED BY IDOCK:   -6.56 KCAL/MOL
REMARK 924 INTRA-LIGAND FREE ENERGY PREDICTED BY IDOCK:   -0.87 KCAL/MOL
REMARK 927      BINDING AFFINITY PREDICTED BY RF-SCORE:    0.00 PKD
ROOT
HETATM    1  C   UNL     1     -11.216   5.822  73.053  1.00  0.00    -0.246 C  
HETATM    2  N   UNL     1     -11.029   5.717  71.615  1.00  0.00    -0.260 NA 
HETATM    3  H   UNL     1     -11.108   4.833  71.112  1.00  0.00     0.000 HD 
ENDROOT
BRANCH   2   4
HETATM    4  C   UNL     1     -10.730   6.930  70.972  1.00  0.00    -0.231 A  
HETATM    5  N   UNL     1     -10.604   8.055  71.700  1.00  0.00    -0.220 NA 
HETATM    6  C   UNL     1     -10.244   9.202  71.065  1.00  0.00    -0.302 A  
HETATM    7  C   UNL     1     -10.045   9.346  69.696  1.00  0.00    -0.218 A  
HETATM    8  C   UNL     1     -10.502   5.667  68.789  1.00  0.00    -0.289 C  
HETATM    9  C   UNL     1     -10.225   8.163  68.962  1.00  0.00    -0.228 A  
HETATM   10  C   UNL     1     -10.508   6.937  69.593  1.00  0.00    -0.240 A  
BRANCH   7  11
HETATM   11  C   UNL     1      -9.535  10.606  69.071  1.00  0.00    -0.202 A  
HETATM   12  C   UNL     1      -7.562  11.900  68.427  1.00  0.00    -0.120 A  
HETATM   13  C   UNL     1      -8.138  10.762  68.971  1.00  0.00    -0.140 A  
HETATM   14  C   UNL     1      -8.370  12.979  68.080  1.00  0.00    -0.164 A  
HETATM   15  C   UNL     1      -7.705  14.172  67.518  1.00  0.00    -0.185 C  
HETATM   16  C   UNL     1      -8.506  15.381  67.311  1.00  0.00    -0.214 C  
HETATM   17  O   UNL     1      -6.509  14.170  67.230  1.00  0.00    -0.288 OA 
HETATM   18  C   UNL     1      -9.812  15.298  67.610  1.00  0.00    -0.217 C  
HETATM   19  C   UNL     1      -7.938  16.658  66.828  1.00  0.00    -0.249 C  
HETATM   20  O   UNL     1      -6.629  16.606  66.511  1.00  0.00    -0.229 OA 
HETATM   21  O   UNL     1      -8.594  17.682  66.712  1.00  0.00    -0.236 OA 
HETATM   22  N   UNL     1     -10.510  14.172  68.035  1.00  0.00    -0.236 NA 
HETATM   23  C   UNL     1      -9.772  12.943  68.245  1.00  0.00    -0.217 A  
HETATM   24  C   UNL     1     -11.828  11.450  68.367  1.00  0.00    -0.344 C  
HETATM   25  C   UNL     1     -10.356  11.689  68.605  1.00  0.00    -0.229 A  
BRANCH  22  26
HETATM   26  C   UNL     1     -11.781  14.427  68.782  1.00  0.00    -0.337 C  
HETATM   27  C   UNL     1     -12.000  15.734  69.510  1.00  0.00    -0.326 C  
HETATM   28  C   UNL     1     -11.930  14.466  70.291  1.00  0.00    -0.388 C  
ENDBRANCH  22  26
ENDBRANCH   7  11
ENDBRANCH   2   4
TORSDOF 3
ENDMDL
MODEL       57
REMARK 921   NORMALIZED FREE ENERGY PREDICTED BY IDOCK:   -5.73 KCAL/MOL
REMARK 922        TOTAL FREE ENERGY PREDICTED BY IDOCK:   -7.41 KCAL/MOL
REMARK 923 INTER-LIGAND FREE ENERGY PREDICTED BY IDOCK:   -7.24 KCAL/MOL
REMARK 924 INTRA-LIGAND FREE ENERGY PREDICTED BY IDOCK:   -0.18 KCAL/MOL
REMARK 927      BINDING AFFINITY PREDICTED BY RF-SCORE:    0.00 PKD
ROOT
HETATM    1  C   UNL     1     -11.323  15.874  68.512  1.00  0.00    -0.374 C  
HETATM    2  N   UNL     1     -12.403  14.912  68.372  1.00  0.00    -0.578 NA 
HETATM    3  H   UNL     1     -13.308  15.154  67.967  1.00  0.00     0.000 HD 
ENDROOT
BRANCH   2   4
HETATM    4  C   UNL     1     -12.104  13.621  68.839  1.00  0.00    -0.300 A  
HETATM    5  N   UNL     1     -12.169  13.360  70.158  1.00  0.00    -0.332 NA 
HETATM    6  C   UNL     1     -11.945  12.087  70.579  1.00  0.00    -0.246 A  
HETATM    7  C   UNL     1     -11.589  11.013  69.770  1.00  0.00    -0.401 A  
HETATM    8  C   UNL     1     -11.868  12.852  66.438  1.00  0.00    -0.478 C  
HETATM    9  C   UNL     1     -11.490  11.330  68.406  1.00  0.00    -0.377 A  
HETATM   10  C   UNL     1     -11.803  12.613  67.920  1.00  0.00    -0.388 A  
BRANCH   7  11
HETATM   11  C   UNL     1     -11.471   9.609  70.276  1.00  0.00    -0.288 A  
HETATM   12  C   UNL     1     -12.094   8.024  72.032  1.00  0.00    -0.377 A  
HETATM   13  C   UNL     1     -12.154   9.289  71.467  1.00  0.00    -0.435 A  
HETATM   14  C   UNL     1     -11.240   7.070  71.487  1.00  0.00    -0.279 A  
HETATM   15  C   UNL     1     -11.203   5.743  72.134  1.00  0.00    -0.269 C  
HETATM   16  C   UNL     1     -10.188   4.782  71.693  1.00  0.00    -0.249 C  
HETATM   17  O   UNL     1     -11.993   5.436  73.026  1.00  0.00    -0.193 OA 
HETATM   18  C   UNL     1      -9.386   5.171  70.689  1.00  0.00    -0.159 C  
HETATM   19  C   UNL     1     -10.003   3.455  72.317  1.00  0.00    -0.163 C  
HETATM   20  O   UNL     1     -10.899   3.155  73.279  1.00  0.00    -0.179 OA 
HETATM   21  O   UNL     1      -9.119   2.678  71.989  1.00  0.00    -0.080 OA 
HETATM   22  N   UNL     1      -9.449   6.360  69.972  1.00  0.00    -0.155 NA 
HETATM   23  C   UNL     1     -10.441   7.344  70.354  1.00  0.00    -0.221 A  
HETATM   24  C   UNL     1     -10.215   8.744  68.242  1.00  0.00    -0.240 C  
HETATM   25  C   UNL     1     -10.680   8.576  69.669  1.00  0.00    -0.200 A  
BRANCH  22  26
HETATM   26  C   UNL     1      -8.188   6.786  69.289  1.00  0.00    -0.124 C  
HETATM   27  C   UNL     1      -7.535   5.902  68.250  1.00  0.00    -0.085 C  
HETATM   28  C   UNL     1      -6.811   6.192  69.521  1.00  0.00    -0.065 C  
ENDBRANCH  22  26
ENDBRANCH   7  11
ENDBRANCH   2   4
TORSDOF 3
ENDMDL
MODEL       58
REMARK 921   NORMALIZED FREE ENERGY PREDICTED BY IDOCK:   -5.72 KCAL/MOL
REMARK 922        TOTAL FREE ENERGY PREDICTED BY IDOCK:   -7.40 KCAL/MOL
REMARK 923 INTER-LIGAND FREE ENERGY PREDICTED BY IDOCK:   -6.68 KCAL/MOL
REMARK 924 INTRA-LIGAND FREE ENERGY PREDICTED BY IDOCK:   -0.72 KCAL/MOL
REMARK 927      BINDING AFFINITY PREDICTED BY RF-SCORE:    0.00 PKD
ROOT
HETATM    1  C   UNL     1      -9.248   4.104  67.983  1.00  0.00    -0.147 C  
HETATM    2  N   UNL     1      -8.760   4.968  69.045  1.00  0.00    -0.088 NA 
HETATM    3  H   UNL     1      -8.412   4.606  69.933  1.00  0.00     0.000 HD 
ENDROOT
BRANCH   2   4
HETATM    4  C   UNL     1      -8.807   6.341  68.753  1.00  0.00    -0.123 A  
HETATM    5  N   UNL     1      -7.889   6.876  67.926  1.00  0.00    -0.112 NA 
HETATM    6  C   UNL     1      -7.998   8.192  67.602  1.00  0.00    -0.122 A  
HETATM    7  C   UNL     1      -8.950   9.076  68.097  1.00  0.00    -0.133 A  
HETATM    8  C   UNL     1     -10.955   6.509  70.084  1.00  0.00    -0.374 C  
HETATM    9  C   UNL     1      -9.865   8.495  68.989  1.00  0.00    -0.184 A  
HETATM   10  C   UNL     1      -9.842   7.118  69.278  1.00  0.00    -0.161 A  
BRANCH   7  11
HETATM   11  C   UNL     1      -9.090  10.486  67.612  1.00  0.00    -0.146 A  
HETATM   12  C   UNL     1      -8.713  12.851  68.108  1.00  0.00    -0.190 A  
HETATM   13  C   UNL     1      -8.612  11.512  68.453  1.00  0.00    -0.159 A  
HETATM   14  C   UNL     1      -9.413  13.213  66.961  1.00  0.00    -0.242 A  
HETATM   15  C   UNL     1      -9.501  14.654  66.646  1.00  0.00    -0.278 C  
HETATM   16  C   UNL     1     -10.377  15.072  65.549  1.00  0.00    -0.397 C  
HETATM   17  O   UNL     1      -8.867  15.494  67.281  1.00  0.00    -0.184 OA 
HETATM   18  C   UNL     1     -11.008  14.098  64.875  1.00  0.00    -0.397 C  
HETATM   19  C   UNL     1     -10.608  16.488  65.190  1.00  0.00    -0.215 C  
HETATM   20  O   UNL     1      -9.882  17.374  65.902  1.00  0.00    -0.501 OA 
HETATM   21  O   UNL     1     -11.384  16.839  64.315  1.00  0.00    -1.170 OA 
HETATM   22  N   UNL     1     -10.874  12.725  65.056  1.00  0.00    -0.283 NA 
HETATM   23  C   UNL     1     -10.011  12.251  66.118  1.00  0.00    -0.243 A  
HETATM   24  C   UNL     1      -9.927   9.843  65.299  1.00  0.00    -0.320 C  
HETATM   25  C   UNL     1      -9.713  10.877  66.379  1.00  0.00    -0.240 A  
BRANCH  22  26
HETATM   26  C   UNL     1     -12.015  11.883  64.576  1.00  0.00    -0.196 C  
HETATM   27  C   UNL     1     -12.253  11.676  63.098  1.00  0.00    -0.150 C  
HETATM   28  C   UNL     1     -13.276  12.397  63.908  1.00  0.00     0.079 C  
ENDBRANCH  22  26
ENDBRANCH   7  11
ENDBRANCH   2   4
TORSDOF 3
ENDMDL
MODEL       59
REMARK 921   NORMALIZED FREE ENERGY PREDICTED BY IDOCK:   -5.68 KCAL/MOL
REMARK 922        TOTAL FREE ENERGY PREDICTED BY IDOCK:   -7.36 KCAL/MOL
REMARK 923 INTER-LIGAND FREE ENERGY PREDICTED BY IDOCK:   -6.54 KCAL/MOL
REMARK 924 INTRA-LIGAND FREE ENERGY PREDICTED BY IDOCK:   -0.81 KCAL/MOL
REMARK 927      BINDING AFFINITY PREDICTED BY RF-SCORE:    0.00 PKD
ROOT
HETATM    1  C   UNL     1     -10.530  18.101  65.703  1.00  0.00    -0.095 C  
HETATM    2  N   UNL     1     -10.686  16.988  64.782  1.00  0.00    -0.665 NA 
HETATM    3  H   UNL     1     -10.969  17.113  63.810  1.00  0.00     0.000 HD 
ENDROOT
BRANCH   2   4
HETATM    4  C   UNL     1     -10.416  15.725  65.336  1.00  0.00    -0.414 A  
HETATM    5  N   UNL     1      -9.376  15.577  66.177  1.00  0.00    -0.322 NA 
HETATM    6  C   UNL     1      -9.178  14.363  66.756  1.00  0.00    -0.268 A  
HETATM    7  C   UNL     1      -9.926  13.215  66.516  1.00  0.00    -0.268 A  
HETATM    8  C   UNL     1     -12.516  14.839  64.232  1.00  0.00    -0.224 C  
HETATM    9  C   UNL     1     -10.977  13.395  65.602  1.00  0.00    -0.292 A  
HETATM   10  C   UNL     1     -11.270  14.656  65.052  1.00  0.00    -0.388 A  
BRANCH   7  11
HETATM   11  C   UNL     1      -9.733  11.938  67.272  1.00  0.00    -0.191 A  
HETATM   12  C   UNL     1      -8.671   9.735  67.300  1.00  0.00    -0.135 A  
HETATM   13  C   UNL     1      -8.899  10.960  66.693  1.00  0.00    -0.164 A  
HETATM   14  C   UNL     1      -9.376   9.399  68.452  1.00  0.00    -0.137 A  
HETATM   15  C   UNL     1      -9.105   8.076  69.053  1.00  0.00    -0.144 C  
HETATM   16  C   UNL     1      -9.957   7.628  70.157  1.00  0.00    -0.186 C  
HETATM   17  O   UNL     1      -8.196   7.355  68.645  1.00  0.00    -0.123 OA 
HETATM   18  C   UNL     1     -10.903   8.483  70.575  1.00  0.00    -0.228 C  
HETATM   19  C   UNL     1      -9.834   6.295  70.786  1.00  0.00    -0.185 C  
HETATM   20  O   UNL     1      -8.816   5.545  70.319  1.00  0.00    -0.126 OA 
HETATM   21  O   UNL     1     -10.582   5.898  71.666  1.00  0.00    -0.225 OA 
HETATM   22  N   UNL     1     -11.129   9.779  70.122  1.00  0.00    -0.267 NA 
HETATM   23  C   UNL     1     -10.309  10.282  69.040  1.00  0.00    -0.211 A  
HETATM   24  C   UNL     1     -10.980  12.717  69.346  1.00  0.00    -0.041 C  
HETATM   25  C   UNL     1     -10.367  11.612  68.519  1.00  0.00    -0.224 A  
BRANCH  22  26
HETATM   26  C   UNL     1     -12.503  10.326  70.347  1.00  0.00    -0.219 C  
HETATM   27  C   UNL     1     -12.931  10.801  71.717  1.00  0.00    -0.568 C  
HETATM   28  C   UNL     1     -13.621   9.631  71.101  1.00  0.00    -0.232 C  
ENDBRANCH  22  26
ENDBRANCH   7  11
ENDBRANCH   2   4
TORSDOF 3
ENDMDL
MODEL       60
REMARK 921   NORMALIZED FREE ENERGY PREDICTED BY IDOCK:   -5.65 KCAL/MOL
REMARK 922        TOTAL FREE ENERGY PREDICTED BY IDOCK:   -7.32 KCAL/MOL
REMARK 923 INTER-LIGAND FREE ENERGY PREDICTED BY IDOCK:   -6.62 KCAL/MOL
REMARK 924 INTRA-LIGAND FREE ENERGY PREDICTED BY IDOCK:   -0.70 KCAL/MOL
REMARK 927      BINDING AFFINITY PREDICTED BY RF-SCORE:    0.00 PKD
ROOT
HETATM    1  C   UNL     1     -12.030  15.820  64.167  1.00  0.00     0.020 C  
HETATM    2  N   UNL     1     -12.397  14.418  64.269  1.00  0.00    -0.680 NA 
HETATM    3  H   UNL     1     -13.121  13.994  63.687  1.00  0.00     0.000 HD 
ENDROOT
BRANCH   2   4
HETATM    4  C   UNL     1     -11.679  13.691  65.233  1.00  0.00    -0.334 A  
HETATM    5  N   UNL     1     -11.375  14.268  66.410  1.00  0.00    -0.334 NA 
HETATM    6  C   UNL     1     -10.742  13.521  67.354  1.00  0.00    -0.263 A  
HETATM    7  C   UNL     1     -10.314  12.207  67.200  1.00  0.00    -0.233 A  
HETATM    8  C   UNL     1     -11.801  11.657  63.728  1.00  0.00    -0.382 C  
HETATM    9  C   UNL     1     -10.610  11.650  65.946  1.00  0.00    -0.318 A  
HETATM   10  C   UNL     1     -11.344  12.359  64.977  1.00  0.00    -0.363 A  
BRANCH   7  11
HETATM   11  C   UNL     1      -9.728  11.400  68.316  1.00  0.00    -0.202 A  
HETATM   12  C   UNL     1      -7.713  10.351  69.223  1.00  0.00    -0.140 A  
HETATM   13  C   UNL     1      -8.351  11.108  68.252  1.00  0.00    -0.143 A  
HETATM   14  C   UNL     1      -8.466   9.751  70.227  1.00  0.00    -0.163 A  
HETATM   15  C   UNL     1      -7.740   8.943  71.229  1.00  0.00    -0.111 C  
HETATM   16  C   UNL     1      -8.523   8.159  72.188  1.00  0.00    -0.216 C  
HETATM   17  O   UNL     1      -6.512   8.913  71.268  1.00  0.00    -0.064 OA 
HETATM   18  C   UNL     1      -9.858   8.270  72.112  1.00  0.00    -0.272 C  
HETATM   19  C   UNL     1      -7.912   7.254  73.185  1.00  0.00    -0.101 C  
HETATM   20  O   UNL     1      -6.564   7.264  73.203  1.00  0.00    -0.064 OA 
HETATM   21  O   UNL     1      -8.566   6.556  73.945  1.00  0.00    -0.120 OA 
HETATM   22  N   UNL     1     -10.588   9.098  71.265  1.00  0.00    -0.302 NA 
HETATM   23  C   UNL     1      -9.868   9.907  70.303  1.00  0.00    -0.179 A  
HETATM   24  C   UNL     1     -11.841  11.409  69.731  1.00  0.00    -0.435 C  
HETATM   25  C   UNL     1     -10.468  10.860  69.422  1.00  0.00    -0.205 A  
BRANCH  22  26
HETATM   26  C   UNL     1     -12.002   8.687  70.999  1.00  0.00    -0.243 C  
HETATM   27  C   UNL     1     -12.962   8.440  72.140  1.00  0.00    -0.370 C  
HETATM   28  C   UNL     1     -12.585   7.309  71.245  1.00  0.00    -0.402 C  
ENDBRANCH  22  26
ENDBRANCH   7  11
ENDBRANCH   2   4
TORSDOF 3
ENDMDL
MODEL       61
REMARK 921   NORMALIZED FREE ENERGY PREDICTED BY IDOCK:   -5.62 KCAL/MOL
REMARK 922        TOTAL FREE ENERGY PREDICTED BY IDOCK:   -7.28 KCAL/MOL
REMARK 923 INTER-LIGAND FREE ENERGY PREDICTED BY IDOCK:   -6.41 KCAL/MOL
REMARK 924 INTRA-LIGAND FREE ENERGY PREDICTED BY IDOCK:   -0.87 KCAL/MOL
REMARK 927      BINDING AFFINITY PREDICTED BY RF-SCORE:    0.00 PKD
ROOT
HETATM    1  C   UNL     1      -8.640   5.334  71.307  1.00  0.00    -0.128 C  
HETATM    2  N   UNL     1      -8.199   5.374  69.922  1.00  0.00    -0.094 NA 
HETATM    3  H   UNL     1      -7.797   4.565  69.449  1.00  0.00     0.000 HD 
ENDROOT
BRANCH   2   4
HETATM    4  C   UNL     1      -8.371   6.616  69.287  1.00  0.00    -0.124 A  
HETATM    5  N   UNL     1      -9.601   7.157  69.208  1.00  0.00    -0.155 NA 
HETATM    6  C   UNL     1      -9.732   8.391  68.653  1.00  0.00    -0.164 A  
HETATM    7  C   UNL     1      -8.706   9.144  68.091  1.00  0.00    -0.129 A  
HETATM    8  C   UNL     1      -5.859   6.774  69.009  1.00  0.00    -0.018 C  
HETATM    9  C   UNL     1      -7.444   8.531  68.153  1.00  0.00    -0.097 A  
HETATM   10  C   UNL     1      -7.253   7.297  68.800  1.00  0.00    -0.090 A  
BRANCH   7  11
HETATM   11  C   UNL     1      -8.892  10.546  67.601  1.00  0.00    -0.131 A  
HETATM   12  C   UNL     1      -8.595  12.924  68.089  1.00  0.00    -0.188 A  
HETATM   13  C   UNL     1      -8.451  11.590  68.439  1.00  0.00    -0.159 A  
HETATM   14  C   UNL     1      -9.304  13.258  66.939  1.00  0.00    -0.244 A  
HETATM   15  C   UNL     1      -9.439  14.694  66.619  1.00  0.00    -0.278 C  
HETATM   16  C   UNL     1     -10.326  15.080  65.518  1.00  0.00    -0.397 C  
HETATM   17  O   UNL     1      -8.835  15.558  67.252  1.00  0.00    -0.184 OA 
HETATM   18  C   UNL     1     -10.922  14.082  64.846  1.00  0.00    -0.392 C  
HETATM   19  C   UNL     1     -10.603  16.485  65.154  1.00  0.00    -0.215 C  
HETATM   20  O   UNL     1      -9.908  17.397  65.864  1.00  0.00    -0.501 OA 
HETATM   21  O   UNL     1     -11.388  16.808  64.275  1.00  0.00    -1.170 OA 
HETATM   22  N   UNL     1     -10.744  12.715  65.032  1.00  0.00    -0.284 NA 
HETATM   23  C   UNL     1      -9.868  12.274  66.098  1.00  0.00    -0.243 A  
HETATM   24  C   UNL     1      -9.702   9.868  65.288  1.00  0.00    -0.383 C  
HETATM   25  C   UNL     1      -9.525  10.912  66.365  1.00  0.00    -0.214 A  
BRANCH  22  26
HETATM   26  C   UNL     1     -11.854  11.834  64.553  1.00  0.00    -0.152 C  
HETATM   27  C   UNL     1     -12.281  11.851  63.102  1.00  0.00    -0.340 C  
HETATM   28  C   UNL     1     -13.242  12.297  64.152  1.00  0.00     0.062 C  
ENDBRANCH  22  26
ENDBRANCH   7  11
ENDBRANCH   2   4
TORSDOF 3
ENDMDL
MODEL       62
REMARK 921   NORMALIZED FREE ENERGY PREDICTED BY IDOCK:   -5.59 KCAL/MOL
REMARK 922        TOTAL FREE ENERGY PREDICTED BY IDOCK:   -7.25 KCAL/MOL
REMARK 923 INTER-LIGAND FREE ENERGY PREDICTED BY IDOCK:   -6.40 KCAL/MOL
REMARK 924 INTRA-LIGAND FREE ENERGY PREDICTED BY IDOCK:   -0.85 KCAL/MOL
REMARK 927      BINDING AFFINITY PREDICTED BY RF-SCORE:    0.00 PKD
ROOT
HETATM    1  C   UNL     1      -9.939  17.856  66.561  1.00  0.00    -0.357 C  
HETATM    2  N   UNL     1     -10.742  16.798  65.970  1.00  0.00    -0.205 NA 
HETATM    3  H   UNL     1     -11.318  16.941  65.141  1.00  0.00     0.000 HD 
ENDROOT
BRANCH   2   4
HETATM    4  C   UNL     1     -10.662  15.562  66.633  1.00  0.00    -0.306 A  
HETATM    5  N   UNL     1     -10.224  15.516  67.905  1.00  0.00    -0.235 NA 
HETATM    6  C   UNL     1     -10.224  14.318  68.548  1.00  0.00    -0.245 A  
HETATM    7  C   UNL     1     -10.584  13.096  67.992  1.00  0.00    -0.246 A  
HETATM    8  C   UNL     1     -11.723  14.460  64.614  1.00  0.00    -0.438 C  
HETATM    9  C   UNL     1     -10.996  13.174  66.652  1.00  0.00    -0.301 A  
HETATM   10  C   UNL     1     -11.097  14.406  65.980  1.00  0.00    -0.324 A  
BRANCH   7  11
HETATM   11  C   UNL     1     -10.676  11.829  68.785  1.00  0.00    -0.255 A  
HETATM   12  C   UNL     1     -12.063  10.446  70.249  1.00  0.00    -0.370 A  
HETATM   13  C   UNL     1     -11.881  11.578  69.470  1.00  0.00    -0.419 A  
HETATM   14  C   UNL     1     -10.990   9.587  70.470  1.00  0.00    -0.348 A  
HETATM   15  C   UNL     1     -11.233   8.402  71.319  1.00  0.00    -0.259 C  
HETATM   16  C   UNL     1     -10.083   7.582  71.711  1.00  0.00    -0.205 C  
HETATM   17  O   UNL     1     -12.362   8.100  71.700  1.00  0.00    -0.293 OA 
HETATM   18  C   UNL     1      -8.887   7.949  71.226  1.00  0.00    -0.135 C  
HETATM   19  C   UNL     1     -10.189   6.420  72.618  1.00  0.00    -0.182 C  
HETATM   20  O   UNL     1     -11.447   6.116  72.999  1.00  0.00    -0.178 OA 
HETATM   21  O   UNL     1      -9.223   5.772  72.992  1.00  0.00    -0.140 OA 
HETATM   22  N   UNL     1      -8.619   8.984  70.337  1.00  0.00    -0.172 NA 
HETATM   23  C   UNL     1      -9.717   9.822  69.903  1.00  0.00    -0.238 A  
HETATM   24  C   UNL     1      -8.450  10.901  67.979  1.00  0.00    -0.130 C  
HETATM   25  C   UNL     1      -9.616  10.873  68.939  1.00  0.00    -0.192 A  
BRANCH  22  26
HETATM   26  C   UNL     1      -7.221   9.518  70.349  1.00  0.00    -0.127 C  
HETATM   27  C   UNL     1      -6.058   8.646  69.933  1.00  0.00    -0.034 C  
HETATM   28  C   UNL     1      -6.136   9.138  71.338  1.00  0.00    -0.072 C  
ENDBRANCH  22  26
ENDBRANCH   7  11
ENDBRANCH   2   4
TORSDOF 3
ENDMDL
MODEL       63
REMARK 921   NORMALIZED FREE ENERGY PREDICTED BY IDOCK:   -5.59 KCAL/MOL
REMARK 922        TOTAL FREE ENERGY PREDICTED BY IDOCK:   -7.25 KCAL/MOL
REMARK 923 INTER-LIGAND FREE ENERGY PREDICTED BY IDOCK:   -6.68 KCAL/MOL
REMARK 924 INTRA-LIGAND FREE ENERGY PREDICTED BY IDOCK:   -0.57 KCAL/MOL
REMARK 927      BINDING AFFINITY PREDICTED BY RF-SCORE:    0.00 PKD
ROOT
HETATM    1  C   UNL     1     -10.227   4.215  74.167  1.00  0.00    -0.189 C  
HETATM    2  N   UNL     1     -11.017   5.435  74.176  1.00  0.00    -0.417 NA 
HETATM    3  H   UNL     1     -11.633   5.687  74.950  1.00  0.00     0.000 HD 
ENDROOT
BRANCH   2   4
HETATM    4  C   UNL     1     -10.867   6.241  73.035  1.00  0.00    -0.259 A  
HETATM    5  N   UNL     1     -11.719   6.097  72.003  1.00  0.00    -0.316 NA 
HETATM    6  C   UNL     1     -11.599   6.937  70.941  1.00  0.00    -0.337 A  
HETATM    7  C   UNL     1     -10.623   7.915  70.783  1.00  0.00    -0.222 A  
HETATM    8  C   UNL     1      -9.008   7.492  74.215  1.00  0.00    -0.221 C  
HETATM    9  C   UNL     1      -9.726   8.010  71.859  1.00  0.00    -0.250 A  
HETATM   10  C   UNL     1      -9.873   7.222  73.016  1.00  0.00    -0.254 A  
BRANCH   7  11
HETATM   11  C   UNL     1     -10.613   8.887  69.645  1.00  0.00    -0.230 A  
HETATM   12  C   UNL     1     -11.702  10.819  68.615  1.00  0.00    -0.289 A  
HETATM   13  C   UNL     1     -11.610   9.883  69.633  1.00  0.00    -0.095 A  
HETATM   14  C   UNL     1     -10.872  10.708  67.504  1.00  0.00    -0.351 A  
HETATM   15  C   UNL     1     -11.020  11.723  66.441  1.00  0.00    -0.294 C  
HETATM   16  C   UNL     1     -10.287  11.528  65.187  1.00  0.00    -0.329 C  
HETATM   17  O   UNL     1     -11.740  12.710  66.585  1.00  0.00    -0.366 OA 
HETATM   18  C   UNL     1      -9.490  10.450  65.116  1.00  0.00    -0.249 C  
HETATM   19  C   UNL     1     -10.414  12.431  64.024  1.00  0.00    -0.416 C  
HETATM   20  O   UNL     1     -11.201  13.507  64.232  1.00  0.00    -0.377 OA 
HETATM   21  O   UNL     1      -9.849  12.237  62.959  1.00  0.00    -0.314 OA 
HETATM   22  N   UNL     1      -9.228   9.527  66.122  1.00  0.00    -0.164 NA 
HETATM   23  C   UNL     1      -9.914   9.675  67.389  1.00  0.00    -0.187 A  
HETATM   24  C   UNL     1      -8.421   8.055  68.661  1.00  0.00    -0.128 C  
HETATM   25  C   UNL     1      -9.695   8.856  68.540  1.00  0.00    -0.172 A  
BRANCH  22  26
HETATM   26  C   UNL     1      -8.751   8.181  65.675  1.00  0.00    -0.145 C  
HETATM   27  C   UNL     1      -7.288   7.937  65.384  1.00  0.00    -0.076 C  
HETATM   28  C   UNL     1      -8.280   7.828  64.277  1.00  0.00    -0.030 C  
ENDBRANCH  22  26
ENDBRANCH   7  11
ENDBRANCH   2   4
TORSDOF 3
ENDMDL
MODEL       64
REMARK 921   NORMALIZED FREE ENERGY PREDICTED BY IDOCK:   -5.59 KCAL/MOL
REMARK 922        TOTAL FREE ENERGY PREDICTED BY IDOCK:   -7.25 KCAL/MOL
REMARK 923 INTER-LIGAND FREE ENERGY PREDICTED BY IDOCK:   -6.71 KCAL/MOL
REMARK 924 INTRA-LIGAND FREE ENERGY PREDICTED BY IDOCK:   -0.53 KCAL/MOL
REMARK 927      BINDING AFFINITY PREDICTED BY RF-SCORE:    0.00 PKD
ROOT
HETATM    1  C   UNL     1     -10.219  18.071  68.314  1.00  0.00    -0.395 C  
HETATM    2  N   UNL     1     -10.786  17.319  69.421  1.00  0.00    -0.354 NA 
HETATM    3  H   UNL     1     -11.091  17.762  70.288  1.00  0.00     0.000 HD 
ENDROOT
BRANCH   2   4
HETATM    4  C   UNL     1     -10.881  15.935  69.203  1.00  0.00    -0.268 A  
HETATM    5  N   UNL     1     -10.237  15.380  68.159  1.00  0.00    -0.228 NA 
HETATM    6  C   UNL     1     -10.285  14.030  68.011  1.00  0.00    -0.238 A  
HETATM    7  C   UNL     1     -10.999  13.148  68.814  1.00  0.00    -0.298 A  
HETATM    8  C   UNL     1     -12.197  15.729  71.357  1.00  0.00    -0.500 C  
HETATM    9  C   UNL     1     -11.693  13.764  69.868  1.00  0.00    -0.353 A  
HETATM   10  C   UNL     1     -11.594  15.146  70.109  1.00  0.00    -0.326 A  
BRANCH   7  11
HETATM   11  C   UNL     1     -10.919  11.660  68.671  1.00  0.00    -0.266 A  
HETATM   12  C   UNL     1     -10.829   9.510  69.833  1.00  0.00    -0.272 A  
HETATM   13  C   UNL     1     -10.921  10.893  69.854  1.00  0.00    -0.266 A  
HETATM   14  C   UNL     1     -10.603   8.856  68.626  1.00  0.00    -0.182 A  
HETATM   15  C   UNL     1     -10.500   7.382  68.661  1.00  0.00    -0.189 C  
HETATM   16  C   UNL     1     -10.087   6.685  67.440  1.00  0.00    -0.211 C  
HETATM   17  O   UNL     1     -10.744   6.741  69.682  1.00  0.00    -0.222 OA 
HETATM   18  C   UNL     1      -9.875   7.446  66.354  1.00  0.00    -0.066 C  
HETATM   19  C   UNL     1      -9.874   5.224  67.373  1.00  0.00    -0.160 C  
HETATM   20  O   UNL     1     -10.168   4.560  68.509  1.00  0.00    -0.027 OA 
HETATM   21  O   UNL     1      -9.473   4.651  66.371  1.00  0.00    -0.141 OA 
HETATM   22  N   UNL     1     -10.065   8.818  66.235  1.00  0.00    -0.261 NA 
HETATM   23  C   UNL     1     -10.484   9.559  67.407  1.00  0.00    -0.272 A  
HETATM   24  C   UNL     1     -11.127  11.668  66.137  1.00  0.00    -0.335 C  
HETATM   25  C   UNL     1     -10.794  10.955  67.426  1.00  0.00    -0.333 A  
BRANCH  22  26
HETATM   26  C   UNL     1      -9.296   9.498  65.147  1.00  0.00    -0.252 C  
HETATM   27  C   UNL     1      -8.235   8.753  64.369  1.00  0.00    -0.169 C  
HETATM   28  C   UNL     1      -7.839   9.914  65.217  1.00  0.00    -0.131 C  
ENDBRANCH  22  26
ENDBRANCH   7  11
ENDBRANCH   2   4
TORSDOF 3
ENDMDL
MODEL       65
REMARK 921   NORMALIZED FREE ENERGY PREDICTED BY IDOCK:   -5.50 KCAL/MOL
REMARK 922        TOTAL FREE ENERGY PREDICTED BY IDOCK:   -7.14 KCAL/MOL
REMARK 923 INTER-LIGAND FREE ENERGY PREDICTED BY IDOCK:   -6.39 KCAL/MOL
REMARK 924 INTRA-LIGAND FREE ENERGY PREDICTED BY IDOCK:   -0.75 KCAL/MOL
REMARK 927      BINDING AFFINITY PREDICTED BY RF-SCORE:    0.00 PKD
ROOT
HETATM    1  C   UNL     1     -10.531  19.382  66.331  1.00  0.00    -0.488 C  
HETATM    2  N   UNL     1      -9.602  18.816  67.295  1.00  0.00    -0.299 NA 
HETATM    3  H   UNL     1      -8.901  19.377  67.779  1.00  0.00     0.000 HD 
ENDROOT
BRANCH   2   4
HETATM    4  C   UNL     1      -9.746  17.435  67.508  1.00  0.00    -0.266 A  
HETATM    5  N   UNL     1     -10.907  16.954  67.991  1.00  0.00    -0.362 NA 
HETATM    6  C   UNL     1     -11.048  15.608  68.121  1.00  0.00    -0.330 A  
HETATM    7  C   UNL     1     -10.068  14.658  67.854  1.00  0.00    -0.225 A  
HETATM    8  C   UNL     1      -7.457  17.081  66.484  1.00  0.00    -0.327 C  
HETATM    9  C   UNL     1      -8.856  15.197  67.392  1.00  0.00    -0.199 A  
HETATM   10  C   UNL     1      -8.702  16.575  67.158  1.00  0.00    -0.216 A  
BRANCH   7  11
HETATM   11  C   UNL     1     -10.320  13.184  67.905  1.00  0.00    -0.232 A  
HETATM   12  C   UNL     1     -10.864  11.263  69.318  1.00  0.00    -0.259 A  
HETATM   13  C   UNL     1     -10.633  12.621  69.158  1.00  0.00     0.008 A  
HETATM   14  C   UNL     1     -10.663  10.403  68.243  1.00  0.00    -0.275 A  
HETATM   15  C   UNL     1     -10.911   8.964  68.470  1.00  0.00     0.010 C  
HETATM   16  C   UNL     1     -10.538   8.020  67.413  1.00  0.00    -0.337 C  
HETATM   17  O   UNL     1     -11.411   8.550  69.515  1.00  0.00     0.059 OA 
HETATM   18  C   UNL     1     -10.034   8.545  66.285  1.00  0.00    -0.181 C  
HETATM   19  C   UNL     1     -10.664   6.554  67.554  1.00  0.00    -0.321 C  
HETATM   20  O   UNL     1     -11.231   6.146  68.708  1.00  0.00    -0.367 OA 
HETATM   21  O   UNL     1     -10.299   5.764  66.696  1.00  0.00    -0.212 OA 
HETATM   22  N   UNL     1      -9.885   9.893  65.976  1.00  0.00    -0.246 NA 
HETATM   23  C   UNL     1     -10.249  10.874  66.978  1.00  0.00    -0.214 A  
HETATM   24  C   UNL     1     -10.236  12.857  65.384  1.00  0.00    -0.301 C  
HETATM   25  C   UNL     1     -10.224  12.290  66.784  1.00  0.00    -0.229 A  
BRANCH  22  26
HETATM   26  C   UNL     1      -8.862  10.221  64.934  1.00  0.00    -0.192 C  
HETATM   27  C   UNL     1      -9.019   9.723  63.515  1.00  0.00    -0.272 C  
HETATM   28  C   UNL     1      -7.866   9.247  64.333  1.00  0.00    -0.123 C  
ENDBRANCH  22  26
ENDBRANCH   7  11
ENDBRANCH   2   4
TORSDOF 3
ENDMDL
MODEL       66
REMARK 921   NORMALIZED FREE ENERGY PREDICTED BY IDOCK:   -5.48 KCAL/MOL
REMARK 922        TOTAL FREE ENERGY PREDICTED BY IDOCK:   -7.12 KCAL/MOL
REMARK 923 INTER-LIGAND FREE ENERGY PREDICTED BY IDOCK:   -6.75 KCAL/MOL
REMARK 924 INTRA-LIGAND FREE ENERGY PREDICTED BY IDOCK:   -0.37 KCAL/MOL
REMARK 927      BINDING AFFINITY PREDICTED BY RF-SCORE:    0.00 PKD
ROOT
HETATM    1  C   UNL     1     -10.839  18.242  65.713  1.00  0.00     0.030 C  
HETATM    2  N   UNL     1     -10.741  17.166  64.741  1.00  0.00    -0.604 NA 
HETATM    3  H   UNL     1     -10.735  17.332  63.734  1.00  0.00     0.000 HD 
ENDROOT
BRANCH   2   4
HETATM    4  C   UNL     1     -10.655  15.878  65.296  1.00  0.00    -0.419 A  
HETATM    5  N   UNL     1     -11.673  15.013  65.129  1.00  0.00    -0.290 NA 
HETATM    6  C   UNL     1     -11.537  13.750  65.613  1.00  0.00    -0.330 A  
HETATM    7  C   UNL     1     -10.449  13.268  66.333  1.00  0.00    -0.286 A  
HETATM    8  C   UNL     1      -8.288  16.399  66.030  1.00  0.00    -0.139 C  
HETATM    9  C   UNL     1      -9.424  14.208  66.525  1.00  0.00    -0.303 A  
HETATM   10  C   UNL     1      -9.488  15.496  65.961  1.00  0.00    -0.387 A  
BRANCH   7  11
HETATM   11  C   UNL     1     -10.305  11.834  66.738  1.00  0.00    -0.251 A  
HETATM   12  C   UNL     1     -10.092   9.519  65.976  1.00  0.00    -0.319 A  
HETATM   13  C   UNL     1     -10.207  10.875  65.710  1.00  0.00    -0.318 A  
HETATM   14  C   UNL     1     -10.200   9.068  67.288  1.00  0.00    -0.323 A  
HETATM   15  C   UNL     1     -10.084   7.612  67.516  1.00  0.00    -0.202 C  
HETATM   16  C   UNL     1     -10.369   7.095  68.857  1.00  0.00    -0.202 C  
HETATM   17  O   UNL     1      -9.762   6.840  66.615  1.00  0.00    -0.171 OA 
HETATM   18  C   UNL     1     -10.676   7.999  69.800  1.00  0.00    -0.231 C  
HETATM   19  C   UNL     1     -10.363   5.654  69.188  1.00  0.00    -0.258 C  
HETATM   20  O   UNL     1      -9.990   4.846  68.175  1.00  0.00    -0.150 OA 
HETATM   21  O   UNL     1     -10.658   5.218  70.290  1.00  0.00    -0.278 OA 
HETATM   22  N   UNL     1     -10.690   9.384  69.668  1.00  0.00    -0.230 NA 
HETATM   23  C   UNL     1     -10.403   9.954  68.368  1.00  0.00    -0.198 A  
HETATM   24  C   UNL     1     -10.062  12.327  69.221  1.00  0.00     0.404 C  
HETATM   25  C   UNL     1     -10.305  11.354  68.092  1.00  0.00    -0.206 A  
BRANCH  22  26
HETATM   26  C   UNL     1     -11.535  10.131  70.652  1.00  0.00    -0.349 C  
HETATM   27  C   UNL     1     -12.337   9.392  71.698  1.00  0.00    -0.465 C  
HETATM   28  C   UNL     1     -13.050  10.185  70.657  1.00  0.00    -0.274 C  
ENDBRANCH  22  26
ENDBRANCH   7  11
ENDBRANCH   2   4
TORSDOF 3
ENDMDL
MODEL       67
REMARK 921   NORMALIZED FREE ENERGY PREDICTED BY IDOCK:   -5.48 KCAL/MOL
REMARK 922        TOTAL FREE ENERGY PREDICTED BY IDOCK:   -7.12 KCAL/MOL
REMARK 923 INTER-LIGAND FREE ENERGY PREDICTED BY IDOCK:   -6.44 KCAL/MOL
REMARK 924 INTRA-LIGAND FREE ENERGY PREDICTED BY IDOCK:   -0.68 KCAL/MOL
REMARK 927      BINDING AFFINITY PREDICTED BY RF-SCORE:    0.00 PKD
ROOT
HETATM    1  C   UNL     1      -9.825   4.317  74.503  1.00  0.00    -0.152 C  
HETATM    2  N   UNL     1      -8.812   4.919  73.652  1.00  0.00    -0.109 NA 
HETATM    3  H   UNL     1      -7.846   4.590  73.628  1.00  0.00     0.000 HD 
ENDROOT
BRANCH   2   4
HETATM    4  C   UNL     1      -9.266   5.989  72.863  1.00  0.00    -0.134 A  
HETATM    5  N   UNL     1      -9.215   7.243  73.352  1.00  0.00    -0.164 NA 
HETATM    6  C   UNL     1      -9.594   8.269  72.544  1.00  0.00    -0.295 A  
HETATM    7  C   UNL     1     -10.096   8.146  71.253  1.00  0.00    -0.240 A  
HETATM    8  C   UNL     1      -9.636   4.370  70.952  1.00  0.00    -0.255 C  
HETATM    9  C   UNL     1     -10.175   6.823  70.791  1.00  0.00    -0.215 A  
HETATM   10  C   UNL     1      -9.708   5.742  71.561  1.00  0.00    -0.193 A  
BRANCH   7  11
HETATM   11  C   UNL     1     -10.385   9.320  70.371  1.00  0.00    -0.291 A  
HETATM   12  C   UNL     1     -11.815  11.267  69.984  1.00  0.00    -0.448 A  
HETATM   13  C   UNL     1     -11.451  10.164  70.742  1.00  0.00    -0.442 A  
HETATM   14  C   UNL     1     -11.200  11.486  68.755  1.00  0.00    -0.309 A  
HETATM   15  C   UNL     1     -11.634  12.667  67.980  1.00  0.00    -0.343 C  
HETATM   16  C   UNL     1     -11.134  12.821  66.612  1.00  0.00    -0.313 C  
HETATM   17  O   UNL     1     -12.398  13.506  68.454  1.00  0.00    -0.218 OA 
HETATM   18  C   UNL     1     -10.272  11.889  66.175  1.00  0.00    -0.226 C  
HETATM   19  C   UNL     1     -11.556  13.917  65.713  1.00  0.00    -0.338 C  
HETATM   20  O   UNL     1     -12.382  14.821  66.278  1.00  0.00    -0.160 OA 
HETATM   21  O   UNL     1     -11.185  14.013  64.553  1.00  0.00    -0.371 OA 
HETATM   22  N   UNL     1      -9.746  10.823  66.897  1.00  0.00    -0.175 NA 
HETATM   23  C   UNL     1     -10.194  10.627  68.260  1.00  0.00    -0.166 A  
HETATM   24  C   UNL     1      -8.351   8.986  68.882  1.00  0.00    -0.125 C  
HETATM   25  C   UNL     1      -9.692   9.628  69.152  1.00  0.00    -0.180 A  
BRANCH  22  26
HETATM   26  C   UNL     1      -9.244   9.666  66.093  1.00  0.00    -0.174 C  
HETATM   27  C   UNL     1      -7.916   9.742  65.375  1.00  0.00    -0.125 C  
HETATM   28  C   UNL     1      -9.169   9.605  64.579  1.00  0.00    -0.277 C  
ENDBRANCH  22  26
ENDBRANCH   7  11
ENDBRANCH   2   4
TORSDOF 3
ENDMDL
MODEL       68
REMARK 921   NORMALIZED FREE ENERGY PREDICTED BY IDOCK:   -5.38 KCAL/MOL
REMARK 922        TOTAL FREE ENERGY PREDICTED BY IDOCK:   -7.01 KCAL/MOL
REMARK 923 INTER-LIGAND FREE ENERGY PREDICTED BY IDOCK:   -6.45 KCAL/MOL
REMARK 924 INTRA-LIGAND FREE ENERGY PREDICTED BY IDOCK:   -0.55 KCAL/MOL
REMARK 927      BINDING AFFINITY PREDICTED BY RF-SCORE:    0.00 PKD
ROOT
HETATM    1  C   UNL     1     -10.834  17.826  65.891  1.00  0.00     0.031 C  
HETATM    2  N   UNL     1     -10.441  16.753  64.994  1.00  0.00    -0.657 NA 
HETATM    3  H   UNL     1     -10.138  16.920  64.034  1.00  0.00     0.000 HD 
ENDROOT
BRANCH   2   4
HETATM    4  C   UNL     1     -10.512  15.465  65.552  1.00  0.00    -0.380 A  
HETATM    5  N   UNL     1     -11.530  14.651  65.218  1.00  0.00    -0.351 NA 
HETATM    6  C   UNL     1     -11.538  13.385  65.714  1.00  0.00    -0.332 A  
HETATM    7  C   UNL     1     -10.608  12.853  66.601  1.00  0.00    -0.273 A  
HETATM    8  C   UNL     1      -8.274  15.872  66.665  1.00  0.00    -0.317 C  
HETATM    9  C   UNL     1      -9.583  13.743  66.961  1.00  0.00    -0.251 A  
HETATM   10  C   UNL     1      -9.489  15.029  66.398  1.00  0.00    -0.325 A  
BRANCH   7  11
HETATM   11  C   UNL     1     -10.604  11.416  67.021  1.00  0.00    -0.286 A  
HETATM   12  C   UNL     1     -11.028   9.828  68.832  1.00  0.00    -0.183 A  
HETATM   13  C   UNL     1     -11.015  11.123  68.337  1.00  0.00    -0.277 A  
HETATM   14  C   UNL     1     -10.507   8.794  68.060  1.00  0.00    -0.260 A  
HETATM   15  C   UNL     1     -10.533   7.435  68.639  1.00  0.00    -0.189 C  
HETATM   16  C   UNL     1      -9.834   6.363  67.926  1.00  0.00    -0.130 C  
HETATM   17  O   UNL     1     -11.117   7.193  69.694  1.00  0.00    -0.239 OA 
HETATM   18  C   UNL     1      -9.252   6.692  66.762  1.00  0.00    -0.149 C  
HETATM   19  C   UNL     1      -9.724   4.983  68.444  1.00  0.00    -0.152 C  
HETATM   20  O   UNL     1     -10.391   4.759  69.594  1.00  0.00    -0.217 OA 
HETATM   21  O   UNL     1      -9.091   4.103  67.879  1.00  0.00    -0.118 OA 
HETATM   22  N   UNL     1      -9.292   7.924  66.118  1.00  0.00    -0.162 NA 
HETATM   23  C   UNL     1      -9.980   9.019  66.769  1.00  0.00    -0.263 A  
HETATM   24  C   UNL     1     -10.054  10.511  64.709  1.00  0.00    -0.406 C  
HETATM   25  C   UNL     1     -10.172  10.318  66.202  1.00  0.00    -0.285 A  
BRANCH  22  26
HETATM   26  C   UNL     1      -8.186   8.196  65.147  1.00  0.00    -0.154 C  
HETATM   27  C   UNL     1      -7.212   7.106  64.760  1.00  0.00    -0.072 C  
HETATM   28  C   UNL     1      -6.713   8.306  65.491  1.00  0.00    -0.055 C  
ENDBRANCH  22  26
ENDBRANCH   7  11
ENDBRANCH   2   4
TORSDOF 3
ENDMDL
MODEL       69
REMARK 921   NORMALIZED FREE ENERGY PREDICTED BY IDOCK:   -5.36 KCAL/MOL
REMARK 922        TOTAL FREE ENERGY PREDICTED BY IDOCK:   -6.98 KCAL/MOL
REMARK 923 INTER-LIGAND FREE ENERGY PREDICTED BY IDOCK:   -6.05 KCAL/MOL
REMARK 924 INTRA-LIGAND FREE ENERGY PREDICTED BY IDOCK:   -0.93 KCAL/MOL
REMARK 927      BINDING AFFINITY PREDICTED BY RF-SCORE:    0.00 PKD
ROOT
HETATM    1  C   UNL     1      -5.659  21.052  69.073  1.00  0.00    -0.321 C  
HETATM    2  N   UNL     1      -6.386  20.569  67.911  1.00  0.00    -0.268 NA 
HETATM    3  H   UNL     1      -6.761  21.194  67.197  1.00  0.00     0.000 HD 
ENDROOT
BRANCH   2   4
HETATM    4  C   UNL     1      -6.533  19.174  67.849  1.00  0.00    -0.226 A  
HETATM    5  N   UNL     1      -6.580  18.459  68.989  1.00  0.00    -0.253 NA 
HETATM    6  C   UNL     1      -6.795  17.119  68.905  1.00  0.00    -0.221 A  
HETATM    7  C   UNL     1      -6.916  16.385  67.730  1.00  0.00    -0.157 A  
HETATM    8  C   UNL     1      -6.785  19.355  65.336  1.00  0.00    -0.300 C  
HETATM    9  C   UNL     1      -6.821  17.156  66.560  1.00  0.00    -0.295 A  
HETATM   10  C   UNL     1      -6.690  18.556  66.606  1.00  0.00    -0.218 A  
BRANCH   7  11
HETATM   11  C   UNL     1      -7.269  14.931  67.704  1.00  0.00    -0.207 A  
HETATM   12  C   UNL     1      -6.426  12.635  67.743  1.00  0.00    -0.128 A  
HETATM   13  C   UNL     1      -6.209  14.004  67.780  1.00  0.00    -0.152 A  
HETATM   14  C   UNL     1      -7.707  12.151  67.499  1.00  0.00    -0.159 A  
HETATM   15  C   UNL     1      -7.881  10.684  67.456  1.00  0.00    -0.106 C  
HETATM   16  C   UNL     1      -9.177  10.151  67.027  1.00  0.00    -0.166 C  
HETATM   17  O   UNL     1      -6.972   9.916  67.763  1.00  0.00    -0.083 OA 
HETATM   18  C   UNL     1     -10.135  11.047  66.744  1.00  0.00    -0.220 C  
HETATM   19  C   UNL     1      -9.447   8.706  66.869  1.00  0.00    -0.180 C  
HETATM   20  O   UNL     1      -8.427   7.900  67.232  1.00  0.00    -0.120 OA 
HETATM   21  O   UNL     1     -10.507   8.263  66.455  1.00  0.00    -0.255 OA 
HETATM   22  N   UNL     1     -10.060  12.430  66.875  1.00  0.00    -0.218 NA 
HETATM   23  C   UNL     1      -8.808  13.015  67.307  1.00  0.00    -0.208 A  
HETATM   24  C   UNL     1      -9.781  15.310  67.818  1.00  0.00    -0.215 C  
HETATM   25  C   UNL     1      -8.598  14.406  67.561  1.00  0.00    -0.199 A  
BRANCH  22  26
HETATM   26  C   UNL     1     -11.016  13.223  66.040  1.00  0.00    -0.279 C  
HETATM   27  C   UNL     1     -11.955  12.534  65.076  1.00  0.00    -0.478 C  
HETATM   28  C   UNL     1     -10.908  13.451  64.544  1.00  0.00    -0.419 C  
ENDBRANCH  22  26
ENDBRANCH   7  11
ENDBRANCH   2   4
TORSDOF 3
ENDMDL
MODEL       70
REMARK 921   NORMALIZED FREE ENERGY PREDICTED BY IDOCK:   -5.18 KCAL/MOL
REMARK 922        TOTAL FREE ENERGY PREDICTED BY IDOCK:   -6.77 KCAL/MOL
REMARK 923 INTER-LIGAND FREE ENERGY PREDICTED BY IDOCK:   -6.02 KCAL/MOL
REMARK 924 INTRA-LIGAND FREE ENERGY PREDICTED BY IDOCK:   -0.75 KCAL/MOL
REMARK 927      BINDING AFFINITY PREDICTED BY RF-SCORE:    0.00 PKD
ROOT
HETATM    1  C   UNL     1      -8.883   1.783  63.326  1.00  0.00    -0.087 C  
HETATM    2  N   UNL     1      -8.031   2.288  64.389  1.00  0.00    -0.076 NA 
HETATM    3  H   UNL     1      -7.231   1.765  64.749  1.00  0.00     0.000 HD 
ENDROOT
BRANCH   2   4
HETATM    4  C   UNL     1      -8.394   3.552  64.883  1.00  0.00    -0.097 A  
HETATM    5  N   UNL     1      -9.696   3.878  64.981  1.00  0.00    -0.182 NA 
HETATM    6  C   UNL     1     -10.024   5.078  65.529  1.00  0.00    -0.012 A  
HETATM    7  C   UNL     1      -9.126   6.051  65.955  1.00  0.00    -0.143 A  
HETATM    8  C   UNL     1      -5.950   4.022  65.356  1.00  0.00    -0.023 C  
HETATM    9  C   UNL     1      -7.777   5.695  65.801  1.00  0.00    -0.088 A  
HETATM   10  C   UNL     1      -7.398   4.427  65.323  1.00  0.00    -0.073 A  
BRANCH   7  11
HETATM   11  C   UNL     1      -9.548   7.304  66.658  1.00  0.00    -0.236 A  
HETATM   12  C   UNL     1     -10.476   8.270  68.705  1.00  0.00    -0.199 A  
HETATM   13  C   UNL     1     -10.040   7.176  67.973  1.00  0.00    -0.201 A  
HETATM   14  C   UNL     1     -10.552   9.517  68.093  1.00  0.00    -0.265 A  
HETATM   15  C   UNL     1     -11.036  10.647  68.913  1.00  0.00    -0.249 C  
HETATM   16  C   UNL     1     -11.292  11.928  68.248  1.00  0.00    -0.335 C  
HETATM   17  O   UNL     1     -11.228  10.533  70.122  1.00  0.00    -0.281 OA 
HETATM   18  C   UNL     1     -11.022  11.991  66.935  1.00  0.00    -0.281 C  
HETATM   19  C   UNL     1     -11.850  13.106  68.946  1.00  0.00    -0.320 C  
HETATM   20  O   UNL     1     -12.031  12.940  70.272  1.00  0.00    -0.341 OA 
HETATM   21  O   UNL     1     -12.119  14.154  68.380  1.00  0.00    -0.344 OA 
HETATM   22  N   UNL     1     -10.462  10.996  66.140  1.00  0.00    -0.251 NA 
HETATM   23  C   UNL     1     -10.175   9.712  66.745  1.00  0.00    -0.239 A  
HETATM   24  C   UNL     1      -8.714   8.872  64.839  1.00  0.00    -0.184 C  
HETATM   25  C   UNL     1      -9.533   8.619  66.083  1.00  0.00    -0.308 A  
BRANCH  22  26
HETATM   26  C   UNL     1     -10.731  11.096  64.672  1.00  0.00    -0.280 C  
HETATM   27  C   UNL     1     -10.423  12.368  63.916  1.00  0.00    -0.469 C  
HETATM   28  C   UNL     1     -11.837  11.909  64.027  1.00  0.00    -0.458 C  
ENDBRANCH  22  26
ENDBRANCH   7  11
ENDBRANCH   2   4
TORSDOF 3
ENDMDL
MODEL       71
REMARK 921   NORMALIZED FREE ENERGY PREDICTED BY IDOCK:   -5.15 KCAL/MOL
REMARK 922        TOTAL FREE ENERGY PREDICTED BY IDOCK:   -6.74 KCAL/MOL
REMARK 923 INTER-LIGAND FREE ENERGY PREDICTED BY IDOCK:   -6.07 KCAL/MOL
REMARK 924 INTRA-LIGAND FREE ENERGY PREDICTED BY IDOCK:   -0.67 KCAL/MOL
REMARK 927      BINDING AFFINITY PREDICTED BY RF-SCORE:    0.00 PKD
ROOT
HETATM    1  C   UNL     1      -6.917   4.006  62.703  1.00  0.00    -0.036 C  
HETATM    2  N   UNL     1      -7.235   3.548  64.045  1.00  0.00    -0.053 NA 
HETATM    3  H   UNL     1      -7.006   2.610  64.375  1.00  0.00     0.000 HD 
ENDROOT
BRANCH   2   4
HETATM    4  C   UNL     1      -7.884   4.497  64.852  1.00  0.00    -0.086 A  
HETATM    5  N   UNL     1      -7.172   5.495  65.407  1.00  0.00    -0.066 NA 
HETATM    6  C   UNL     1      -7.833   6.443  66.124  1.00  0.00    -0.102 A  
HETATM    7  C   UNL     1      -9.196   6.452  66.398  1.00  0.00    -0.176 A  
HETATM    8  C   UNL     1     -10.097   3.404  64.286  1.00  0.00    -0.176 C  
HETATM    9  C   UNL     1      -9.902   5.375  65.839  1.00  0.00    -0.072 A  
HETATM   10  C   UNL     1      -9.270   4.425  65.015  1.00  0.00    -0.157 A  
BRANCH   7  11
HETATM   11  C   UNL     1      -9.885   7.584  67.094  1.00  0.00    -0.263 A  
HETATM   12  C   UNL     1     -10.492   9.952  67.009  1.00  0.00    -0.296 A  
HETATM   13  C   UNL     1      -9.900   8.834  66.442  1.00  0.00    -0.352 A  
HETATM   14  C   UNL     1     -10.980   9.883  68.311  1.00  0.00    -0.248 A  
HETATM   15  C   UNL     1     -11.589  11.107  68.873  1.00  0.00    -0.317 C  
HETATM   16  C   UNL     1     -11.947  11.114  70.294  1.00  0.00    -0.460 C  
HETATM   17  O   UNL     1     -11.793  12.103  68.182  1.00  0.00    -0.352 OA 
HETATM   18  C   UNL     1     -11.733   9.979  70.976  1.00  0.00    -0.392 C  
HETATM   19  C   UNL     1     -12.490  12.302  70.986  1.00  0.00    -0.263 C  
HETATM   20  O   UNL     1     -12.712  13.366  70.188  1.00  0.00    -0.131 OA 
HETATM   21  O   UNL     1     -12.734  12.327  72.183  1.00  0.00    -0.120 OA 
HETATM   22  N   UNL     1     -11.268   8.768  70.474  1.00  0.00    -0.256 NA 
HETATM   23  C   UNL     1     -10.909   8.696  69.073  1.00  0.00    -0.019 A  
HETATM   24  C   UNL     1     -10.810   6.155  68.983  1.00  0.00    -0.416 C  
HETATM   25  C   UNL     1     -10.491   7.509  68.394  1.00  0.00    -0.212 A  
BRANCH  22  26
HETATM   26  C   UNL     1     -10.633   7.844  71.464  1.00  0.00    -0.222 C  
HETATM   27  C   UNL     1     -11.082   7.833  72.908  1.00  0.00    -0.457 C  
HETATM   28  C   UNL     1      -9.689   8.252  72.579  1.00  0.00    -0.368 C  
ENDBRANCH  22  26
ENDBRANCH   7  11
ENDBRANCH   2   4
TORSDOF 3
ENDMDL
MODEL       72
REMARK 921   NORMALIZED FREE ENERGY PREDICTED BY IDOCK:   -5.11 KCAL/MOL
REMARK 922        TOTAL FREE ENERGY PREDICTED BY IDOCK:   -6.69 KCAL/MOL
REMARK 923 INTER-LIGAND FREE ENERGY PREDICTED BY IDOCK:   -6.16 KCAL/MOL
REMARK 924 INTRA-LIGAND FREE ENERGY PREDICTED BY IDOCK:   -0.53 KCAL/MOL
REMARK 927      BINDING AFFINITY PREDICTED BY RF-SCORE:    0.00 PKD
ROOT
HETATM    1  C   UNL     1     -10.460  16.609  67.209  1.00  0.00    -0.313 C  
HETATM    2  N   UNL     1     -10.724  15.845  68.416  1.00  0.00    -0.268 NA 
HETATM    3  H   UNL     1     -10.957  16.285  69.307  1.00  0.00     0.000 HD 
ENDROOT
BRANCH   2   4
HETATM    4  C   UNL     1     -10.635  14.451  68.261  1.00  0.00    -0.243 A  
HETATM    5  N   UNL     1      -9.830  13.939  67.312  1.00  0.00    -0.239 NA 
HETATM    6  C   UNL     1      -9.705  12.588  67.228  1.00  0.00    -0.202 A  
HETATM    7  C   UNL     1     -10.388  11.657  68.004  1.00  0.00    -0.208 A  
HETATM    8  C   UNL     1     -12.127  14.172  70.288  1.00  0.00    -0.412 C  
HETATM    9  C   UNL     1     -11.251  12.226  68.954  1.00  0.00    -0.323 A  
HETATM   10  C   UNL     1     -11.338  13.618  69.134  1.00  0.00    -0.335 A  
BRANCH   7  11
HETATM   11  C   UNL     1     -10.121  10.186  67.944  1.00  0.00    -0.207 A  
HETATM   12  C   UNL     1      -9.829   8.231  66.503  1.00  0.00    -0.323 A  
HETATM   13  C   UNL     1     -10.051   9.590  66.669  1.00  0.00    -0.321 A  
HETATM   14  C   UNL     1      -9.795   7.401  67.619  1.00  0.00    -0.194 A  
HETATM   15  C   UNL     1      -9.569   5.960  67.387  1.00  0.00    -0.113 C  
HETATM   16  C   UNL     1      -9.706   5.043  68.522  1.00  0.00    -0.215 C  
HETATM   17  O   UNL     1      -9.278   5.522  66.275  1.00  0.00    -0.146 OA 
HETATM   18  C   UNL     1      -9.986   5.595  69.713  1.00  0.00    -0.200 C  
HETATM   19  C   UNL     1      -9.580   3.576  68.398  1.00  0.00    -0.086 C  
HETATM   20  O   UNL     1      -9.245   3.141  67.166  1.00  0.00    -0.167 OA 
HETATM   21  O   UNL     1      -9.752   2.807  69.333  1.00  0.00    -0.055 OA 
HETATM   22  N   UNL     1     -10.099   6.950  70.009  1.00  0.00    -0.180 NA 
HETATM   23  C   UNL     1      -9.961   7.905  68.929  1.00  0.00    -0.190 A  
HETATM   24  C   UNL     1      -9.697   9.935  70.439  1.00  0.00    -0.151 C  
HETATM   25  C   UNL     1      -9.975   9.326  69.085  1.00  0.00    -0.181 A  
BRANCH  22  26
HETATM   26  C   UNL     1     -10.901   7.294  71.224  1.00  0.00    -0.235 C  
HETATM   27  C   UNL     1     -10.742   6.506  72.504  1.00  0.00    -0.255 C  
HETATM   28  C   UNL     1     -12.049   6.479  71.788  1.00  0.00    -0.393 C  
ENDBRANCH  22  26
ENDBRANCH   7  11
ENDBRANCH   2   4
TORSDOF 3
ENDMDL
MODEL       73
REMARK 921   NORMALIZED FREE ENERGY PREDICTED BY IDOCK:   -5.08 KCAL/MOL
REMARK 922        TOTAL FREE ENERGY PREDICTED BY IDOCK:   -6.65 KCAL/MOL
REMARK 923 INTER-LIGAND FREE ENERGY PREDICTED BY IDOCK:   -5.81 KCAL/MOL
REMARK 924 INTRA-LIGAND FREE ENERGY PREDICTED BY IDOCK:   -0.84 KCAL/MOL
REMARK 927      BINDING AFFINITY PREDICTED BY RF-SCORE:    0.00 PKD
ROOT
HETATM    1  C   UNL     1      -9.154   2.083  69.274  1.00  0.00    -0.115 C  
HETATM    2  N   UNL     1      -9.117   2.953  70.438  1.00  0.00    -0.108 NA 
HETATM    3  H   UNL     1      -8.984   2.600  71.386  1.00  0.00     0.000 HD 
ENDROOT
BRANCH   2   4
HETATM    4  C   UNL     1      -9.278   4.320  70.154  1.00  0.00    -0.135 A  
HETATM    5  N   UNL     1     -10.277   4.717  69.344  1.00  0.00    -0.175 NA 
HETATM    6  C   UNL     1     -10.457   6.049  69.142  1.00  0.00    -0.257 A  
HETATM    7  C   UNL     1      -9.657   7.065  69.653  1.00  0.00    -0.150 A  
HETATM    8  C   UNL     1      -7.410   4.835  71.785  1.00  0.00    -0.071 C  
HETATM    9  C   UNL     1      -8.600   6.613  70.460  1.00  0.00    -0.143 A  
HETATM   10  C   UNL     1      -8.435   5.250  70.767  1.00  0.00    -0.123 A  
BRANCH   7  11
HETATM   11  C   UNL     1      -9.975   8.519  69.492  1.00  0.00    -0.193 A  
HETATM   12  C   UNL     1     -11.377  10.385  70.224  1.00  0.00    -0.406 A  
HETATM   13  C   UNL     1     -10.991   9.056  70.308  1.00  0.00    -0.274 A  
HETATM   14  C   UNL     1     -10.842  11.191  69.224  1.00  0.00    -0.277 A  
HETATM   15  C   UNL     1     -11.298  12.596  69.170  1.00  0.00    -0.282 C  
HETATM   16  C   UNL     1     -10.888  13.415  68.025  1.00  0.00    -0.264 C  
HETATM   17  O   UNL     1     -12.006  13.081  70.050  1.00  0.00    -0.330 OA 
HETATM   18  C   UNL     1     -10.082  12.832  67.124  1.00  0.00    -0.234 C  
HETATM   19  C   UNL     1     -11.342  14.807  67.820  1.00  0.00    -0.330 C  
HETATM   20  O   UNL     1     -12.104  15.302  68.817  1.00  0.00    -0.273 OA 
HETATM   21  O   UNL     1     -11.048  15.469  66.837  1.00  0.00    -0.306 OA 
HETATM   22  N   UNL     1      -9.535  11.554  67.183  1.00  0.00    -0.176 NA 
HETATM   23  C   UNL     1      -9.894  10.703  68.298  1.00  0.00    -0.163 A  
HETATM   24  C   UNL     1      -8.056   8.991  67.891  1.00  0.00    -0.106 C  
HETATM   25  C   UNL     1      -9.358   9.399  68.539  1.00  0.00    -0.139 A  
BRANCH  22  26
HETATM   26  C   UNL     1      -9.119  10.954  65.877  1.00  0.00    -0.193 C  
HETATM   27  C   UNL     1      -9.700  11.458  64.576  1.00  0.00    -0.268 C  
HETATM   28  C   UNL     1      -9.974  10.056  65.003  1.00  0.00    -0.320 C  
ENDBRANCH  22  26
ENDBRANCH   7  11
ENDBRANCH   2   4
TORSDOF 3
ENDMDL
MODEL       74
REMARK 921   NORMALIZED FREE ENERGY PREDICTED BY IDOCK:   -5.07 KCAL/MOL
REMARK 922        TOTAL FREE ENERGY PREDICTED BY IDOCK:   -6.64 KCAL/MOL
REMARK 923 INTER-LIGAND FREE ENERGY PREDICTED BY IDOCK:   -6.01 KCAL/MOL
REMARK 924 INTRA-LIGAND FREE ENERGY PREDICTED BY IDOCK:   -0.63 KCAL/MOL
REMARK 927      BINDING AFFINITY PREDICTED BY RF-SCORE:    0.00 PKD
ROOT
HETATM    1  C   UNL     1      -7.997   5.732  65.085  1.00  0.00    -0.119 C  
HETATM    2  N   UNL     1      -9.200   6.410  65.538  1.00  0.00    -0.366 NA 
HETATM    3  H   UNL     1     -10.112   5.952  65.566  1.00  0.00     0.000 HD 
ENDROOT
BRANCH   2   4
HETATM    4  C   UNL     1      -9.010   7.744  65.934  1.00  0.00    -0.113 A  
HETATM    5  N   UNL     1      -8.218   8.549  65.200  1.00  0.00    -0.144 NA 
HETATM    6  C   UNL     1      -8.107   9.854  65.563  1.00  0.00    -0.127 A  
HETATM    7  C   UNL     1      -8.695  10.443  66.677  1.00  0.00    -0.141 A  
HETATM    8  C   UNL     1     -10.691   7.388  67.794  1.00  0.00    -0.249 C  
HETATM    9  C   UNL     1      -9.479   9.565  67.443  1.00  0.00    -0.164 A  
HETATM   10  C   UNL     1      -9.694   8.231  67.051  1.00  0.00    -0.274 A  
BRANCH   7  11
HETATM   11  C   UNL     1      -8.630  11.911  66.959  1.00  0.00    -0.176 A  
HETATM   12  C   UNL     1      -7.188  13.820  67.467  1.00  0.00    -0.173 A  
HETATM   13  C   UNL     1      -7.357  12.475  67.178  1.00  0.00    -0.066 A  
HETATM   14  C   UNL     1      -8.307  14.623  67.672  1.00  0.00    -0.186 A  
HETATM   15  C   UNL     1      -8.071  16.046  67.990  1.00  0.00    -0.145 C  
HETATM   16  C   UNL     1      -9.219  16.869  68.383  1.00  0.00    -0.253 C  
HETATM   17  O   UNL     1      -6.948  16.544  67.938  1.00  0.00    -0.133 OA 
HETATM   18  C   UNL     1     -10.420  16.269  68.381  1.00  0.00    -0.282 C  
HETATM   19  C   UNL     1      -9.098  18.282  68.799  1.00  0.00    -0.227 C  
HETATM   20  O   UNL     1      -7.852  18.790  68.711  1.00  0.00    -0.328 OA 
HETATM   21  O   UNL     1     -10.046  18.951  69.183  1.00  0.00    -0.365 OA 
HETATM   22  N   UNL     1     -10.713  14.969  67.984  1.00  0.00    -0.256 NA 
HETATM   23  C   UNL     1      -9.620  14.112  67.573  1.00  0.00    -0.223 A  
HETATM   24  C   UNL     1     -11.099  12.332  66.515  1.00  0.00    -0.343 C  
HETATM   25  C   UNL     1      -9.767  12.782  67.068  1.00  0.00    -0.224 A  
BRANCH  22  26
HETATM   26  C   UNL     1     -11.969  14.377  68.540  1.00  0.00    -0.298 C  
HETATM   27  C   UNL     1     -12.475  14.782  69.906  1.00  0.00    -0.283 C  
HETATM   28  C   UNL     1     -12.048  13.373  69.674  1.00  0.00    -0.349 C  
ENDBRANCH  22  26
ENDBRANCH   7  11
ENDBRANCH   2   4
TORSDOF 3
ENDMDL
MODEL       75
REMARK 921   NORMALIZED FREE ENERGY PREDICTED BY IDOCK:   -5.07 KCAL/MOL
REMARK 922        TOTAL FREE ENERGY PREDICTED BY IDOCK:   -6.64 KCAL/MOL
REMARK 923 INTER-LIGAND FREE ENERGY PREDICTED BY IDOCK:   -5.81 KCAL/MOL
REMARK 924 INTRA-LIGAND FREE ENERGY PREDICTED BY IDOCK:   -0.83 KCAL/MOL
REMARK 927      BINDING AFFINITY PREDICTED BY RF-SCORE:    0.00 PKD
ROOT
HETATM    1  C   UNL     1      -7.891  19.810  65.657  1.00  0.00    -0.098 C  
HETATM    2  N   UNL     1      -7.273  18.511  65.446  1.00  0.00    -0.510 NA 
HETATM    3  H   UNL     1      -6.460  18.379  64.844  1.00  0.00     0.000 HD 
ENDROOT
BRANCH   2   4
HETATM    4  C   UNL     1      -7.884  17.451  66.137  1.00  0.00    -0.258 A  
HETATM    5  N   UNL     1      -8.997  16.884  65.634  1.00  0.00    -0.416 NA 
HETATM    6  C   UNL     1      -9.528  15.814  66.282  1.00  0.00    -0.317 A  
HETATM    7  C   UNL     1      -9.060  15.269  67.474  1.00  0.00    -0.189 A  
HETATM    8  C   UNL     1      -5.972  17.488  67.797  1.00  0.00    -0.157 C  
HETATM    9  C   UNL     1      -7.924  15.911  67.991  1.00  0.00    -0.141 A  
HETATM   10  C   UNL     1      -7.291  16.962  67.303  1.00  0.00    -0.199 A  
BRANCH   7  11
HETATM   11  C   UNL     1      -9.617  14.017  68.077  1.00  0.00    -0.217 A  
HETATM   12  C   UNL     1     -11.440  13.022  69.369  1.00  0.00    -0.323 A  
HETATM   13  C   UNL     1     -10.848  14.116  68.757  1.00  0.00    -0.271 A  
HETATM   14  C   UNL     1     -10.751  11.815  69.428  1.00  0.00    -0.049 A  
HETATM   15  C   UNL     1     -11.421  10.684  70.104  1.00  0.00    -0.329 C  
HETATM   16  C   UNL     1     -10.651   9.459  70.336  1.00  0.00    -0.316 C  
HETATM   17  O   UNL     1     -12.592  10.753  70.472  1.00  0.00    -0.329 OA 
HETATM   18  C   UNL     1      -9.392   9.441  69.871  1.00  0.00    -0.214 C  
HETATM   19  C   UNL     1     -11.186   8.292  71.068  1.00  0.00    -0.259 C  
HETATM   20  O   UNL     1     -12.477   8.405  71.441  1.00  0.00    -0.303 OA 
HETATM   21  O   UNL     1     -10.525   7.294  71.313  1.00  0.00    -0.202 OA 
HETATM   22  N   UNL     1      -8.750  10.430  69.134  1.00  0.00    -0.164 NA 
HETATM   23  C   UNL     1      -9.466  11.659  68.862  1.00  0.00     0.028 A  
HETATM   24  C   UNL     1      -7.854  12.484  67.075  1.00  0.00    -0.065 C  
HETATM   25  C   UNL     1      -8.973  12.733  68.057  1.00  0.00    -0.196 A  
BRANCH  22  26
HETATM   26  C   UNL     1      -7.255  10.421  69.179  1.00  0.00    -0.089 C  
HETATM   27  C   UNL     1      -6.521   9.813  70.353  1.00  0.00    -0.101 C  
HETATM   28  C   UNL     1      -6.391  11.274  70.088  1.00  0.00    -0.120 C  
ENDBRANCH  22  26
ENDBRANCH   7  11
ENDBRANCH   2   4
TORSDOF 3
ENDMDL
MODEL       76
REMARK 921   NORMALIZED FREE ENERGY PREDICTED BY IDOCK:   -5.05 KCAL/MOL
REMARK 922        TOTAL FREE ENERGY PREDICTED BY IDOCK:   -6.62 KCAL/MOL
REMARK 923 INTER-LIGAND FREE ENERGY PREDICTED BY IDOCK:   -5.86 KCAL/MOL
REMARK 924 INTRA-LIGAND FREE ENERGY PREDICTED BY IDOCK:   -0.76 KCAL/MOL
REMARK 927      BINDING AFFINITY PREDICTED BY RF-SCORE:    0.00 PKD
ROOT
HETATM    1  C   UNL     1      -9.124   4.003  68.175  1.00  0.00    -0.137 C  
HETATM    2  N   UNL     1     -10.228   4.772  68.724  1.00  0.00    -0.067 NA 
HETATM    3  H   UNL     1     -11.002   4.341  69.230  1.00  0.00     0.000 HD 
ENDROOT
BRANCH   2   4
HETATM    4  C   UNL     1     -10.146   6.157  68.503  1.00  0.00    -0.162 A  
HETATM    5  N   UNL     1      -9.507   6.620  67.412  1.00  0.00    -0.127 NA 
HETATM    6  C   UNL     1      -9.503   7.959  67.183  1.00  0.00    -0.159 A  
HETATM    7  C   UNL     1     -10.054   8.929  68.013  1.00  0.00    -0.239 A  
HETATM    8  C   UNL     1     -11.619   6.525  70.530  1.00  0.00    -0.455 C  
HETATM    9  C   UNL     1     -10.676   8.415  69.163  1.00  0.00    -0.123 A  
HETATM   10  C   UNL     1     -10.781   7.030  69.389  1.00  0.00    -0.259 A  
BRANCH   7  11
HETATM   11  C   UNL     1     -10.121  10.379  67.649  1.00  0.00    -0.223 A  
HETATM   12  C   UNL     1     -11.290  12.098  66.359  1.00  0.00    -0.411 A  
HETATM   13  C   UNL     1     -11.151  10.783  66.776  1.00  0.00    -0.153 A  
HETATM   14  C   UNL     1     -10.318  13.032  66.705  1.00  0.00    -0.256 A  
HETATM   15  C   UNL     1     -10.506  14.416  66.224  1.00  0.00    -0.290 C  
HETATM   16  C   UNL     1      -9.415  15.374  66.422  1.00  0.00    -0.325 C  
HETATM   17  O   UNL     1     -11.542  14.772  65.666  1.00  0.00    -0.341 OA 
HETATM   18  C   UNL     1      -8.330  14.927  67.074  1.00  0.00    -0.216 C  
HETATM   19  C   UNL     1      -9.454  16.763  65.917  1.00  0.00    -0.150 C  
HETATM   20  O   UNL     1     -10.614  17.114  65.325  1.00  0.00    -0.662 OA 
HETATM   21  O   UNL     1      -8.521  17.544  66.030  1.00  0.00    -0.500 OA 
HETATM   22  N   UNL     1      -8.146  13.671  67.644  1.00  0.00    -0.163 NA 
HETATM   23  C   UNL     1      -9.197  12.686  67.492  1.00  0.00    -0.190 A  
HETATM   24  C   UNL     1      -8.292  11.099  69.262  1.00  0.00     0.099 C  
HETATM   25  C   UNL     1      -9.190  11.384  68.082  1.00  0.00    -0.178 A  
BRANCH  22  26
HETATM   26  C   UNL     1      -6.728  13.239  67.843  1.00  0.00    -0.143 C  
HETATM   27  C   UNL     1      -5.934  13.722  69.036  1.00  0.00    -0.083 C  
HETATM   28  C   UNL     1      -5.502  14.113  67.664  1.00  0.00     0.057 C  
ENDBRANCH  22  26
ENDBRANCH   7  11
ENDBRANCH   2   4
TORSDOF 3
ENDMDL
MODEL       77
REMARK 921   NORMALIZED FREE ENERGY PREDICTED BY IDOCK:   -5.04 KCAL/MOL
REMARK 922        TOTAL FREE ENERGY PREDICTED BY IDOCK:   -6.60 KCAL/MOL
REMARK 923 INTER-LIGAND FREE ENERGY PREDICTED BY IDOCK:   -5.90 KCAL/MOL
REMARK 924 INTRA-LIGAND FREE ENERGY PREDICTED BY IDOCK:   -0.71 KCAL/MOL
REMARK 927      BINDING AFFINITY PREDICTED BY RF-SCORE:    0.00 PKD
ROOT
HETATM    1  C   UNL     1      -9.971  19.368  68.103  1.00  0.00    -0.413 C  
HETATM    2  N   UNL     1     -11.032  18.392  68.288  1.00  0.00    -0.180 NA 
HETATM    3  H   UNL     1     -11.862  18.580  68.852  1.00  0.00     0.000 HD 
ENDROOT
BRANCH   2   4
HETATM    4  C   UNL     1     -10.826  17.168  67.629  1.00  0.00    -0.241 A  
HETATM    5  N   UNL     1     -10.312  17.162  66.385  1.00  0.00    -0.323 NA 
HETATM    6  C   UNL     1     -10.054  15.964  65.796  1.00  0.00    -0.361 A  
HETATM    7  C   UNL     1     -10.330  14.714  66.339  1.00  0.00    -0.293 A  
HETATM    8  C   UNL     1     -11.537  15.960  69.738  1.00  0.00    -0.340 C  
HETATM    9  C   UNL     1     -10.903  14.758  67.620  1.00  0.00    -0.285 A  
HETATM   10  C   UNL     1     -11.101  15.974  68.300  1.00  0.00    -0.351 A  
BRANCH   7  11
HETATM   11  C   UNL     1      -9.916  13.429  65.692  1.00  0.00    -0.249 A  
HETATM   12  C   UNL     1     -10.074  12.013  63.704  1.00  0.00    -0.439 A  
HETATM   13  C   UNL     1     -10.382  13.181  64.385  1.00  0.00    -0.390 A  
HETATM   14  C   UNL     1      -9.390  10.996  64.363  1.00  0.00    -0.223 A  
HETATM   15  C   UNL     1      -9.098   9.767  63.596  1.00  0.00    -0.232 C  
HETATM   16  C   UNL     1      -8.540   8.617  64.312  1.00  0.00    -0.048 C  
HETATM   17  O   UNL     1      -9.317   9.691  62.388  1.00  0.00    -0.271 OA 
HETATM   18  C   UNL     1      -8.290   8.785  65.621  1.00  0.00    -0.138 C  
HETATM   19  C   UNL     1      -8.280   7.311  63.671  1.00  0.00     0.087 C  
HETATM   20  O   UNL     1      -8.519   7.278  62.344  1.00  0.00    -0.064 OA 
HETATM   21  O   UNL     1      -7.870   6.335  64.281  1.00  0.00    -0.105 OA 
HETATM   22  N   UNL     1      -8.440   9.950  66.365  1.00  0.00    -0.124 NA 
HETATM   23  C   UNL     1      -8.977  11.123  65.707  1.00  0.00    -0.196 A  
HETATM   24  C   UNL     1      -8.315  12.751  67.548  1.00  0.00    -0.179 C  
HETATM   25  C   UNL     1      -9.118  12.410  66.315  1.00  0.00    -0.099 A  
BRANCH  22  26
HETATM   26  C   UNL     1      -8.601   9.772  67.842  1.00  0.00    -0.125 C  
HETATM   27  C   UNL     1      -9.065   8.452  68.415  1.00  0.00    -0.135 C  
HETATM   28  C   UNL     1      -9.920   9.662  68.583  1.00  0.00    -0.179 C  
ENDBRANCH  22  26
ENDBRANCH   7  11
ENDBRANCH   2   4
TORSDOF 3
ENDMDL
MODEL       78
REMARK 921   NORMALIZED FREE ENERGY PREDICTED BY IDOCK:   -5.03 KCAL/MOL
REMARK 922        TOTAL FREE ENERGY PREDICTED BY IDOCK:   -6.60 KCAL/MOL
REMARK 923 INTER-LIGAND FREE ENERGY PREDICTED BY IDOCK:   -6.27 KCAL/MOL
REMARK 924 INTRA-LIGAND FREE ENERGY PREDICTED BY IDOCK:   -0.32 KCAL/MOL
REMARK 927      BINDING AFFINITY PREDICTED BY RF-SCORE:    0.00 PKD
ROOT
HETATM    1  C   UNL     1     -12.207  16.276  73.546  1.00  0.00    -0.513 C  
HETATM    2  N   UNL     1     -12.968  16.061  72.326  1.00  0.00    -0.416 NA 
HETATM    3  H   UNL     1     -13.921  16.404  72.204  1.00  0.00     0.000 HD 
ENDROOT
BRANCH   2   4
HETATM    4  C   UNL     1     -12.286  15.346  71.327  1.00  0.00    -0.385 A  
HETATM    5  N   UNL     1     -11.360  15.971  70.576  1.00  0.00    -0.381 NA 
HETATM    6  C   UNL     1     -10.663  15.240  69.666  1.00  0.00    -0.281 A  
HETATM    7  C   UNL     1     -10.857  13.892  69.383  1.00  0.00    -0.109 A  
HETATM    8  C   UNL     1     -13.462  13.238  72.094  1.00  0.00    -0.655 C  
HETATM    9  C   UNL     1     -11.859  13.282  70.155  1.00  0.00    -0.333 A  
HETATM   10  C   UNL     1     -12.538  13.981  71.170  1.00  0.00    -0.445 A  
BRANCH   7  11
HETATM   11  C   UNL     1      -9.979  13.115  68.453  1.00  0.00    -0.223 A  
HETATM   12  C   UNL     1      -7.686  12.627  67.758  1.00  0.00    -0.145 A  
HETATM   13  C   UNL     1      -8.586  13.284  68.583  1.00  0.00     0.026 A  
HETATM   14  C   UNL     1      -8.160  11.875  66.688  1.00  0.00    -0.063 A  
HETATM   15  C   UNL     1      -7.158  11.206  65.831  1.00  0.00     0.123 C  
HETATM   16  C   UNL     1      -7.619  10.558  64.600  1.00  0.00     0.036 C  
HETATM   17  O   UNL     1      -5.964  11.189  66.125  1.00  0.00    -0.142 OA 
HETATM   18  C   UNL     1      -8.940  10.582  64.364  1.00  0.00    -0.211 C  
HETATM   19  C   UNL     1      -6.704   9.926  63.626  1.00  0.00    -0.125 C  
HETATM   20  O   UNL     1      -5.408   9.916  63.996  1.00  0.00    -0.071 OA 
HETATM   21  O   UNL     1      -7.082   9.437  62.572  1.00  0.00    -0.101 OA 
HETATM   22  N   UNL     1      -9.935  11.097  65.188  1.00  0.00    -0.255 NA 
HETATM   23  C   UNL     1      -9.541  11.739  66.424  1.00  0.00    -0.218 A  
HETATM   24  C   UNL     1     -11.876  11.762  67.435  1.00  0.00    -0.210 C  
HETATM   25  C   UNL     1     -10.446  12.247  67.408  1.00  0.00    -0.228 A  
BRANCH  22  26
HETATM   26  C   UNL     1     -11.217  11.475  64.515  1.00  0.00    -0.231 C  
HETATM   27  C   UNL     1     -11.224  11.973  63.088  1.00  0.00    -0.261 C  
HETATM   28  C   UNL     1     -11.661  12.886  64.182  1.00  0.00    -0.456 C  
ENDBRANCH  22  26
ENDBRANCH   7  11
ENDBRANCH   2   4
TORSDOF 3
ENDMDL
MODEL       79
REMARK 921   NORMALIZED FREE ENERGY PREDICTED BY IDOCK:   -4.95 KCAL/MOL
REMARK 922        TOTAL FREE ENERGY PREDICTED BY IDOCK:   -6.50 KCAL/MOL
REMARK 923 INTER-LIGAND FREE ENERGY PREDICTED BY IDOCK:   -5.99 KCAL/MOL
REMARK 924 INTRA-LIGAND FREE ENERGY PREDICTED BY IDOCK:   -0.52 KCAL/MOL
REMARK 927      BINDING AFFINITY PREDICTED BY RF-SCORE:    0.00 PKD
ROOT
HETATM    1  C   UNL     1     -11.378  16.554  68.723  1.00  0.00    -0.221 C  
HETATM    2  N   UNL     1     -12.092  15.483  69.398  1.00  0.00    -0.518 NA 
HETATM    3  H   UNL     1     -12.814  15.658  70.097  1.00  0.00     0.000 HD 
ENDROOT
BRANCH   2   4
HETATM    4  C   UNL     1     -11.709  14.188  69.012  1.00  0.00    -0.324 A  
HETATM    5  N   UNL     1     -10.957  14.018  67.908  1.00  0.00    -0.243 NA 
HETATM    6  C   UNL     1     -10.539  12.763  67.596  1.00  0.00    -0.219 A  
HETATM    7  C   UNL     1     -10.867  11.600  68.285  1.00  0.00    -0.260 A  
HETATM    8  C   UNL     1     -12.778  13.289  71.125  1.00  0.00    -0.404 C  
HETATM    9  C   UNL     1     -11.686  11.809  69.406  1.00  0.00    -0.405 A  
HETATM   10  C   UNL     1     -12.064  13.101  69.815  1.00  0.00    -0.336 A  
BRANCH   7  11
HETATM   11  C   UNL     1     -10.280  10.262  67.961  1.00  0.00    -0.200 A  
HETATM   12  C   UNL     1      -9.745   8.651  66.200  1.00  0.00    -0.292 A  
HETATM   13  C   UNL     1     -10.248   9.878  66.605  1.00  0.00    -0.293 A  
HETATM   14  C   UNL     1      -9.373   7.713  67.158  1.00  0.00    -0.180 A  
HETATM   15  C   UNL     1      -8.856   6.417  66.672  1.00  0.00    -0.130 C  
HETATM   16  C   UNL     1      -8.625   5.351  67.651  1.00  0.00    -0.104 C  
HETATM   17  O   UNL     1      -8.625   6.218  65.481  1.00  0.00    -0.150 OA 
HETATM   18  C   UNL     1      -8.862   5.652  68.938  1.00  0.00    -0.109 C  
HETATM   19  C   UNL     1      -8.185   3.990  67.279  1.00  0.00    -0.099 C  
HETATM   20  O   UNL     1      -7.929   3.821  65.966  1.00  0.00    -0.089 OA 
HETATM   21  O   UNL     1      -8.049   3.085  68.088  1.00  0.00    -0.068 OA 
HETATM   22  N   UNL     1      -9.240   6.884  69.460  1.00  0.00    -0.148 NA 
HETATM   23  C   UNL     1      -9.471   7.980  68.541  1.00  0.00    -0.142 A  
HETATM   24  C   UNL     1      -9.479   9.791  70.328  1.00  0.00    -0.250 C  
HETATM   25  C   UNL     1      -9.789   9.319  68.927  1.00  0.00    -0.170 A  
BRANCH  22  26
HETATM   26  C   UNL     1      -9.929   6.854  70.788  1.00  0.00    -0.190 C  
HETATM   27  C   UNL     1      -9.252   6.247  71.995  1.00  0.00    -0.145 C  
HETATM   28  C   UNL     1     -10.495   5.620  71.464  1.00  0.00    -0.298 C  
ENDBRANCH  22  26
ENDBRANCH   7  11
ENDBRANCH   2   4
TORSDOF 3
ENDMDL
MODEL       80
REMARK 921   NORMALIZED FREE ENERGY PREDICTED BY IDOCK:   -4.94 KCAL/MOL
REMARK 922        TOTAL FREE ENERGY PREDICTED BY IDOCK:   -6.49 KCAL/MOL
REMARK 923 INTER-LIGAND FREE ENERGY PREDICTED BY IDOCK:   -6.34 KCAL/MOL
REMARK 924 INTRA-LIGAND FREE ENERGY PREDICTED BY IDOCK:   -0.14 KCAL/MOL
REMARK 927      BINDING AFFINITY PREDICTED BY RF-SCORE:    0.00 PKD
ROOT
HETATM    1  C   UNL     1     -12.230  14.229  64.324  1.00  0.00    -0.423 C  
HETATM    2  N   UNL     1     -11.420  13.048  64.078  1.00  0.00    -0.398 NA 
HETATM    3  H   UNL     1     -11.055  12.812  63.155  1.00  0.00     0.000 HD 
ENDROOT
BRANCH   2   4
HETATM    4  C   UNL     1     -11.177  12.255  65.213  1.00  0.00    -0.328 A  
HETATM    5  N   UNL     1     -11.808  12.538  66.368  1.00  0.00    -0.516 NA 
HETATM    6  C   UNL     1     -11.612  11.715  67.432  1.00  0.00    -0.254 A  
HETATM    7  C   UNL     1     -10.760  10.616  67.465  1.00  0.00    -0.321 A  
HETATM    8  C   UNL     1      -9.736  10.735  63.791  1.00  0.00    -0.372 C  
HETATM    9  C   UNL     1     -10.088  10.374  66.256  1.00  0.00    -0.292 A  
HETATM   10  C   UNL     1     -10.332  11.148  65.107  1.00  0.00    -0.354 A  
BRANCH   7  11
HETATM   11  C   UNL     1     -10.677   9.678  68.628  1.00  0.00    -0.233 A  
HETATM   12  C   UNL     1     -11.465   9.169  70.887  1.00  0.00    -0.357 A  
HETATM   13  C   UNL     1     -11.482   9.962  69.750  1.00  0.00    -0.194 A  
HETATM   14  C   UNL     1     -10.541   8.133  70.986  1.00  0.00    -0.242 A  
HETATM   15  C   UNL     1     -10.555   7.327  72.225  1.00  0.00    -0.224 C  
HETATM   16  C   UNL     1      -9.482   6.351  72.430  1.00  0.00    -0.143 C  
HETATM   17  O   UNL     1     -11.434   7.463  73.074  1.00  0.00    -0.277 OA 
HETATM   18  C   UNL     1      -8.580   6.229  71.443  1.00  0.00    -0.131 C  
HETATM   19  C   UNL     1      -9.346   5.543  73.661  1.00  0.00    -0.137 C  
HETATM   20  O   UNL     1     -10.338   5.713  74.558  1.00  0.00    -0.269 OA 
HETATM   21  O   UNL     1      -8.419   4.772  73.857  1.00  0.00    -0.104 OA 
HETATM   22  N   UNL     1      -8.582   6.879  70.214  1.00  0.00    -0.139 NA 
HETATM   23  C   UNL     1      -9.626   7.847  69.949  1.00  0.00    -0.168 A  
HETATM   24  C   UNL     1      -9.190   7.988  67.446  1.00  0.00    -0.155 C  
HETATM   25  C   UNL     1      -9.807   8.538  68.710  1.00  0.00    -0.180 A  
BRANCH  22  26
HETATM   26  C   UNL     1      -7.260   6.985  69.522  1.00  0.00    -0.080 C  
HETATM   27  C   UNL     1      -5.973   6.722  70.271  1.00  0.00    -0.024 C  
HETATM   28  C   UNL     1      -6.237   8.086  69.730  1.00  0.00    -0.029 C  
ENDBRANCH  22  26
ENDBRANCH   7  11
ENDBRANCH   2   4
TORSDOF 3
ENDMDL
MODEL       81
REMARK 921   NORMALIZED FREE ENERGY PREDICTED BY IDOCK:   -4.93 KCAL/MOL
REMARK 922        TOTAL FREE ENERGY PREDICTED BY IDOCK:   -6.47 KCAL/MOL
REMARK 923 INTER-LIGAND FREE ENERGY PREDICTED BY IDOCK:   -5.68 KCAL/MOL
REMARK 924 INTRA-LIGAND FREE ENERGY PREDICTED BY IDOCK:   -0.79 KCAL/MOL
REMARK 927      BINDING AFFINITY PREDICTED BY RF-SCORE:    0.00 PKD
ROOT
HETATM    1  C   UNL     1      -9.005   4.480  70.542  1.00  0.00    -0.105 C  
HETATM    2  N   UNL     1      -8.797   5.500  71.556  1.00  0.00    -0.135 NA 
HETATM    3  H   UNL     1      -8.842   5.300  72.556  1.00  0.00     0.000 HD 
ENDROOT
BRANCH   2   4
HETATM    4  C   UNL     1      -8.531   6.784  71.052  1.00  0.00    -0.132 A  
HETATM    5  N   UNL     1      -7.458   6.979  70.263  1.00  0.00    -0.084 NA 
HETATM    6  C   UNL     1      -7.261   8.214  69.729  1.00  0.00    -0.064 A  
HETATM    7  C   UNL     1      -8.043   9.338  69.970  1.00  0.00    -0.140 A  
HETATM    8  C   UNL     1     -10.696   7.594  72.087  1.00  0.00    -0.289 C  
HETATM    9  C   UNL     1      -9.129   9.110  70.830  1.00  0.00    -0.313 A  
HETATM   10  C   UNL     1      -9.419   7.827  71.329  1.00  0.00    -0.173 A  
BRANCH   7  11
HETATM   11  C   UNL     1      -7.844  10.641  69.260  1.00  0.00    -0.140 A  
HETATM   12  C   UNL     1      -6.413  12.606  68.983  1.00  0.00    -0.097 A  
HETATM   13  C   UNL     1      -6.682  11.377  69.567  1.00  0.00    -0.119 A  
HETATM   14  C   UNL     1      -7.369  13.197  68.162  1.00  0.00    -0.119 A  
HETATM   15  C   UNL     1      -7.038  14.513  67.575  1.00  0.00    -0.175 C  
HETATM   16  C   UNL     1      -8.090  15.236  66.855  1.00  0.00    -0.224 C  
HETATM   17  O   UNL     1      -5.916  15.005  67.682  1.00  0.00    -0.248 OA 
HETATM   18  C   UNL     1      -9.277  14.621  66.744  1.00  0.00    -0.264 C  
HETATM   19  C   UNL     1      -7.903  16.590  66.293  1.00  0.00    -0.231 C  
HETATM   20  O   UNL     1      -6.654  17.084  66.419  1.00  0.00    -0.225 OA 
HETATM   21  O   UNL     1      -8.796  17.217  65.744  1.00  0.00    -0.530 OA 
HETATM   22  N   UNL     1      -9.609  13.342  67.179  1.00  0.00    -0.232 NA 
HETATM   23  C   UNL     1      -8.605  12.573  67.886  1.00  0.00    -0.179 A  
HETATM   24  C   UNL     1      -9.834  10.353  67.703  1.00  0.00    -0.197 C  
HETATM   25  C   UNL     1      -8.767  11.222  68.326  1.00  0.00    -0.158 A  
BRANCH  22  26
HETATM   26  C   UNL     1     -11.063  13.081  67.413  1.00  0.00    -0.272 C  
HETATM   27  C   UNL     1     -12.059  13.193  66.281  1.00  0.00    -0.460 C  
HETATM   28  C   UNL     1     -12.159  14.130  67.436  1.00  0.00    -0.379 C  
ENDBRANCH  22  26
ENDBRANCH   7  11
ENDBRANCH   2   4
TORSDOF 3
ENDMDL
MODEL       82
REMARK 921   NORMALIZED FREE ENERGY PREDICTED BY IDOCK:   -4.84 KCAL/MOL
REMARK 922        TOTAL FREE ENERGY PREDICTED BY IDOCK:   -6.36 KCAL/MOL
REMARK 923 INTER-LIGAND FREE ENERGY PREDICTED BY IDOCK:   -6.15 KCAL/MOL
REMARK 924 INTRA-LIGAND FREE ENERGY PREDICTED BY IDOCK:   -0.21 KCAL/MOL
REMARK 927      BINDING AFFINITY PREDICTED BY RF-SCORE:    0.00 PKD
ROOT
HETATM    1  C   UNL     1     -12.588  15.548  70.775  1.00  0.00    -0.452 C  
HETATM    2  N   UNL     1     -12.546  15.399  69.330  1.00  0.00    -0.596 NA 
HETATM    3  H   UNL     1     -12.903  16.111  68.692  1.00  0.00     0.000 HD 
ENDROOT
BRANCH   2   4
HETATM    4  C   UNL     1     -11.976  14.196  68.880  1.00  0.00    -0.341 A  
HETATM    5  N   UNL     1     -12.280  13.042  69.503  1.00  0.00    -0.203 NA 
HETATM    6  C   UNL     1     -11.773  11.884  69.005  1.00  0.00    -0.331 A  
HETATM    7  C   UNL     1     -10.902  11.773  67.926  1.00  0.00    -0.255 A  
HETATM    8  C   UNL     1     -10.915  15.466  66.963  1.00  0.00    -0.306 C  
HETATM    9  C   UNL     1     -10.573  13.000  67.326  1.00  0.00    -0.247 A  
HETATM   10  C   UNL     1     -11.149  14.210  67.754  1.00  0.00    -0.292 A  
BRANCH   7  11
HETATM   11  C   UNL     1     -10.471  10.460  67.351  1.00  0.00    -0.299 A  
HETATM   12  C   UNL     1     -10.177   8.066  67.753  1.00  0.00    -0.282 A  
HETATM   13  C   UNL     1     -10.569   9.325  68.181  1.00  0.00    -0.248 A  
HETATM   14  C   UNL     1      -9.552   7.925  66.518  1.00  0.00    -0.281 A  
HETATM   15  C   UNL     1      -9.142   6.564  66.116  1.00  0.00    -0.124 C  
HETATM   16  C   UNL     1      -8.327   6.413  64.908  1.00  0.00    -0.062 C  
HETATM   17  O   UNL     1      -9.462   5.572  66.769  1.00  0.00    -0.129 OA 
HETATM   18  C   UNL     1      -8.048   7.533  64.224  1.00  0.00    -0.064 C  
HETATM   19  C   UNL     1      -7.791   5.113  64.448  1.00  0.00    -0.097 C  
HETATM   20  O   UNL     1      -8.180   4.053  65.185  1.00  0.00    -0.100 OA 
HETATM   21  O   UNL     1      -7.063   4.995  63.474  1.00  0.00    -0.046 OA 
HETATM   22  N   UNL     1      -8.500   8.821  64.494  1.00  0.00    -0.165 NA 
HETATM   23  C   UNL     1      -9.320   9.030  65.669  1.00  0.00    -0.222 A  
HETATM   24  C   UNL     1     -10.106  11.356  64.999  1.00  0.00    -0.323 C  
HETATM   25  C   UNL     1      -9.922  10.274  66.037  1.00  0.00    -0.308 A  
BRANCH  22  26
HETATM   26  C   UNL     1      -7.675   9.939  63.940  1.00  0.00    -0.140 C  
HETATM   27  C   UNL     1      -6.924   9.773  62.638  1.00  0.00    -0.110 C  
HETATM   28  C   UNL     1      -6.159   9.986  63.900  1.00  0.00    -0.132 C  
ENDBRANCH  22  26
ENDBRANCH   7  11
ENDBRANCH   2   4
TORSDOF 3
ENDMDL
MODEL       83
REMARK 921   NORMALIZED FREE ENERGY PREDICTED BY IDOCK:   -4.83 KCAL/MOL
REMARK 922        TOTAL FREE ENERGY PREDICTED BY IDOCK:   -6.35 KCAL/MOL
REMARK 923 INTER-LIGAND FREE ENERGY PREDICTED BY IDOCK:   -5.52 KCAL/MOL
REMARK 924 INTRA-LIGAND FREE ENERGY PREDICTED BY IDOCK:   -0.84 KCAL/MOL
REMARK 927      BINDING AFFINITY PREDICTED BY RF-SCORE:    0.00 PKD
ROOT
HETATM    1  C   UNL     1      -9.694  18.823  67.172  1.00  0.00    -0.301 C  
HETATM    2  N   UNL     1     -10.819  17.934  67.416  1.00  0.00    -0.289 NA 
HETATM    3  H   UNL     1     -11.718  18.267  67.763  1.00  0.00     0.000 HD 
ENDROOT
BRANCH   2   4
HETATM    4  C   UNL     1     -10.569  16.581  67.136  1.00  0.00    -0.270 A  
HETATM    5  N   UNL     1      -9.838  16.249  66.055  1.00  0.00    -0.325 NA 
HETATM    6  C   UNL     1      -9.549  14.938  65.845  1.00  0.00    -0.308 A  
HETATM    7  C   UNL     1      -9.992  13.872  66.620  1.00  0.00    -0.279 A  
HETATM    8  C   UNL     1     -11.722  15.963  69.304  1.00  0.00    -0.360 C  
HETATM    9  C   UNL     1     -10.786  14.250  67.715  1.00  0.00    -0.253 A  
HETATM   10  C   UNL     1     -11.031  15.602  68.019  1.00  0.00    -0.318 A  
BRANCH   7  11
HETATM   11  C   UNL     1      -9.544  12.460  66.407  1.00  0.00    -0.249 A  
HETATM   12  C   UNL     1      -9.607  10.510  64.932  1.00  0.00    -0.334 A  
HETATM   13  C   UNL     1      -9.950  11.823  65.217  1.00  0.00    -0.284 A  
HETATM   14  C   UNL     1      -8.949   9.750  65.893  1.00  0.00    -0.189 A  
HETATM   15  C   UNL     1      -8.618   8.352  65.543  1.00  0.00    -0.176 C  
HETATM   16  C   UNL     1      -8.087   7.481  66.595  1.00  0.00    -0.123 C  
HETATM   17  O   UNL     1      -8.782   7.914  64.406  1.00  0.00     0.139 OA 
HETATM   18  C   UNL     1      -7.898   8.037  67.801  1.00  0.00    -0.126 C  
HETATM   19  C   UNL     1      -7.793   6.047  66.387  1.00  0.00    -0.104 C  
HETATM   20  O   UNL     1      -7.973   5.613  65.123  1.00  0.00    -0.100 OA 
HETATM   21  O   UNL     1      -7.407   5.306  67.278  1.00  0.00    -0.080 OA 
HETATM   22  N   UNL     1      -8.086   9.369  68.155  1.00  0.00    -0.109 NA 
HETATM   23  C   UNL     1      -8.597  10.282  67.153  1.00  0.00    -0.126 A  
HETATM   24  C   UNL     1      -8.026  12.398  68.446  1.00  0.00    -0.149 C  
HETATM   25  C   UNL     1      -8.771  11.689  67.339  1.00  0.00    -0.155 A  
BRANCH  22  26
HETATM   26  C   UNL     1      -8.311   9.640  69.609  1.00  0.00    -0.168 C  
HETATM   27  C   UNL     1      -8.558   8.505  70.576  1.00  0.00    -0.155 C  
HETATM   28  C   UNL     1      -9.634   9.509  70.340  1.00  0.00    -0.326 C  
ENDBRANCH  22  26
ENDBRANCH   7  11
ENDBRANCH   2   4
TORSDOF 3
ENDMDL
MODEL       84
REMARK 921   NORMALIZED FREE ENERGY PREDICTED BY IDOCK:   -4.79 KCAL/MOL
REMARK 922        TOTAL FREE ENERGY PREDICTED BY IDOCK:   -6.31 KCAL/MOL
REMARK 923 INTER-LIGAND FREE ENERGY PREDICTED BY IDOCK:   -5.41 KCAL/MOL
REMARK 924 INTRA-LIGAND FREE ENERGY PREDICTED BY IDOCK:   -0.90 KCAL/MOL
REMARK 927      BINDING AFFINITY PREDICTED BY RF-SCORE:    0.00 PKD
ROOT
HETATM    1  C   UNL     1     -10.893  19.204  67.380  1.00  0.00    -0.435 C  
HETATM    2  N   UNL     1      -9.595  18.792  67.889  1.00  0.00    -0.299 NA 
HETATM    3  H   UNL     1      -8.911  19.455  68.253  1.00  0.00     0.000 HD 
ENDROOT
BRANCH   2   4
HETATM    4  C   UNL     1      -9.358  17.408  67.841  1.00  0.00    -0.267 A  
HETATM    5  N   UNL     1     -10.158  16.572  68.530  1.00  0.00    -0.243 NA 
HETATM    6  C   UNL     1      -9.954  15.234  68.411  1.00  0.00    -0.220 A  
HETATM    7  C   UNL     1      -8.939  14.627  67.677  1.00  0.00    -0.187 A  
HETATM    8  C   UNL     1      -7.526  17.823  66.144  1.00  0.00    -0.322 C  
HETATM    9  C   UNL     1      -8.099  15.529  67.005  1.00  0.00    -0.272 A  
HETATM   10  C   UNL     1      -8.333  16.916  67.030  1.00  0.00    -0.227 A  
BRANCH   7  11
HETATM   11  C   UNL     1      -8.837  13.146  67.489  1.00  0.00    -0.199 A  
HETATM   12  C   UNL     1      -7.858  11.058  68.305  1.00  0.00    -0.121 A  
HETATM   13  C   UNL     1      -8.037  12.429  68.402  1.00  0.00    -0.143 A  
HETATM   14  C   UNL     1      -8.376  10.376  67.208  1.00  0.00    -0.122 A  
HETATM   15  C   UNL     1      -8.146   8.917  67.146  1.00  0.00    -0.103 C  
HETATM   16  C   UNL     1      -8.524   8.206  65.921  1.00  0.00    -0.153 C  
HETATM   17  O   UNL     1      -7.647   8.301  68.085  1.00  0.00    -0.095 OA 
HETATM   18  C   UNL     1      -9.100   8.937  64.953  1.00  0.00    -0.000 C  
HETATM   19  C   UNL     1      -8.273   6.765  65.710  1.00  0.00    -0.135 C  
HETATM   20  O   UNL     1      -7.738   6.126  66.771  1.00  0.00    -0.100 OA 
HETATM   21  O   UNL     1      -8.534   6.185  64.668  1.00  0.00    -0.093 OA 
HETATM   22  N   UNL     1      -9.440  10.284  65.003  1.00  0.00    -0.232 NA 
HETATM   23  C   UNL     1      -9.103  11.037  66.193  1.00  0.00    -0.192 A  
HETATM   24  C   UNL     1     -10.575  13.036  65.637  1.00  0.00    -0.297 C  
HETATM   25  C   UNL     1      -9.452  12.403  66.425  1.00  0.00    -0.240 A  
BRANCH  22  26
HETATM   26  C   UNL     1      -9.578  10.978  63.684  1.00  0.00    -0.292 C  
HETATM   27  C   UNL     1      -9.531  10.196  62.391  1.00  0.00    -0.244 C  
HETATM   28  C   UNL     1      -8.464  11.197  62.678  1.00  0.00    -0.174 C  
ENDBRANCH  22  26
ENDBRANCH   7  11
ENDBRANCH   2   4
TORSDOF 3
ENDMDL
MODEL       85
REMARK 921   NORMALIZED FREE ENERGY PREDICTED BY IDOCK:   -4.79 KCAL/MOL
REMARK 922        TOTAL FREE ENERGY PREDICTED BY IDOCK:   -6.30 KCAL/MOL
REMARK 923 INTER-LIGAND FREE ENERGY PREDICTED BY IDOCK:   -5.59 KCAL/MOL
REMARK 924 INTRA-LIGAND FREE ENERGY PREDICTED BY IDOCK:   -0.71 KCAL/MOL
REMARK 927      BINDING AFFINITY PREDICTED BY RF-SCORE:    0.00 PKD
ROOT
HETATM    1  C   UNL     1     -11.338   8.266  71.057  1.00  0.00    -0.269 C  
HETATM    2  N   UNL     1     -11.076   8.289  69.628  1.00  0.00    -0.439 NA 
HETATM    3  H   UNL     1     -10.958   7.438  69.076  1.00  0.00     0.000 HD 
ENDROOT
BRANCH   2   4
HETATM    4  C   UNL     1     -10.996   9.573  69.065  1.00  0.00    -0.100 A  
HETATM    5  N   UNL     1     -12.048  10.408  69.162  1.00  0.00    -0.136 NA 
HETATM    6  C   UNL     1     -11.922  11.670  68.674  1.00  0.00    -0.248 A  
HETATM    7  C   UNL     1     -10.808  12.180  68.016  1.00  0.00    -0.258 A  
HETATM    8  C   UNL     1      -8.574   9.121  68.479  1.00  0.00    -0.129 C  
HETATM    9  C   UNL     1      -9.745  11.271  67.895  1.00  0.00    -0.185 A  
HETATM   10  C   UNL     1      -9.803   9.987  68.467  1.00  0.00    -0.168 A  
BRANCH   7  11
HETATM   11  C   UNL     1     -10.684  13.614  67.605  1.00  0.00    -0.253 A  
HETATM   12  C   UNL     1     -11.010  15.250  65.816  1.00  0.00    -0.340 A  
HETATM   13  C   UNL     1     -11.101  13.955  66.302  1.00  0.00    -0.304 A  
HETATM   14  C   UNL     1     -10.376  16.226  66.580  1.00  0.00    -0.310 A  
HETATM   15  C   UNL     1     -10.293  17.586  66.009  1.00  0.00    -0.306 C  
HETATM   16  C   UNL     1      -9.480  18.585  66.709  1.00  0.00    -0.304 C  
HETATM   17  O   UNL     1     -10.881  17.890  64.973  1.00  0.00    -0.767 OA 
HETATM   18  C   UNL     1      -8.900  18.194  67.855  1.00  0.00    -0.268 C  
HETATM   19  C   UNL     1      -9.258  19.953  66.197  1.00  0.00    -0.336 C  
HETATM   20  O   UNL     1      -9.933  20.247  65.067  1.00  0.00     0.142 OA 
HETATM   21  O   UNL     1      -8.533  20.766  66.750  1.00  0.00    -0.109 OA 
HETATM   22  N   UNL     1      -9.035  16.965  68.493  1.00  0.00    -0.247 NA 
HETATM   23  C   UNL     1      -9.837  15.943  67.854  1.00  0.00    -0.218 A  
HETATM   24  C   UNL     1      -9.992  14.446  69.906  1.00  0.00     0.548 C  
HETATM   25  C   UNL     1     -10.132  14.662  68.418  1.00  0.00    -0.237 A  
BRANCH  22  26
HETATM   26  C   UNL     1      -7.933  16.585  69.431  1.00  0.00     0.025 C  
HETATM   27  C   UNL     1      -6.503  16.986  69.146  1.00  0.00    -0.221 C  
HETATM   28  C   UNL     1      -6.866  15.540  69.167  1.00  0.00    -0.155 C  
ENDBRANCH  22  26
ENDBRANCH   7  11
ENDBRANCH   2   4
TORSDOF 3
ENDMDL
MODEL       86
REMARK 921   NORMALIZED FREE ENERGY PREDICTED BY IDOCK:   -4.78 KCAL/MOL
REMARK 922        TOTAL FREE ENERGY PREDICTED BY IDOCK:   -6.29 KCAL/MOL
REMARK 923 INTER-LIGAND FREE ENERGY PREDICTED BY IDOCK:   -5.48 KCAL/MOL
REMARK 924 INTRA-LIGAND FREE ENERGY PREDICTED BY IDOCK:   -0.81 KCAL/MOL
REMARK 927      BINDING AFFINITY PREDICTED BY RF-SCORE:    0.00 PKD
ROOT
HETATM    1  C   UNL     1     -12.558  14.451  64.977  1.00  0.00    -0.301 C  
HETATM    2  N   UNL     1     -12.589  13.012  64.773  1.00  0.00    -0.650 NA 
HETATM    3  H   UNL     1     -13.144  12.573  64.038  1.00  0.00     0.000 HD 
ENDROOT
BRANCH   2   4
HETATM    4  C   UNL     1     -11.796  12.274  65.667  1.00  0.00    -0.360 A  
HETATM    5  N   UNL     1     -12.156  12.191  66.962  1.00  0.00    -0.546 NA 
HETATM    6  C   UNL     1     -11.413  11.413  67.792  1.00  0.00    -0.281 A  
HETATM    7  C   UNL     1     -10.256  10.724  67.444  1.00  0.00    -0.241 A  
HETATM    8  C   UNL     1     -10.347  11.553  63.720  1.00  0.00    -0.450 C  
HETATM    9  C   UNL     1      -9.887  10.867  66.097  1.00  0.00    -0.268 A  
HETATM   10  C   UNL     1     -10.679  11.588  65.185  1.00  0.00    -0.348 A  
BRANCH   7  11
HETATM   11  C   UNL     1      -9.548   9.789  68.374  1.00  0.00    -0.157 A  
HETATM   12  C   UNL     1      -8.005   9.583  70.260  1.00  0.00    -0.190 A  
HETATM   13  C   UNL     1      -8.721  10.360  69.363  1.00  0.00    -0.138 A  
HETATM   14  C   UNL     1      -7.994   8.199  70.113  1.00  0.00    -0.107 A  
HETATM   15  C   UNL     1      -7.204   7.419  71.087  1.00  0.00    -0.071 C  
HETATM   16  C   UNL     1      -7.031   5.983  70.851  1.00  0.00    -0.067 C  
HETATM   17  O   UNL     1      -6.692   7.945  72.074  1.00  0.00    -0.054 OA 
HETATM   18  C   UNL     1      -7.650   5.470  69.776  1.00  0.00    -0.074 C  
HETATM   19  C   UNL     1      -6.200   5.114  71.710  1.00  0.00    -0.030 C  
HETATM   20  O   UNL     1      -5.672   5.729  72.788  1.00  0.00    -0.029 OA 
HETATM   21  O   UNL     1      -6.009   3.930  71.480  1.00  0.00    -0.012 OA 
HETATM   22  N   UNL     1      -8.494   6.134  68.892  1.00  0.00    -0.118 NA 
HETATM   23  C   UNL     1      -8.713   7.553  69.083  1.00  0.00    -0.136 A  
HETATM   24  C   UNL     1     -10.715   7.698  67.519  1.00  0.00    -0.280 C  
HETATM   25  C   UNL     1      -9.607   8.356  68.308  1.00  0.00    -0.156 A  
BRANCH  22  26
HETATM   26  C   UNL     1      -8.638   5.524  67.533  1.00  0.00    -0.108 C  
HETATM   27  C   UNL     1      -9.513   4.310  67.321  1.00  0.00    -0.209 C  
HETATM   28  C   UNL     1      -8.045   4.200  67.089  1.00  0.00    -0.100 C  
ENDBRANCH  22  26
ENDBRANCH   7  11
ENDBRANCH   2   4
TORSDOF 3
ENDMDL
MODEL       87
REMARK 921   NORMALIZED FREE ENERGY PREDICTED BY IDOCK:   -4.78 KCAL/MOL
REMARK 922        TOTAL FREE ENERGY PREDICTED BY IDOCK:   -6.29 KCAL/MOL
REMARK 923 INTER-LIGAND FREE ENERGY PREDICTED BY IDOCK:   -5.51 KCAL/MOL
REMARK 924 INTRA-LIGAND FREE ENERGY PREDICTED BY IDOCK:   -0.78 KCAL/MOL
REMARK 927      BINDING AFFINITY PREDICTED BY RF-SCORE:    0.00 PKD
ROOT
HETATM    1  C   UNL     1      -9.000   5.684  65.805  1.00  0.00    -0.147 C  
HETATM    2  N   UNL     1     -10.156   6.266  66.466  1.00  0.00    -0.345 NA 
HETATM    3  H   UNL     1     -10.995   5.728  66.686  1.00  0.00     0.000 HD 
ENDROOT
BRANCH   2   4
HETATM    4  C   UNL     1     -10.029   7.630  66.778  1.00  0.00    -0.247 A  
HETATM    5  N   UNL     1      -9.676   8.502  65.815  1.00  0.00    -0.030 NA 
HETATM    6  C   UNL     1      -9.630   9.825  66.123  1.00  0.00    -0.227 A  
HETATM    7  C   UNL     1      -9.859  10.377  67.380  1.00  0.00    -0.210 A  
HETATM    8  C   UNL     1     -10.865   7.130  69.116  1.00  0.00    -0.185 C  
HETATM    9  C   UNL     1     -10.183   9.435  68.369  1.00  0.00    -0.224 A  
HETATM   10  C   UNL     1     -10.331   8.068  68.070  1.00  0.00    -0.262 A  
BRANCH   7  11
HETATM   11  C   UNL     1      -9.908  11.851  67.631  1.00  0.00    -0.192 A  
HETATM   12  C   UNL     1     -11.182  13.919  67.341  1.00  0.00    -0.330 A  
HETATM   13  C   UNL     1     -11.046  12.549  67.177  1.00  0.00    -0.321 A  
HETATM   14  C   UNL     1     -10.119  14.657  67.854  1.00  0.00    -0.225 A  
HETATM   15  C   UNL     1     -10.311  16.115  67.995  1.00  0.00    -0.271 C  
HETATM   16  C   UNL     1      -9.153  16.935  68.363  1.00  0.00    -0.243 C  
HETATM   17  O   UNL     1     -11.404  16.645  67.808  1.00  0.00    -0.144 OA 
HETATM   18  C   UNL     1      -8.001  16.285  68.591  1.00  0.00    -0.215 C  
HETATM   19  C   UNL     1      -9.202  18.410  68.459  1.00  0.00    -0.328 C  
HETATM   20  O   UNL     1     -10.424  18.946  68.261  1.00  0.00    -0.350 OA 
HETATM   21  O   UNL     1      -8.224  19.098  68.708  1.00  0.00    -0.358 OA 
HETATM   22  N   UNL     1      -7.793  14.910  68.581  1.00  0.00    -0.126 NA 
HETATM   23  C   UNL     1      -8.903  14.047  68.237  1.00  0.00    -0.184 A  
HETATM   24  C   UNL     1      -7.805  11.905  69.059  1.00  0.00     0.099 C  
HETATM   25  C   UNL     1      -8.868  12.618  68.257  1.00  0.00    -0.172 A  
BRANCH  22  26
HETATM   26  C   UNL     1      -6.385  14.459  68.349  1.00  0.00    -0.101 C  
HETATM   27  C   UNL     1      -5.249  15.016  69.176  1.00  0.00    -0.094 C  
HETATM   28  C   UNL     1      -5.284  15.283  67.710  1.00  0.00    -0.078 C  
ENDBRANCH  22  26
ENDBRANCH   7  11
ENDBRANCH   2   4
TORSDOF 3
ENDMDL
MODEL       88
REMARK 921   NORMALIZED FREE ENERGY PREDICTED BY IDOCK:   -4.78 KCAL/MOL
REMARK 922        TOTAL FREE ENERGY PREDICTED BY IDOCK:   -6.29 KCAL/MOL
REMARK 923 INTER-LIGAND FREE ENERGY PREDICTED BY IDOCK:   -5.37 KCAL/MOL
REMARK 924 INTRA-LIGAND FREE ENERGY PREDICTED BY IDOCK:   -0.92 KCAL/MOL
REMARK 927      BINDING AFFINITY PREDICTED BY RF-SCORE:    0.00 PKD
ROOT
HETATM    1  C   UNL     1      -9.135   2.901  70.436  1.00  0.00    -0.122 C  
HETATM    2  N   UNL     1      -9.954   3.814  71.217  1.00  0.00    -0.147 NA 
HETATM    3  H   UNL     1     -10.528   3.505  72.001  1.00  0.00     0.000 HD 
ENDROOT
BRANCH   2   4
HETATM    4  C   UNL     1      -9.892   5.156  70.806  1.00  0.00    -0.202 A  
HETATM    5  N   UNL     1      -9.240   5.475  69.672  1.00  0.00    -0.130 NA 
HETATM    6  C   UNL     1      -9.255   6.769  69.257  1.00  0.00    -0.141 A  
HETATM    7  C   UNL     1      -9.840   7.834  69.935  1.00  0.00    -0.177 A  
HETATM    8  C   UNL     1     -11.410   5.773  72.737  1.00  0.00    -0.328 C  
HETATM    9  C   UNL     1     -10.474   7.473  71.134  1.00  0.00    -0.216 A  
HETATM   10  C   UNL     1     -10.560   6.132  71.550  1.00  0.00    -0.288 A  
BRANCH   7  11
HETATM   11  C   UNL     1      -9.925   9.217  69.370  1.00  0.00    -0.184 A  
HETATM   12  C   UNL     1     -11.332  10.865  68.235  1.00  0.00    -0.374 A  
HETATM   13  C   UNL     1     -11.153   9.613  68.803  1.00  0.00    -0.093 A  
HETATM   14  C   UNL     1     -10.241  11.718  68.101  1.00  0.00    -0.210 A  
HETATM   15  C   UNL     1     -10.483  13.035  67.476  1.00  0.00    -0.227 C  
HETATM   16  C   UNL     1      -9.325  13.878  67.162  1.00  0.00    -0.244 C  
HETATM   17  O   UNL     1     -11.618  13.428  67.213  1.00  0.00    -0.321 OA 
HETATM   18  C   UNL     1      -8.120  13.402  67.512  1.00  0.00    -0.181 C  
HETATM   19  C   UNL     1      -9.434  15.178  66.468  1.00  0.00    -0.283 C  
HETATM   20  O   UNL     1     -10.697  15.576  66.213  1.00  0.00    -0.307 OA 
HETATM   21  O   UNL     1      -8.465  15.853  66.154  1.00  0.00    -0.318 OA 
HETATM   22  N   UNL     1      -7.845  12.225  68.200  1.00  0.00    -0.139 NA 
HETATM   23  C   UNL     1      -8.951  11.357  68.549  1.00  0.00    -0.158 A  
HETATM   24  C   UNL     1      -7.629   9.936  70.194  1.00  0.00    -0.185 C  
HETATM   25  C   UNL     1      -8.840  10.157  69.318  1.00  0.00    -0.191 A  
BRANCH  22  26
HETATM   26  C   UNL     1      -6.471  11.663  68.022  1.00  0.00    -0.055 C  
HETATM   27  C   UNL     1      -5.545  12.209  66.958  1.00  0.00    -0.079 C  
HETATM   28  C   UNL     1      -6.011  10.796  66.865  1.00  0.00    -0.069 C  
ENDBRANCH  22  26
ENDBRANCH   7  11
ENDBRANCH   2   4
TORSDOF 3
ENDMDL
MODEL       89
REMARK 921   NORMALIZED FREE ENERGY PREDICTED BY IDOCK:   -4.77 KCAL/MOL
REMARK 922        TOTAL FREE ENERGY PREDICTED BY IDOCK:   -6.29 KCAL/MOL
REMARK 923 INTER-LIGAND FREE ENERGY PREDICTED BY IDOCK:   -5.40 KCAL/MOL
REMARK 924 INTRA-LIGAND FREE ENERGY PREDICTED BY IDOCK:   -0.89 KCAL/MOL
REMARK 927      BINDING AFFINITY PREDICTED BY RF-SCORE:    0.00 PKD
ROOT
HETATM    1  C   UNL     1      -9.728   4.581  73.922  1.00  0.00    -0.130 C  
HETATM    2  N   UNL     1     -10.533   4.806  72.733  1.00  0.00    -0.194 NA 
HETATM    3  H   UNL     1     -11.277   4.170  72.443  1.00  0.00     0.000 HD 
ENDROOT
BRANCH   2   4
HETATM    4  C   UNL     1     -10.207   5.967  72.013  1.00  0.00    -0.197 A  
HETATM    5  N   UNL     1     -10.183   7.156  72.645  1.00  0.00    -0.189 NA 
HETATM    6  C   UNL     1      -9.795   8.254  71.945  1.00  0.00    -0.232 A  
HETATM    7  C   UNL     1      -9.468   8.285  70.593  1.00  0.00    -0.181 A  
HETATM    8  C   UNL     1      -9.734   4.526  69.985  1.00  0.00    -0.283 C  
HETATM    9  C   UNL     1      -9.544   7.036  69.956  1.00  0.00    -0.164 A  
HETATM   10  C   UNL     1      -9.852   5.861  70.666  1.00  0.00    -0.230 A  
BRANCH   7  11
HETATM   11  C   UNL     1      -8.934   9.502  69.906  1.00  0.00    -0.231 A  
HETATM   12  C   UNL     1      -6.999  10.959  69.567  1.00  0.00    -0.131 A  
HETATM   13  C   UNL     1      -7.586   9.840  70.137  1.00  0.00    -0.180 A  
HETATM   14  C   UNL     1      -7.785  11.851  68.843  1.00  0.00    -0.016 A  
HETATM   15  C   UNL     1      -7.113  13.034  68.267  1.00  0.00    -0.103 C  
HETATM   16  C   UNL     1      -7.944  14.075  67.656  1.00  0.00    -0.186 C  
HETATM   17  O   UNL     1      -5.890  13.161  68.296  1.00  0.00    -0.071 OA 
HETATM   18  C   UNL     1      -9.267  13.850  67.625  1.00  0.00    -0.199 C  
HETATM   19  C   UNL     1      -7.395  15.338  67.117  1.00  0.00    -0.143 C  
HETATM   20  O   UNL     1      -6.050  15.428  67.155  1.00  0.00    -0.306 OA 
HETATM   21  O   UNL     1      -8.093  16.231  66.661  1.00  0.00    -0.230 OA 
HETATM   22  N   UNL     1      -9.939  12.709  68.050  1.00  0.00    -0.214 NA 
HETATM   23  C   UNL     1      -9.168  11.640  68.652  1.00  0.00    -0.108 A  
HETATM   24  C   UNL     1     -11.021   9.902  68.509  1.00  0.00    -0.226 C  
HETATM   25  C   UNL     1      -9.701  10.380  69.066  1.00  0.00    -0.216 A  
BRANCH  22  26
HETATM   26  C   UNL     1     -11.384  12.885  68.394  1.00  0.00    -0.294 C  
HETATM   27  C   UNL     1     -11.975  14.266  68.563  1.00  0.00    -0.352 C  
HETATM   28  C   UNL     1     -11.926  13.345  69.734  1.00  0.00    -0.396 C  
ENDBRANCH  22  26
ENDBRANCH   7  11
ENDBRANCH   2   4
TORSDOF 3
ENDMDL
MODEL       90
REMARK 921   NORMALIZED FREE ENERGY PREDICTED BY IDOCK:   -4.77 KCAL/MOL
REMARK 922        TOTAL FREE ENERGY PREDICTED BY IDOCK:   -6.29 KCAL/MOL
REMARK 923 INTER-LIGAND FREE ENERGY PREDICTED BY IDOCK:   -5.58 KCAL/MOL
REMARK 924 INTRA-LIGAND FREE ENERGY PREDICTED BY IDOCK:   -0.70 KCAL/MOL
REMARK 927      BINDING AFFINITY PREDICTED BY RF-SCORE:    0.00 PKD
ROOT
HETATM    1  C   UNL     1      -9.493  18.632  68.179  1.00  0.00    -0.325 C  
HETATM    2  N   UNL     1     -10.430  17.851  68.969  1.00  0.00    -0.416 NA 
HETATM    3  H   UNL     1     -11.050  18.271  69.662  1.00  0.00     0.000 HD 
ENDROOT
BRANCH   2   4
HETATM    4  C   UNL     1     -10.416  16.472  68.702  1.00  0.00    -0.304 A  
HETATM    5  N   UNL     1      -9.754  16.010  67.625  1.00  0.00    -0.223 NA 
HETATM    6  C   UNL     1      -9.693  14.666  67.428  1.00  0.00    -0.218 A  
HETATM    7  C   UNL     1     -10.311  13.700  68.215  1.00  0.00    -0.251 A  
HETATM    8  C   UNL     1     -11.656  16.082  70.876  1.00  0.00    -0.453 C  
HETATM    9  C   UNL     1     -11.027  14.218  69.305  1.00  0.00    -0.271 A  
HETATM   10  C   UNL     1     -11.038  15.595  69.595  1.00  0.00    -0.299 A  
BRANCH   7  11
HETATM   11  C   UNL     1     -10.111  12.230  68.015  1.00  0.00    -0.206 A  
HETATM   12  C   UNL     1     -11.122  10.120  67.301  1.00  0.00    -0.166 A  
HETATM   13  C   UNL     1     -11.196  11.490  67.503  1.00  0.00    -0.360 A  
HETATM   14  C   UNL     1      -9.995   9.425  67.727  1.00  0.00    -0.228 A  
HETATM   15  C   UNL     1      -9.973   7.965  67.500  1.00  0.00    -0.192 C  
HETATM   16  C   UNL     1      -8.883   7.186  68.095  1.00  0.00    -0.126 C  
HETATM   17  O   UNL     1     -10.840   7.400  66.836  1.00  0.00    -0.357 OA 
HETATM   18  C   UNL     1      -7.951   7.873  68.773  1.00  0.00    -0.124 C  
HETATM   19  C   UNL     1      -8.795   5.713  68.003  1.00  0.00    -0.105 C  
HETATM   20  O   UNL     1      -9.758   5.138  67.253  1.00  0.00    -0.137 OA 
HETATM   21  O   UNL     1      -7.920   5.059  68.548  1.00  0.00    -0.085 OA 
HETATM   22  N   UNL     1      -7.863   9.253  68.923  1.00  0.00    -0.086 NA 
HETATM   23  C   UNL     1      -8.905  10.076  68.345  1.00  0.00    -0.117 A  
HETATM   24  C   UNL     1      -7.629  12.266  68.567  1.00  0.00    -0.118 C  
HETATM   25  C   UNL     1      -8.915  11.506  68.348  1.00  0.00    -0.173 A  
BRANCH  22  26
HETATM   26  C   UNL     1      -7.083   9.740  70.103  1.00  0.00    -0.130 C  
HETATM   27  C   UNL     1      -5.657   9.288  70.326  1.00  0.00    -0.031 C  
HETATM   28  C   UNL     1      -6.706   8.913  71.317  1.00  0.00    -0.083 C  
ENDBRANCH  22  26
ENDBRANCH   7  11
ENDBRANCH   2   4
TORSDOF 3
ENDMDL
MODEL       91
REMARK 921   NORMALIZED FREE ENERGY PREDICTED BY IDOCK:   -4.76 KCAL/MOL
REMARK 922        TOTAL FREE ENERGY PREDICTED BY IDOCK:   -6.27 KCAL/MOL
REMARK 923 INTER-LIGAND FREE ENERGY PREDICTED BY IDOCK:   -5.64 KCAL/MOL
REMARK 924 INTRA-LIGAND FREE ENERGY PREDICTED BY IDOCK:   -0.63 KCAL/MOL
REMARK 927      BINDING AFFINITY PREDICTED BY RF-SCORE:    0.00 PKD
ROOT
HETATM    1  C   UNL     1     -11.151  19.788  65.500  1.00  0.00     0.138 C  
HETATM    2  N   UNL     1      -9.924  19.217  66.032  1.00  0.00    -0.451 NA 
HETATM    3  H   UNL     1      -9.090  19.776  66.212  1.00  0.00     0.000 HD 
ENDROOT
BRANCH   2   4
HETATM    4  C   UNL     1      -9.978  17.835  66.279  1.00  0.00    -0.318 A  
HETATM    5  N   UNL     1     -10.391  17.002  65.306  1.00  0.00    -0.634 NA 
HETATM    6  C   UNL     1     -10.366  15.664  65.544  1.00  0.00    -0.396 A  
HETATM    7  C   UNL     1     -10.005  15.057  66.742  1.00  0.00    -0.254 A  
HETATM    8  C   UNL     1      -8.945  18.244  68.554  1.00  0.00    -0.329 C  
HETATM    9  C   UNL     1      -9.619  15.958  67.748  1.00  0.00    -0.218 A  
HETATM   10  C   UNL     1      -9.544  17.342  67.512  1.00  0.00    -0.257 A  
BRANCH   7  11
HETATM   11  C   UNL     1      -9.885  13.574  66.907  1.00  0.00    -0.257 A  
HETATM   12  C   UNL     1     -11.032  11.418  66.781  1.00  0.00    -0.347 A  
HETATM   13  C   UNL     1     -11.029  12.797  66.639  1.00  0.00    -0.300 A  
HETATM   14  C   UNL     1      -9.917  10.783  67.320  1.00  0.00    -0.219 A  
HETATM   15  C   UNL     1      -9.976   9.313  67.462  1.00  0.00    -0.202 C  
HETATM   16  C   UNL     1      -8.894   8.642  68.188  1.00  0.00    -0.142 C  
HETATM   17  O   UNL     1     -10.904   8.655  66.995  1.00  0.00    -0.197 OA 
HETATM   18  C   UNL     1      -7.895   9.418  68.635  1.00  0.00    -0.088 C  
HETATM   19  C   UNL     1      -8.881   7.189  68.461  1.00  0.00    -0.125 C  
HETATM   20  O   UNL     1      -9.909   6.505  67.918  1.00  0.00    -0.121 OA 
HETATM   21  O   UNL     1      -8.009   6.638  69.116  1.00  0.00    -0.108 OA 
HETATM   22  N   UNL     1      -7.734  10.785  68.434  1.00  0.00    -0.106 NA 
HETATM   23  C   UNL     1      -8.766  11.501  67.712  1.00  0.00    -0.142 A  
HETATM   24  C   UNL     1      -7.378  13.599  67.331  1.00  0.00    -0.127 C  
HETATM   25  C   UNL     1      -8.709  12.886  67.360  1.00  0.00    -0.197 A  
BRANCH  22  26
HETATM   26  C   UNL     1      -6.870  11.500  69.424  1.00  0.00    -0.099 C  
HETATM   27  C   UNL     1      -5.363  11.409  69.341  1.00  0.00    -0.044 C  
HETATM   28  C   UNL     1      -6.064  10.848  70.531  1.00  0.00    -0.102 C  
ENDBRANCH  22  26
ENDBRANCH   7  11
ENDBRANCH   2   4
TORSDOF 3
ENDMDL
MODEL       92
REMARK 921   NORMALIZED FREE ENERGY PREDICTED BY IDOCK:   -4.76 KCAL/MOL
REMARK 922        TOTAL FREE ENERGY PREDICTED BY IDOCK:   -6.27 KCAL/MOL
REMARK 923 INTER-LIGAND FREE ENERGY PREDICTED BY IDOCK:   -5.46 KCAL/MOL
REMARK 924 INTRA-LIGAND FREE ENERGY PREDICTED BY IDOCK:   -0.81 KCAL/MOL
REMARK 927      BINDING AFFINITY PREDICTED BY RF-SCORE:    0.00 PKD
ROOT
HETATM    1  C   UNL     1      -9.880   6.659  70.379  1.00  0.00    -0.175 C  
HETATM    2  N   UNL     1      -8.632   7.118  69.794  1.00  0.00    -0.140 NA 
HETATM    3  H   UNL     1      -7.805   6.525  69.725  1.00  0.00     0.000 HD 
ENDROOT
BRANCH   2   4
HETATM    4  C   UNL     1      -8.653   8.444  69.330  1.00  0.00    -0.129 A  
HETATM    5  N   UNL     1      -9.773   8.933  68.765  1.00  0.00    -0.161 NA 
HETATM    6  C   UNL     1      -9.792  10.239  68.390  1.00  0.00    -0.156 A  
HETATM    7  C   UNL     1      -8.726  11.128  68.478  1.00  0.00    -0.161 A  
HETATM    8  C   UNL     1      -6.325   8.767  70.274  1.00  0.00    -0.038 C  
HETATM    9  C   UNL     1      -7.561  10.574  69.033  1.00  0.00    -0.117 A  
HETATM   10  C   UNL     1      -7.529   9.253  69.518  1.00  0.00    -0.079 A  
BRANCH   7  11
HETATM   11  C   UNL     1      -8.845  12.585  68.157  1.00  0.00    -0.191 A  
HETATM   12  C   UNL     1      -8.674  14.872  69.007  1.00  0.00    -0.177 A  
HETATM   13  C   UNL     1      -8.574  13.502  69.193  1.00  0.00     0.518 A  
HETATM   14  C   UNL     1      -9.176  15.366  67.806  1.00  0.00    -0.183 A  
HETATM   15  C   UNL     1      -9.275  16.833  67.665  1.00  0.00    -0.223 C  
HETATM   16  C   UNL     1      -9.961  17.372  66.487  1.00  0.00    -0.314 C  
HETATM   17  O   UNL     1      -8.805  17.598  68.505  1.00  0.00    -0.280 OA 
HETATM   18  C   UNL     1     -10.415  16.480  65.592  1.00  0.00    -0.324 C  
HETATM   19  C   UNL     1     -10.192  18.817  66.274  1.00  0.00    -0.424 C  
HETATM   20  O   UNL     1      -9.646  19.618  67.212  1.00  0.00    -0.317 OA 
HETATM   21  O   UNL     1     -10.815  19.263  65.323  1.00  0.00    -0.503 OA 
HETATM   22  N   UNL     1     -10.251  15.100  65.620  1.00  0.00    -0.331 NA 
HETATM   23  C   UNL     1      -9.569  14.510  66.754  1.00  0.00    -0.263 A  
HETATM   24  C   UNL     1      -9.226  12.235  65.668  1.00  0.00     0.091 C  
HETATM   25  C   UNL     1      -9.257  13.121  66.890  1.00  0.00    -0.236 A  
BRANCH  22  26
HETATM   26  C   UNL     1     -11.246  14.302  64.839  1.00  0.00    -0.379 C  
HETATM   27  C   UNL     1     -12.524  14.937  64.339  1.00  0.00    -0.227 C  
HETATM   28  C   UNL     1     -12.600  13.836  65.342  1.00  0.00    -0.534 C  
ENDBRANCH  22  26
ENDBRANCH   7  11
ENDBRANCH   2   4
TORSDOF 3
ENDMDL
MODEL       93
REMARK 921   NORMALIZED FREE ENERGY PREDICTED BY IDOCK:   -4.71 KCAL/MOL
REMARK 922        TOTAL FREE ENERGY PREDICTED BY IDOCK:   -6.21 KCAL/MOL
REMARK 923 INTER-LIGAND FREE ENERGY PREDICTED BY IDOCK:   -5.54 KCAL/MOL
REMARK 924 INTRA-LIGAND FREE ENERGY PREDICTED BY IDOCK:   -0.67 KCAL/MOL
REMARK 927      BINDING AFFINITY PREDICTED BY RF-SCORE:    0.00 PKD
ROOT
HETATM    1  C   UNL     1     -10.443   2.798  74.074  1.00  0.00    -0.163 C  
HETATM    2  N   UNL     1      -9.320   3.707  73.916  1.00  0.00    -0.092 NA 
HETATM    3  H   UNL     1      -8.395   3.510  74.298  1.00  0.00     0.000 HD 
ENDROOT
BRANCH   2   4
HETATM    4  C   UNL     1      -9.609   4.877  73.195  1.00  0.00    -0.137 A  
HETATM    5  N   UNL     1     -10.029   5.975  73.851  1.00  0.00    -0.197 NA 
HETATM    6  C   UNL     1     -10.233   7.116  73.141  1.00  0.00    -0.276 A  
HETATM    7  C   UNL     1     -10.105   7.251  71.763  1.00  0.00    -0.193 A  
HETATM    8  C   UNL     1      -8.792   3.732  71.089  1.00  0.00    -0.135 C  
HETATM    9  C   UNL     1      -9.706   6.077  71.105  1.00  0.00    -0.206 A  
HETATM   10  C   UNL     1      -9.397   4.901  71.814  1.00  0.00    -0.185 A  
BRANCH   7  11
HETATM   11  C   UNL     1     -10.229   8.563  71.052  1.00  0.00    -0.255 A  
HETATM   12  C   UNL     1     -11.713  10.407  70.437  1.00  0.00    -0.419 A  
HETATM   13  C   UNL     1     -11.486   9.200  71.080  1.00  0.00    -0.388 A  
HETATM   14  C   UNL     1     -10.717  10.954  69.634  1.00  0.00    -0.232 A  
HETATM   15  C   UNL     1     -11.015  12.235  68.961  1.00  0.00    -0.201 C  
HETATM   16  C   UNL     1     -10.056  12.740  67.975  1.00  0.00    -0.230 C  
HETATM   17  O   UNL     1     -12.038  12.871  69.205  1.00  0.00    -0.266 OA 
HETATM   18  C   UNL     1      -8.942  12.014  67.789  1.00  0.00    -0.176 C  
HETATM   19  C   UNL     1     -10.280  13.967  67.181  1.00  0.00    -0.258 C  
HETATM   20  O   UNL     1     -11.406  14.640  67.492  1.00  0.00    -0.319 OA 
HETATM   21  O   UNL     1      -9.508  14.357  66.317  1.00  0.00    -0.290 OA 
HETATM   22  N   UNL     1      -8.560  10.865  68.473  1.00  0.00    -0.145 NA 
HETATM   23  C   UNL     1      -9.463  10.325  69.469  1.00  0.00    -0.185 A  
HETATM   24  C   UNL     1      -7.751   8.762  70.518  1.00  0.00    -0.089 C  
HETATM   25  C   UNL     1      -9.180   9.201  70.306  1.00  0.00    -0.249 A  
BRANCH  22  26
HETATM   26  C   UNL     1      -7.589   9.971  67.770  1.00  0.00    -0.090 C  
HETATM   27  C   UNL     1      -6.247  10.496  67.313  1.00  0.00    -0.058 C  
HETATM   28  C   UNL     1      -7.234  10.033  66.297  1.00  0.00    -0.106 C  
ENDBRANCH  22  26
ENDBRANCH   7  11
ENDBRANCH   2   4
TORSDOF 3
ENDMDL
MODEL       94
REMARK 921   NORMALIZED FREE ENERGY PREDICTED BY IDOCK:   -4.68 KCAL/MOL
REMARK 922        TOTAL FREE ENERGY PREDICTED BY IDOCK:   -6.18 KCAL/MOL
REMARK 923 INTER-LIGAND FREE ENERGY PREDICTED BY IDOCK:   -5.36 KCAL/MOL
REMARK 924 INTRA-LIGAND FREE ENERGY PREDICTED BY IDOCK:   -0.82 KCAL/MOL
REMARK 927      BINDING AFFINITY PREDICTED BY RF-SCORE:    0.00 PKD
ROOT
HETATM    1  C   UNL     1     -10.374   4.501  65.664  1.00  0.00    -0.247 C  
HETATM    2  N   UNL     1      -9.177   5.025  66.302  1.00  0.00    -0.138 NA 
HETATM    3  H   UNL     1      -8.437   4.423  66.662  1.00  0.00     0.000 HD 
ENDROOT
BRANCH   2   4
HETATM    4  C   UNL     1      -9.121   6.427  66.383  1.00  0.00    -0.154 A  
HETATM    5  N   UNL     1      -9.605   7.049  67.475  1.00  0.00    -0.128 NA 
HETATM    6  C   UNL     1      -9.474   8.399  67.563  1.00  0.00    -0.149 A  
HETATM    7  C   UNL     1      -8.931   9.229  66.588  1.00  0.00    -0.165 A  
HETATM    8  C   UNL     1      -7.837   6.460  64.201  1.00  0.00    -0.116 C  
HETATM    9  C   UNL     1      -8.475   8.552  65.446  1.00  0.00    -0.190 A  
HETATM   10  C   UNL     1      -8.509   7.148  65.356  1.00  0.00    -0.090 A  
BRANCH   7  11
HETATM   11  C   UNL     1      -8.708  10.695  66.792  1.00  0.00    -0.133 A  
HETATM   12  C   UNL     1      -7.061  12.467  67.154  1.00  0.00    -0.058 A  
HETATM   13  C   UNL     1      -7.377  11.134  66.940  1.00  0.00    -0.138 A  
HETATM   14  C   UNL     1      -8.084  13.390  67.354  1.00  0.00    -0.178 A  
HETATM   15  C   UNL     1      -7.694  14.795  67.592  1.00  0.00    -0.182 C  
HETATM   16  C   UNL     1      -8.736  15.749  67.980  1.00  0.00    -0.171 C  
HETATM   17  O   UNL     1      -6.529  15.171  67.476  1.00  0.00    -0.194 OA 
HETATM   18  C   UNL     1      -9.991  15.277  68.049  1.00  0.00    -0.224 C  
HETATM   19  C   UNL     1      -8.457  17.160  68.319  1.00  0.00    -0.236 C  
HETATM   20  O   UNL     1      -7.170  17.533  68.164  1.00  0.00    -0.202 OA 
HETATM   21  O   UNL     1      -9.317  17.941  68.700  1.00  0.00    -0.291 OA 
HETATM   22  N   UNL     1     -10.429  13.996  67.729  1.00  0.00    -0.234 NA 
HETATM   23  C   UNL     1      -9.445  13.013  67.325  1.00  0.00    -0.224 A  
HETATM   24  C   UNL     1     -11.136  11.346  66.411  1.00  0.00    -0.301 C  
HETATM   25  C   UNL     1      -9.745  11.683  66.894  1.00  0.00    -0.211 A  
BRANCH  22  26
HETATM   26  C   UNL     1     -11.716  13.564  68.357  1.00  0.00    -0.358 C  
HETATM   27  C   UNL     1     -12.293  14.318  69.533  1.00  0.00    -0.272 C  
HETATM   28  C   UNL     1     -11.861  12.903  69.714  1.00  0.00    -0.380 C  
ENDBRANCH  22  26
ENDBRANCH   7  11
ENDBRANCH   2   4
TORSDOF 3
ENDMDL
MODEL       95
REMARK 921   NORMALIZED FREE ENERGY PREDICTED BY IDOCK:   -4.68 KCAL/MOL
REMARK 922        TOTAL FREE ENERGY PREDICTED BY IDOCK:   -6.18 KCAL/MOL
REMARK 923 INTER-LIGAND FREE ENERGY PREDICTED BY IDOCK:   -5.73 KCAL/MOL
REMARK 924 INTRA-LIGAND FREE ENERGY PREDICTED BY IDOCK:   -0.46 KCAL/MOL
REMARK 927      BINDING AFFINITY PREDICTED BY RF-SCORE:    0.00 PKD
ROOT
HETATM    1  C   UNL     1     -11.398  16.283  68.958  1.00  0.00    -0.301 C  
HETATM    2  N   UNL     1     -12.038  15.022  69.293  1.00  0.00    -0.506 NA 
HETATM    3  H   UNL     1     -12.776  14.949  69.994  1.00  0.00     0.000 HD 
ENDROOT
BRANCH   2   4
HETATM    4  C   UNL     1     -11.561  13.912  68.577  1.00  0.00    -0.332 A  
HETATM    5  N   UNL     1     -10.924  14.100  67.406  1.00  0.00    -0.293 NA 
HETATM    6  C   UNL     1     -10.408  13.017  66.767  1.00  0.00    -0.254 A  
HETATM    7  C   UNL     1     -10.527  11.695  67.181  1.00  0.00    -0.252 A  
HETATM    8  C   UNL     1     -12.280  12.420  70.492  1.00  0.00    -0.382 C  
HETATM    9  C   UNL     1     -11.233  11.531  68.384  1.00  0.00    -0.314 A  
HETATM   10  C   UNL     1     -11.702  12.633  69.121  1.00  0.00    -0.375 A  
BRANCH   7  11
HETATM   11  C   UNL     1      -9.837  10.557  66.497  1.00  0.00    -0.255 A  
HETATM   12  C   UNL     1      -9.139   9.594  64.359  1.00  0.00    -0.279 A  
HETATM   13  C   UNL     1      -9.740  10.606  65.091  1.00  0.00    -0.327 A  
HETATM   14  C   UNL     1      -8.727   8.433  65.006  1.00  0.00    -0.092 A  
HETATM   15  C   UNL     1      -8.105   7.379  64.177  1.00  0.00    -0.046 C  
HETATM   16  C   UNL     1      -7.825   6.082  64.799  1.00  0.00    -0.111 C  
HETATM   17  O   UNL     1      -7.827   7.566  62.994  1.00  0.00    -0.129 OA 
HETATM   18  C   UNL     1      -8.118   5.962  66.103  1.00  0.00    -0.109 C  
HETATM   19  C   UNL     1      -7.278   4.928  64.055  1.00  0.00    -0.050 C  
HETATM   20  O   UNL     1      -6.974   5.183  62.765  1.00  0.00    -0.032 OA 
HETATM   21  O   UNL     1      -7.099   3.829  64.558  1.00  0.00    -0.055 OA 
HETATM   22  N   UNL     1      -8.598   6.952  66.954  1.00  0.00    -0.114 NA 
HETATM   23  C   UNL     1      -8.882   8.259  66.399  1.00  0.00    -0.152 A  
HETATM   24  C   UNL     1      -9.069   9.437  68.647  1.00  0.00    -0.132 C  
HETATM   25  C   UNL     1      -9.306   9.396  67.155  1.00  0.00    -0.172 A  
BRANCH  22  26
HETATM   26  C   UNL     1      -9.319   6.478  68.176  1.00  0.00    -0.109 C  
HETATM   27  C   UNL     1      -9.715   5.026  68.325  1.00  0.00    -0.200 C  
HETATM   28  C   UNL     1     -10.778   6.067  68.241  1.00  0.00    -0.352 C  
ENDBRANCH  22  26
ENDBRANCH   7  11
ENDBRANCH   2   4
TORSDOF 3
ENDMDL
MODEL       96
REMARK 921   NORMALIZED FREE ENERGY PREDICTED BY IDOCK:   -4.64 KCAL/MOL
REMARK 922        TOTAL FREE ENERGY PREDICTED BY IDOCK:   -6.14 KCAL/MOL
REMARK 923 INTER-LIGAND FREE ENERGY PREDICTED BY IDOCK:   -5.37 KCAL/MOL
REMARK 924 INTRA-LIGAND FREE ENERGY PREDICTED BY IDOCK:   -0.77 KCAL/MOL
REMARK 927      BINDING AFFINITY PREDICTED BY RF-SCORE:    0.00 PKD
ROOT
HETATM    1  C   UNL     1      -7.425   2.628  63.114  1.00  0.00    -0.060 C  
HETATM    2  N   UNL     1      -7.031   2.494  64.507  1.00  0.00    -0.047 NA 
HETATM    3  H   UNL     1      -6.371   1.784  64.827  1.00  0.00     0.000 HD 
ENDROOT
BRANCH   2   4
HETATM    4  C   UNL     1      -7.629   3.419  65.379  1.00  0.00    -0.077 A  
HETATM    5  N   UNL     1      -8.846   3.916  65.087  1.00  0.00    -0.122 NA 
HETATM    6  C   UNL     1      -9.435   4.754  65.981  1.00  0.00    -0.165 A  
HETATM    7  C   UNL     1      -8.869   5.206  67.168  1.00  0.00    -0.109 A  
HETATM    8  C   UNL     1      -5.689   3.106  66.975  1.00  0.00    -0.022 C  
HETATM    9  C   UNL     1      -7.584   4.701  67.420  1.00  0.00    -0.085 A  
HETATM   10  C   UNL     1      -6.978   3.761  66.566  1.00  0.00    -0.059 A  
BRANCH   7  11
HETATM   11  C   UNL     1      -9.614   6.035  68.167  1.00  0.00    -0.122 A  
HETATM   12  C   UNL     1     -11.380   6.075  69.859  1.00  0.00    -0.355 A  
HETATM   13  C   UNL     1     -10.618   5.395  68.922  1.00  0.00    -0.197 A  
HETATM   14  C   UNL     1     -11.246   7.455  69.979  1.00  0.00    -0.200 A  
HETATM   15  C   UNL     1     -12.092   8.133  70.984  1.00  0.00    -0.207 C  
HETATM   16  C   UNL     1     -12.100   9.598  71.008  1.00  0.00    -0.421 C  
HETATM   17  O   UNL     1     -12.781   7.501  71.782  1.00  0.00    -0.322 OA 
HETATM   18  C   UNL     1     -11.294  10.221  70.134  1.00  0.00    -0.316 C  
HETATM   19  C   UNL     1     -12.962  10.389  71.912  1.00  0.00    -0.450 C  
HETATM   20  O   UNL     1     -13.689   9.656  72.780  1.00  0.00    -0.228 OA 
HETATM   21  O   UNL     1     -13.013  11.609  71.892  1.00  0.00    -0.427 OA 
HETATM   22  N   UNL     1     -10.398   9.634  69.247  1.00  0.00    -0.199 NA 
HETATM   23  C   UNL     1     -10.336   8.188  69.187  1.00  0.00    -0.220 A  
HETATM   24  C   UNL     1      -8.157   8.098  67.877  1.00  0.00    -0.128 C  
HETATM   25  C   UNL     1      -9.418   7.441  68.386  1.00  0.00    -0.143 A  
BRANCH  22  26
HETATM   26  C   UNL     1     -10.013  10.457  68.058  1.00  0.00    -0.155 C  
HETATM   27  C   UNL     1      -9.905  11.961  68.163  1.00  0.00    -0.192 C  
HETATM   28  C   UNL     1     -10.939  11.363  67.270  1.00  0.00    -0.336 C  
ENDBRANCH  22  26
ENDBRANCH   7  11
ENDBRANCH   2   4
TORSDOF 3
ENDMDL
MODEL       97
REMARK 921   NORMALIZED FREE ENERGY PREDICTED BY IDOCK:   -4.62 KCAL/MOL
REMARK 922        TOTAL FREE ENERGY PREDICTED BY IDOCK:   -6.11 KCAL/MOL
REMARK 923 INTER-LIGAND FREE ENERGY PREDICTED BY IDOCK:   -5.48 KCAL/MOL
REMARK 924 INTRA-LIGAND FREE ENERGY PREDICTED BY IDOCK:   -0.63 KCAL/MOL
REMARK 927      BINDING AFFINITY PREDICTED BY RF-SCORE:    0.00 PKD
ROOT
HETATM    1  C   UNL     1     -10.103  17.605  66.244  1.00  0.00    -0.341 C  
HETATM    2  N   UNL     1     -10.395  16.352  65.569  1.00  0.00    -0.544 NA 
HETATM    3  H   UNL     1     -10.905  16.308  64.686  1.00  0.00     0.000 HD 
ENDROOT
BRANCH   2   4
HETATM    4  C   UNL     1      -9.921  15.205  66.228  1.00  0.00    -0.288 A  
HETATM    5  N   UNL     1      -9.222  15.337  67.371  1.00  0.00    -0.192 NA 
HETATM    6  C   UNL     1      -8.836  14.211  68.028  1.00  0.00    -0.182 A  
HETATM    7  C   UNL     1      -9.045  12.905  67.597  1.00  0.00    -0.194 A  
HETATM    8  C   UNL     1     -11.136  13.777  64.527  1.00  0.00    -0.388 C  
HETATM    9  C   UNL     1      -9.740  12.806  66.382  1.00  0.00    -0.261 A  
HETATM   10  C   UNL     1     -10.236  13.943  65.719  1.00  0.00    -0.331 A  
BRANCH   7  11
HETATM   11  C   UNL     1      -8.700  11.705  68.423  1.00  0.00    -0.158 A  
HETATM   12  C   UNL     1      -6.970  10.561  69.720  1.00  0.00    -0.144 A  
HETATM   13  C   UNL     1      -7.398  11.639  68.960  1.00  0.00    -0.074 A  
HETATM   14  C   UNL     1      -7.797   9.451  69.861  1.00  0.00    -0.126 A  
HETATM   15  C   UNL     1      -7.288   8.324  70.671  1.00  0.00    -0.057 C  
HETATM   16  C   UNL     1      -8.059   7.078  70.688  1.00  0.00    -0.117 C  
HETATM   17  O   UNL     1      -6.244   8.411  71.315  1.00  0.00    -0.035 OA 
HETATM   18  C   UNL     1      -9.208   7.069  69.994  1.00  0.00    -0.148 C  
HETATM   19  C   UNL     1      -7.613   5.859  71.396  1.00  0.00    -0.098 C  
HETATM   20  O   UNL     1      -6.472   6.004  72.101  1.00  0.00    -0.054 OA 
HETATM   21  O   UNL     1      -8.226   4.803  71.363  1.00  0.00    -0.099 OA 
HETATM   22  N   UNL     1      -9.787   8.132  69.309  1.00  0.00    -0.178 NA 
HETATM   23  C   UNL     1      -9.078   9.394  69.267  1.00  0.00    -0.152 A  
HETATM   24  C   UNL     1     -11.058  10.753  68.427  1.00  0.00    -0.323 C  
HETATM   25  C   UNL     1      -9.576  10.594  68.672  1.00  0.00    -0.179 A  
BRANCH  22  26
HETATM   26  C   UNL     1     -10.748   7.769  68.221  1.00  0.00    -0.036 C  
HETATM   27  C   UNL     1     -10.970   6.324  67.837  1.00  0.00    -0.421 C  
HETATM   28  C   UNL     1     -10.374   7.261  66.842  1.00  0.00    -0.358 C  
ENDBRANCH  22  26
ENDBRANCH   7  11
ENDBRANCH   2   4
TORSDOF 3
ENDMDL
MODEL       98
REMARK 921   NORMALIZED FREE ENERGY PREDICTED BY IDOCK:   -4.60 KCAL/MOL
REMARK 922        TOTAL FREE ENERGY PREDICTED BY IDOCK:   -6.08 KCAL/MOL
REMARK 923 INTER-LIGAND FREE ENERGY PREDICTED BY IDOCK:   -5.23 KCAL/MOL
REMARK 924 INTRA-LIGAND FREE ENERGY PREDICTED BY IDOCK:   -0.86 KCAL/MOL
REMARK 927      BINDING AFFINITY PREDICTED BY RF-SCORE:    0.00 PKD
ROOT
HETATM    1  C   UNL     1      -7.278   4.689  65.814  1.00  0.00    -0.076 C  
HETATM    2  N   UNL     1      -8.399   5.101  66.641  1.00  0.00    -0.108 NA 
HETATM    3  H   UNL     1      -9.023   4.434  67.097  1.00  0.00     0.000 HD 
ENDROOT
BRANCH   2   4
HETATM    4  C   UNL     1      -8.558   6.492  66.765  1.00  0.00    -0.117 A  
HETATM    5  N   UNL     1      -7.496   7.300  66.586  1.00  0.00    -0.087 NA 
HETATM    6  C   UNL     1      -7.689   8.645  66.640  1.00  0.00    -0.096 A  
HETATM    7  C   UNL     1      -8.891   9.284  66.926  1.00  0.00    -0.141 A  
HETATM    8  C   UNL     1     -11.047   6.138  67.069  1.00  0.00    -0.332 C  
HETATM    9  C   UNL     1      -9.967   8.410  67.148  1.00  0.00    -0.304 A  
HETATM   10  C   UNL     1      -9.829   7.017  67.011  1.00  0.00    -0.239 A  
BRANCH   7  11
HETATM   11  C   UNL     1      -9.067  10.769  66.854  1.00  0.00    -0.160 A  
HETATM   12  C   UNL     1      -9.912  12.653  65.544  1.00  0.00    -0.237 A  
HETATM   13  C   UNL     1      -9.717  11.291  65.718  1.00  0.00    -0.263 A  
HETATM   14  C   UNL     1      -9.346  13.547  66.447  1.00  0.00    -0.191 A  
HETATM   15  C   UNL     1      -9.573  14.988  66.208  1.00  0.00    -0.307 C  
HETATM   16  C   UNL     1      -8.845  15.952  67.037  1.00  0.00    -0.240 C  
HETATM   17  O   UNL     1     -10.345  15.385  65.338  1.00  0.00    -0.345 OA 
HETATM   18  C   UNL     1      -8.050  15.447  67.994  1.00  0.00    -0.140 C  
HETATM   19  C   UNL     1      -8.929  17.415  66.842  1.00  0.00    -0.245 C  
HETATM   20  O   UNL     1      -9.798  17.806  65.888  1.00  0.00    -0.524 OA 
HETATM   21  O   UNL     1      -8.277  18.217  67.494  1.00  0.00    -0.233 OA 
HETATM   22  N   UNL     1      -7.886  14.108  68.334  1.00  0.00    -0.135 NA 
HETATM   23  C   UNL     1      -8.591  13.109  67.558  1.00  0.00    -0.196 A  
HETATM   24  C   UNL     1      -8.200  11.209  69.204  1.00  0.00    -0.007 C  
HETATM   25  C   UNL     1      -8.585  11.706  67.830  1.00  0.00    -0.150 A  
BRANCH  22  26
HETATM   26  C   UNL     1      -6.614  13.758  69.039  1.00  0.00    -0.108 C  
HETATM   27  C   UNL     1      -6.087  14.626  70.159  1.00  0.00    -0.158 C  
HETATM   28  C   UNL     1      -5.295  14.495  68.903  1.00  0.00    -0.088 C  
ENDBRANCH  22  26
ENDBRANCH   7  11
ENDBRANCH   2   4
TORSDOF 3
ENDMDL
MODEL       99
REMARK 921   NORMALIZED FREE ENERGY PREDICTED BY IDOCK:   -4.59 KCAL/MOL
REMARK 922        TOTAL FREE ENERGY PREDICTED BY IDOCK:   -6.08 KCAL/MOL
REMARK 923 INTER-LIGAND FREE ENERGY PREDICTED BY IDOCK:   -5.42 KCAL/MOL
REMARK 924 INTRA-LIGAND FREE ENERGY PREDICTED BY IDOCK:   -0.66 KCAL/MOL
REMARK 927      BINDING AFFINITY PREDICTED BY RF-SCORE:    0.00 PKD
ROOT
HETATM    1  C   UNL     1     -11.936  14.537  64.518  1.00  0.00    -0.468 C  
HETATM    2  N   UNL     1     -12.176  14.167  65.903  1.00  0.00    -0.432 NA 
HETATM    3  H   UNL     1     -12.626  14.794  66.571  1.00  0.00     0.000 HD 
ENDROOT
BRANCH   2   4
HETATM    4  C   UNL     1     -11.738  12.879  66.251  1.00  0.00    -0.399 A  
HETATM    5  N   UNL     1     -11.306  12.041  65.290  1.00  0.00    -0.327 NA 
HETATM    6  C   UNL     1     -10.820  10.826  65.658  1.00  0.00     0.006 A  
HETATM    7  C   UNL     1     -10.779  10.326  66.955  1.00  0.00    -0.281 A  
HETATM    8  C   UNL     1     -12.043  13.480  68.692  1.00  0.00    -0.303 C  
HETATM    9  C   UNL     1     -11.276  11.208  67.927  1.00  0.00    -0.365 A  
HETATM   10  C   UNL     1     -11.702  12.508  67.598  1.00  0.00    -0.423 A  
BRANCH   7  11
HETATM   11  C   UNL     1     -10.124   9.028  67.312  1.00  0.00    -0.297 A  
HETATM   12  C   UNL     1      -9.978   6.631  66.845  1.00  0.00    -0.238 A  
HETATM   13  C   UNL     1     -10.507   7.885  66.581  1.00  0.00    -0.193 A  
HETATM   14  C   UNL     1      -9.137   6.460  67.941  1.00  0.00    -0.112 A  
HETATM   15  C   UNL     1      -8.611   5.101  68.186  1.00  0.00    -0.102 C  
HETATM   16  C   UNL     1      -7.872   4.856  69.428  1.00  0.00    -0.071 C  
HETATM   17  O   UNL     1      -8.783   4.186  67.383  1.00  0.00    -0.103 OA 
HETATM   18  C   UNL     1      -7.688   5.910  70.238  1.00  0.00    -0.096 C  
HETATM   19  C   UNL     1      -7.365   3.524  69.820  1.00  0.00    -0.045 C  
HETATM   20  O   UNL     1      -7.563   2.555  68.904  1.00  0.00    -0.047 OA 
HETATM   21  O   UNL     1      -6.800   3.308  70.882  1.00  0.00    -0.031 OA 
HETATM   22  N   UNL     1      -8.063   7.229  70.005  1.00  0.00    -0.127 NA 
HETATM   23  C   UNL     1      -8.786   7.534  68.788  1.00  0.00    -0.128 A  
HETATM   24  C   UNL     1      -8.473  10.054  68.951  1.00  0.00    -0.132 C  
HETATM   25  C   UNL     1      -9.171   8.847  68.371  1.00  0.00    -0.140 A  
BRANCH  22  26
HETATM   26  C   UNL     1      -8.224   8.093  71.216  1.00  0.00    -0.116 C  
HETATM   27  C   UNL     1      -8.328   7.479  72.594  1.00  0.00    -0.146 C  
HETATM   28  C   UNL     1      -9.488   8.235  72.041  1.00  0.00    -0.304 C  
ENDBRANCH  22  26
ENDBRANCH   7  11
ENDBRANCH   2   4
TORSDOF 3
ENDMDL
MODEL      100
REMARK 921   NORMALIZED FREE ENERGY PREDICTED BY IDOCK:   -4.49 KCAL/MOL
REMARK 922        TOTAL FREE ENERGY PREDICTED BY IDOCK:   -5.95 KCAL/MOL
REMARK 923 INTER-LIGAND FREE ENERGY PREDICTED BY IDOCK:   -5.08 KCAL/MOL
REMARK 924 INTRA-LIGAND FREE ENERGY PREDICTED BY IDOCK:   -0.87 KCAL/MOL
REMARK 927      BINDING AFFINITY PREDICTED BY RF-SCORE:    0.00 PKD
ROOT
HETATM    1  C   UNL     1      -6.165   5.254  66.282  1.00  0.00    -0.031 C  
HETATM    2  N   UNL     1      -7.468   5.651  66.789  1.00  0.00    -0.086 NA 
HETATM    3  H   UNL     1      -8.220   4.983  66.958  1.00  0.00     0.000 HD 
ENDROOT
BRANCH   2   4
HETATM    4  C   UNL     1      -7.611   7.028  67.028  1.00  0.00    -0.102 A  
HETATM    5  N   UNL     1      -6.635   7.874  66.647  1.00  0.00    -0.057 NA 
HETATM    6  C   UNL     1      -6.827   9.208  66.823  1.00  0.00    -0.080 A  
HETATM    7  C   UNL     1      -7.932   9.798  67.426  1.00  0.00    -0.102 A  
HETATM    8  C   UNL     1      -9.948   6.592  67.900  1.00  0.00    -0.152 C  
HETATM    9  C   UNL     1      -8.912   8.885  67.849  1.00  0.00    -0.142 A  
HETATM   10  C   UNL     1      -8.792   7.505  67.602  1.00  0.00    -0.128 A  
BRANCH   7  11
HETATM   11  C   UNL     1      -8.140  11.279  67.486  1.00  0.00    -0.124 A  
HETATM   12  C   UNL     1      -7.765  13.333  68.760  1.00  0.00    -0.022 A  
HETATM   13  C   UNL     1      -7.610  11.965  68.598  1.00  0.00    -0.119 A  
HETATM   14  C   UNL     1      -8.569  14.042  67.873  1.00  0.00    -0.181 A  
HETATM   15  C   UNL     1      -8.711  15.495  68.098  1.00  0.00    -0.164 C  
HETATM   16  C   UNL     1      -9.687  16.231  67.290  1.00  0.00    -0.237 C  
HETATM   17  O   UNL     1      -8.039  16.088  68.941  1.00  0.00    -0.189 OA 
HETATM   18  C   UNL     1     -10.356  15.528  66.363  1.00  0.00    -0.296 C  
HETATM   19  C   UNL     1      -9.974  17.669  67.477  1.00  0.00    -0.322 C  
HETATM   20  O   UNL     1      -9.205  18.281  68.400  1.00  0.00    -0.301 OA 
HETATM   21  O   UNL     1     -10.830  18.269  66.844  1.00  0.00    -0.306 OA 
HETATM   22  N   UNL     1     -10.182  14.187  66.034  1.00  0.00    -0.297 NA 
HETATM   23  C   UNL     1      -9.221  13.411  66.790  1.00  0.00    -0.236 A  
HETATM   24  C   UNL     1      -9.165  11.454  65.165  1.00  0.00    -0.119 C  
HETATM   25  C   UNL     1      -8.876  12.050  66.523  1.00  0.00    -0.172 A  
BRANCH  22  26
HETATM   26  C   UNL     1     -11.344  13.515  65.374  1.00  0.00    -0.289 C  
HETATM   27  C   UNL     1     -12.341  14.314  64.565  1.00  0.00    -0.432 C  
HETATM   28  C   UNL     1     -12.794  13.624  65.807  1.00  0.00    -0.390 C  
ENDBRANCH  22  26
ENDBRANCH   7  11
ENDBRANCH   2   4
TORSDOF 3
ENDMDL
MODEL      101
REMARK 921   NORMALIZED FREE ENERGY PREDICTED BY IDOCK:   -4.40 KCAL/MOL
REMARK 922        TOTAL FREE ENERGY PREDICTED BY IDOCK:   -5.85 KCAL/MOL
REMARK 923 INTER-LIGAND FREE ENERGY PREDICTED BY IDOCK:   -5.03 KCAL/MOL
REMARK 924 INTRA-LIGAND FREE ENERGY PREDICTED BY IDOCK:   -0.82 KCAL/MOL
REMARK 927      BINDING AFFINITY PREDICTED BY RF-SCORE:    0.00 PKD
ROOT
HETATM    1  C   UNL     1     -12.148  15.533  64.391  1.00  0.00    -0.139 C  
HETATM    2  N   UNL     1     -10.703  15.375  64.432  1.00  0.00    -0.606 NA 
HETATM    3  H   UNL     1     -10.066  16.009  63.949  1.00  0.00     0.000 HD 
ENDROOT
BRANCH   2   4
HETATM    4  C   UNL     1     -10.254  14.280  65.188  1.00  0.00    -0.385 A  
HETATM    5  N   UNL     1     -10.493  13.029  64.753  1.00  0.00    -0.346 NA 
HETATM    6  C   UNL     1      -9.986  11.987  65.464  1.00  0.00    -0.241 A  
HETATM    7  C   UNL     1      -9.277  12.084  66.657  1.00  0.00    -0.211 A  
HETATM    8  C   UNL     1      -9.112  15.895  66.769  1.00  0.00    -0.275 C  
HETATM    9  C   UNL     1      -9.082  13.400  67.103  1.00  0.00    -0.235 A  
HETATM   10  C   UNL     1      -9.511  14.508  66.349  1.00  0.00    -0.316 A  
BRANCH   7  11
HETATM   11  C   UNL     1      -8.643  10.908  67.331  1.00  0.00    -0.127 A  
HETATM   12  C   UNL     1      -6.769   9.336  67.336  1.00  0.00    -0.069 A  
HETATM   13  C   UNL     1      -7.428  10.431  66.799  1.00  0.00    -0.110 A  
HETATM   14  C   UNL     1      -7.376   8.601  68.349  1.00  0.00    -0.086 A  
HETATM   15  C   UNL     1      -6.638   7.434  68.877  1.00  0.00    -0.048 C  
HETATM   16  C   UNL     1      -7.326   6.543  69.815  1.00  0.00    -0.079 C  
HETATM   17  O   UNL     1      -5.477   7.200  68.545  1.00  0.00    -0.019 OA 
HETATM   18  C   UNL     1      -8.577   6.883  70.163  1.00  0.00    -0.141 C  
HETATM   19  C   UNL     1      -6.720   5.305  70.349  1.00  0.00    -0.043 C  
HETATM   20  O   UNL     1      -5.443   5.095  69.971  1.00  0.00    -0.010 OA 
HETATM   21  O   UNL     1      -7.314   4.532  71.085  1.00  0.00    -0.046 OA 
HETATM   22  N   UNL     1      -9.276   8.024  69.785  1.00  0.00    -0.149 NA 
HETATM   23  C   UNL     1      -8.642   8.950  68.869  1.00  0.00    -0.135 A  
HETATM   24  C   UNL     1     -10.291  10.846  69.267  1.00  0.00    -0.211 C  
HETATM   25  C   UNL     1      -9.199  10.198  68.449  1.00  0.00    -0.133 A  
BRANCH  22  26
HETATM   26  C   UNL     1     -10.768   7.937  69.859  1.00  0.00    -0.244 C  
HETATM   27  C   UNL     1     -11.447   7.290  71.045  1.00  0.00    -0.316 C  
HETATM   28  C   UNL     1     -11.591   6.674  69.695  1.00  0.00    -0.305 C  
ENDBRANCH  22  26
ENDBRANCH   7  11
ENDBRANCH   2   4
TORSDOF 3
ENDMDL
MODEL      102
REMARK 921   NORMALIZED FREE ENERGY PREDICTED BY IDOCK:   -4.35 KCAL/MOL
REMARK 922        TOTAL FREE ENERGY PREDICTED BY IDOCK:   -5.79 KCAL/MOL
REMARK 923 INTER-LIGAND FREE ENERGY PREDICTED BY IDOCK:   -5.82 KCAL/MOL
REMARK 924 INTRA-LIGAND FREE ENERGY PREDICTED BY IDOCK:    0.03 KCAL/MOL
REMARK 927      BINDING AFFINITY PREDICTED BY RF-SCORE:    0.00 PKD
ROOT
HETATM    1  C   UNL     1      -6.388   6.348  71.831  1.00  0.00    -0.043 C  
HETATM    2  N   UNL     1      -6.010   7.749  71.901  1.00  0.00    -0.035 NA 
HETATM    3  H   UNL     1      -5.328   8.103  72.573  1.00  0.00     0.000 HD 
ENDROOT
BRANCH   2   4
HETATM    4  C   UNL     1      -6.657   8.579  70.970  1.00  0.00    -0.048 A  
HETATM    5  N   UNL     1      -7.710   8.106  70.278  1.00  0.00    -0.083 NA 
HETATM    6  C   UNL     1      -8.365   8.950  69.436  1.00  0.00    -0.112 A  
HETATM    7  C   UNL     1      -8.011  10.268  69.168  1.00  0.00    -0.135 A  
HETATM    8  C   UNL     1      -5.156  10.487  71.691  1.00  0.00    -0.058 C  
HETATM    9  C   UNL     1      -6.884  10.715  69.875  1.00  0.00    -0.149 A  
HETATM   10  C   UNL     1      -6.235   9.903  70.823  1.00  0.00    -0.093 A  
BRANCH   7  11
HETATM   11  C   UNL     1      -8.839  11.182  68.321  1.00  0.00    -0.155 A  
HETATM   12  C   UNL     1     -10.649  11.351  66.684  1.00  0.00    -0.302 A  
HETATM   13  C   UNL     1      -9.841  10.597  67.520  1.00  0.00    -0.194 A  
HETATM   14  C   UNL     1     -10.394  12.710  66.528  1.00  0.00    -0.256 A  
HETATM   15  C   UNL     1     -11.277  13.466  65.615  1.00  0.00    -0.292 C  
HETATM   16  C   UNL     1     -10.923  14.852  65.297  1.00  0.00    -0.389 C  
HETATM   17  O   UNL     1     -12.283  12.960  65.123  1.00  0.00    -0.415 OA 
HETATM   18  C   UNL     1      -9.834  15.351  65.902  1.00  0.00    -0.356 C  
HETATM   19  C   UNL     1     -11.683  15.683  64.339  1.00  0.00    -0.218 C  
HETATM   20  O   UNL     1     -12.786  15.093  63.835  1.00  0.00    -0.759 OA 
HETATM   21  O   UNL     1     -11.354  16.818  64.028  1.00  0.00    -1.153 OA 
HETATM   22  N   UNL     1      -9.034  14.723  66.851  1.00  0.00    -0.240 NA 
HETATM   23  C   UNL     1      -9.342  13.356  67.216  1.00  0.00    -0.233 A  
HETATM   24  C   UNL     1      -7.865  13.323  69.287  1.00  0.00     0.488 C  
HETATM   25  C   UNL     1      -8.664  12.605  68.226  1.00  0.00    -0.169 A  
BRANCH  22  26
HETATM   26  C   UNL     1      -7.638  15.244  66.985  1.00  0.00    -0.126 C  
HETATM   27  C   UNL     1      -7.322  16.369  67.946  1.00  0.00    -0.146 C  
HETATM   28  C   UNL     1      -7.141  16.586  66.482  1.00  0.00    -0.148 C  
ENDBRANCH  22  26
ENDBRANCH   7  11
ENDBRANCH   2   4
TORSDOF 3
ENDMDL
MODEL      103
REMARK 921   NORMALIZED FREE ENERGY PREDICTED BY IDOCK:   -4.32 KCAL/MOL
REMARK 922        TOTAL FREE ENERGY PREDICTED BY IDOCK:   -5.75 KCAL/MOL
REMARK 923 INTER-LIGAND FREE ENERGY PREDICTED BY IDOCK:   -4.87 KCAL/MOL
REMARK 924 INTRA-LIGAND FREE ENERGY PREDICTED BY IDOCK:   -0.88 KCAL/MOL
REMARK 927      BINDING AFFINITY PREDICTED BY RF-SCORE:    0.00 PKD
ROOT
HETATM    1  C   UNL     1     -11.086   5.488  72.763  1.00  0.00    -0.291 C  
HETATM    2  N   UNL     1     -11.743   5.635  71.475  1.00  0.00     0.134 NA 
HETATM    3  H   UNL     1     -12.304   4.894  71.055  1.00  0.00     0.000 HD 
ENDROOT
BRANCH   2   4
HETATM    4  C   UNL     1     -11.543   6.879  70.853  1.00  0.00    -0.337 A  
HETATM    5  N   UNL     1     -12.032   7.995  71.426  1.00  0.00    -0.293 NA 
HETATM    6  C   UNL     1     -11.765   9.193  70.843  1.00  0.00    -0.284 A  
HETATM    7  C   UNL     1     -11.071   9.383  69.653  1.00  0.00    -0.163 A  
HETATM    8  C   UNL     1     -10.115   5.729  69.106  1.00  0.00    -0.257 C  
HETATM    9  C   UNL     1     -10.612   8.196  69.061  1.00  0.00    -0.167 A  
HETATM   10  C   UNL     1     -10.788   6.945  69.679  1.00  0.00    -0.294 A  
BRANCH   7  11
HETATM   11  C   UNL     1     -10.707  10.735  69.123  1.00  0.00    -0.265 A  
HETATM   12  C   UNL     1     -11.506  12.767  68.021  1.00  0.00    -0.364 A  
HETATM   13  C   UNL     1     -11.740  11.510  68.559  1.00  0.00    -0.379 A  
HETATM   14  C   UNL     1     -10.200  13.235  67.915  1.00  0.00    -0.233 A  
HETATM   15  C   UNL     1     -10.005  14.574  67.322  1.00  0.00    -0.236 C  
HETATM   16  C   UNL     1      -8.637  15.015  67.038  1.00  0.00    -0.266 C  
HETATM   17  O   UNL     1     -10.955  15.311  67.063  1.00  0.00    -0.322 OA 
HETATM   18  C   UNL     1      -7.648  14.175  67.383  1.00  0.00    -0.158 C  
HETATM   19  C   UNL     1      -8.320  16.298  66.375  1.00  0.00    -0.330 C  
HETATM   20  O   UNL     1      -9.389  17.080  66.123  1.00  0.00    -0.373 OA 
HETATM   21  O   UNL     1      -7.183  16.639  66.085  1.00  0.00    -0.127 OA 
HETATM   22  N   UNL     1      -7.769  12.957  68.043  1.00  0.00    -0.129 NA 
HETATM   23  C   UNL     1      -9.097  12.475  68.362  1.00  0.00    -0.135 A  
HETATM   24  C   UNL     1      -8.313  10.673  69.979  1.00  0.00     0.549 C  
HETATM   25  C   UNL     1      -9.380  11.284  69.102  1.00  0.00     0.082 A  
BRANCH  22  26
HETATM   26  C   UNL     1      -6.639  11.993  67.859  1.00  0.00    -0.076 C  
HETATM   27  C   UNL     1      -5.474  12.332  66.958  1.00  0.00    -0.020 C  
HETATM   28  C   UNL     1      -6.359  11.185  66.607  1.00  0.00    -0.134 C  
ENDBRANCH  22  26
ENDBRANCH   7  11
ENDBRANCH   2   4
TORSDOF 3
ENDMDL
MODEL      104
REMARK 921   NORMALIZED FREE ENERGY PREDICTED BY IDOCK:   -4.31 KCAL/MOL
REMARK 922        TOTAL FREE ENERGY PREDICTED BY IDOCK:   -5.74 KCAL/MOL
REMARK 923 INTER-LIGAND FREE ENERGY PREDICTED BY IDOCK:   -4.94 KCAL/MOL
REMARK 924 INTRA-LIGAND FREE ENERGY PREDICTED BY IDOCK:   -0.80 KCAL/MOL
REMARK 927      BINDING AFFINITY PREDICTED BY RF-SCORE:    0.00 PKD
ROOT
HETATM    1  C   UNL     1      -5.868   5.205  63.373  1.00  0.00    -0.017 C  
HETATM    2  N   UNL     1      -5.953   5.279  64.822  1.00  0.00    -0.021 NA 
HETATM    3  H   UNL     1      -5.685   4.505  65.429  1.00  0.00     0.000 HD 
ENDROOT
BRANCH   2   4
HETATM    4  C   UNL     1      -6.433   6.502  65.321  1.00  0.00    -0.039 A  
HETATM    5  N   UNL     1      -6.492   7.574  64.509  1.00  0.00    -0.044 NA 
HETATM    6  C   UNL     1      -7.027   8.726  64.993  1.00  0.00    -0.076 A  
HETATM    7  C   UNL     1      -7.477   8.930  66.293  1.00  0.00    -0.091 A  
HETATM    8  C   UNL     1      -6.976   5.348  67.508  1.00  0.00    -0.066 C  
HETATM    9  C   UNL     1      -7.363   7.805  67.124  1.00  0.00    -0.091 A  
HETATM   10  C   UNL     1      -6.900   6.569  66.636  1.00  0.00    -0.065 A  
BRANCH   7  11
HETATM   11  C   UNL     1      -8.164  10.185  66.735  1.00  0.00    -0.122 A  
HETATM   12  C   UNL     1      -7.947  12.588  67.130  1.00  0.00    -0.140 A  
HETATM   13  C   UNL     1      -7.412  11.376  66.721  1.00  0.00    -0.137 A  
HETATM   14  C   UNL     1      -9.221  12.621  67.689  1.00  0.00    -0.191 A  
HETATM   15  C   UNL     1      -9.738  13.936  68.121  1.00  0.00    -0.222 C  
HETATM   16  C   UNL     1     -10.997  13.975  68.871  1.00  0.00    -0.283 C  
HETATM   17  O   UNL     1      -9.140  14.981  67.871  1.00  0.00    -0.176 OA 
HETATM   18  C   UNL     1     -11.615  12.801  69.073  1.00  0.00    -0.316 C  
HETATM   19  C   UNL     1     -11.574  15.219  69.422  1.00  0.00    -0.330 C  
HETATM   20  O   UNL     1     -10.893  16.341  69.111  1.00  0.00    -0.271 OA 
HETATM   21  O   UNL     1     -12.592  15.244  70.098  1.00  0.00    -0.347 OA 
HETATM   22  N   UNL     1     -11.231  11.552  68.594  1.00  0.00    -0.224 NA 
HETATM   23  C   UNL     1     -10.002  11.454  67.835  1.00  0.00    -0.177 A  
HETATM   24  C   UNL     1     -10.464   9.119  66.936  1.00  0.00    -0.287 C  
HETATM   25  C   UNL     1      -9.516  10.261  67.215  1.00  0.00    -0.174 A  
BRANCH  22  26
HETATM   26  C   UNL     1     -11.750  10.369  69.349  1.00  0.00    -0.160 C  
HETATM   27  C   UNL     1     -12.532  10.553  70.630  1.00  0.00    -0.456 C  
HETATM   28  C   UNL     1     -11.213   9.858  70.673  1.00  0.00    -0.416 C  
ENDBRANCH  22  26
ENDBRANCH   7  11
ENDBRANCH   2   4
TORSDOF 3
ENDMDL
MODEL      105
REMARK 921   NORMALIZED FREE ENERGY PREDICTED BY IDOCK:   -4.27 KCAL/MOL
REMARK 922        TOTAL FREE ENERGY PREDICTED BY IDOCK:   -5.70 KCAL/MOL
REMARK 923 INTER-LIGAND FREE ENERGY PREDICTED BY IDOCK:   -4.82 KCAL/MOL
REMARK 924 INTRA-LIGAND FREE ENERGY PREDICTED BY IDOCK:   -0.88 KCAL/MOL
REMARK 927      BINDING AFFINITY PREDICTED BY RF-SCORE:    0.00 PKD
ROOT
HETATM    1  C   UNL     1     -10.933  15.836  67.791  1.00  0.00    -0.314 C  
HETATM    2  N   UNL     1     -10.874  15.080  66.551  1.00  0.00    -0.316 NA 
HETATM    3  H   UNL     1     -11.039  15.505  65.638  1.00  0.00     0.000 HD 
ENDROOT
BRANCH   2   4
HETATM    4  C   UNL     1     -10.571  13.717  66.708  1.00  0.00    -0.273 A  
HETATM    5  N   UNL     1      -9.539  13.351  67.491  1.00  0.00    -0.215 NA 
HETATM    6  C   UNL     1      -9.310  12.025  67.685  1.00  0.00    -0.185 A  
HETATM    7  C   UNL     1     -10.016  10.983  67.095  1.00  0.00    -0.218 A  
HETATM    8  C   UNL     1     -12.625  13.147  65.340  1.00  0.00    -0.512 C  
HETATM    9  C   UNL     1     -11.059  11.400  66.252  1.00  0.00    -0.281 A  
HETATM   10  C   UNL     1     -11.385  12.760  66.097  1.00  0.00    -0.371 A  
BRANCH   7  11
HETATM   11  C   UNL     1      -9.793   9.543  67.439  1.00  0.00    -0.218 A  
HETATM   12  C   UNL     1     -10.146   7.771  69.087  1.00  0.00    -0.196 A  
HETATM   13  C   UNL     1     -10.315   9.080  68.664  1.00  0.00    -0.233 A  
HETATM   14  C   UNL     1      -9.335   6.912  68.351  1.00  0.00    -0.129 A  
HETATM   15  C   UNL     1      -9.178   5.531  68.853  1.00  0.00    -0.119 C  
HETATM   16  C   UNL     1      -8.195   4.663  68.200  1.00  0.00    -0.091 C  
HETATM   17  O   UNL     1      -9.843   5.106  69.796  1.00  0.00    -0.172 OA 
HETATM   18  C   UNL     1      -7.534   5.180  67.152  1.00  0.00    -0.087 C  
HETATM   19  C   UNL     1      -7.893   3.291  68.660  1.00  0.00    -0.058 C  
HETATM   20  O   UNL     1      -8.655   2.861  69.686  1.00  0.00    -0.058 OA 
HETATM   21  O   UNL     1      -7.032   2.588  68.153  1.00  0.00    -0.046 OA 
HETATM   22  N   UNL     1      -7.722   6.430  66.571  1.00  0.00    -0.098 NA 
HETATM   23  C   UNL     1      -8.691   7.328  67.165  1.00  0.00    -0.121 A  
HETATM   24  C   UNL     1      -8.769   8.933  65.193  1.00  0.00    -0.213 C  
HETATM   25  C   UNL     1      -9.050   8.608  66.641  1.00  0.00    -0.203 A  
BRANCH  22  26
HETATM   26  C   UNL     1      -6.568   6.973  65.790  1.00  0.00    -0.052 C  
HETATM   27  C   UNL     1      -5.220   6.289  65.825  1.00  0.00    -0.013 C  
HETATM   28  C   UNL     1      -5.353   7.669  66.373  1.00  0.00    -0.025 C  
ENDBRANCH  22  26
ENDBRANCH   7  11
ENDBRANCH   2   4
TORSDOF 3
ENDMDL
MODEL      106
REMARK 921   NORMALIZED FREE ENERGY PREDICTED BY IDOCK:   -4.26 KCAL/MOL
REMARK 922        TOTAL FREE ENERGY PREDICTED BY IDOCK:   -5.69 KCAL/MOL
REMARK 923 INTER-LIGAND FREE ENERGY PREDICTED BY IDOCK:   -5.34 KCAL/MOL
REMARK 924 INTRA-LIGAND FREE ENERGY PREDICTED BY IDOCK:   -0.34 KCAL/MOL
REMARK 927      BINDING AFFINITY PREDICTED BY RF-SCORE:    0.00 PKD
ROOT
HETATM    1  C   UNL     1     -10.380  19.866  67.816  1.00  0.00    -0.407 C  
HETATM    2  N   UNL     1     -10.231  18.984  68.962  1.00  0.00    -0.535 NA 
HETATM    3  H   UNL     1     -10.327  19.311  69.924  1.00  0.00     0.000 HD 
ENDROOT
BRANCH   2   4
HETATM    4  C   UNL     1      -9.944  17.647  68.641  1.00  0.00    -0.367 A  
HETATM    5  N   UNL     1     -10.953  16.768  68.491  1.00  0.00    -0.339 NA 
HETATM    6  C   UNL     1     -10.655  15.498  68.110  1.00  0.00    -0.266 A  
HETATM    7  C   UNL     1      -9.377  14.986  67.912  1.00  0.00    -0.183 A  
HETATM    8  C   UNL     1      -7.496  18.264  68.444  1.00  0.00    -0.292 C  
HETATM    9  C   UNL     1      -8.347  15.918  68.118  1.00  0.00    -0.162 A  
HETATM   10  C   UNL     1      -8.618  17.265  68.423  1.00  0.00    -0.251 A  
BRANCH   7  11
HETATM   11  C   UNL     1      -9.117  13.612  67.379  1.00  0.00    -0.222 A  
HETATM   12  C   UNL     1      -9.645  11.975  65.640  1.00  0.00    -0.205 A  
HETATM   13  C   UNL     1      -9.798  13.232  66.205  1.00  0.00    -0.288 A  
HETATM   14  C   UNL     1      -8.899  11.010  66.309  1.00  0.00    -0.187 A  
HETATM   15  C   UNL     1      -8.779   9.682  65.671  1.00  0.00    -0.141 C  
HETATM   16  C   UNL     1      -8.152   8.599  66.433  1.00  0.00    -0.100 C  
HETATM   17  O   UNL     1      -9.193   9.472  64.532  1.00  0.00    -0.238 OA 
HETATM   18  C   UNL     1      -7.688   8.911  67.653  1.00  0.00    -0.101 C  
HETATM   19  C   UNL     1      -8.044   7.213  65.933  1.00  0.00    -0.122 C  
HETATM   20  O   UNL     1      -8.497   7.032  64.675  1.00  0.00    -0.001 OA 
HETATM   21  O   UNL     1      -7.575   6.297  66.591  1.00  0.00    -0.091 OA 
HETATM   22  N   UNL     1      -7.674  10.164  68.256  1.00  0.00    -0.087 NA 
HETATM   23  C   UNL     1      -8.269  11.277  67.545  1.00  0.00    -0.124 A  
HETATM   24  C   UNL     1      -7.262  13.077  69.034  1.00  0.00     0.014 C  
HETATM   25  C   UNL     1      -8.265  12.634  67.996  1.00  0.00    -0.167 A  
BRANCH  22  26
HETATM   26  C   UNL     1      -7.599  10.177  69.750  1.00  0.00    -0.170 C  
HETATM   27  C   UNL     1      -6.812   9.121  70.492  1.00  0.00    -0.074 C  
HETATM   28  C   UNL     1      -8.289   9.197  70.680  1.00  0.00    -0.239 C  
ENDBRANCH  22  26
ENDBRANCH   7  11
ENDBRANCH   2   4
TORSDOF 3
ENDMDL
MODEL      107
REMARK 921   NORMALIZED FREE ENERGY PREDICTED BY IDOCK:   -4.12 KCAL/MOL
REMARK 922        TOTAL FREE ENERGY PREDICTED BY IDOCK:   -5.53 KCAL/MOL
REMARK 923 INTER-LIGAND FREE ENERGY PREDICTED BY IDOCK:   -5.75 KCAL/MOL
REMARK 924 INTRA-LIGAND FREE ENERGY PREDICTED BY IDOCK:    0.23 KCAL/MOL
REMARK 927      BINDING AFFINITY PREDICTED BY RF-SCORE:    0.00 PKD
ROOT
HETATM    1  C   UNL     1     -12.107  15.971  72.692  1.00  0.00    -0.538 C  
HETATM    2  N   UNL     1     -12.676  15.862  71.360  1.00  0.00    -0.537 NA 
HETATM    3  H   UNL     1     -13.363  16.524  70.998  1.00  0.00     0.000 HD 
ENDROOT
BRANCH   2   4
HETATM    4  C   UNL     1     -12.206  14.772  70.608  1.00  0.00    -0.319 A  
HETATM    5  N   UNL     1     -11.324  14.983  69.613  1.00  0.00    -0.269 NA 
HETATM    6  C   UNL     1     -10.829  13.906  68.947  1.00  0.00    -0.255 A  
HETATM    7  C   UNL     1     -11.195  12.581  69.156  1.00  0.00    -0.297 A  
HETATM    8  C   UNL     1     -13.485  13.215  72.142  1.00  0.00    -0.653 C  
HETATM    9  C   UNL     1     -12.148  12.401  70.172  1.00  0.00    -0.366 A  
HETATM   10  C   UNL     1     -12.615  13.480  70.945  1.00  0.00    -0.414 A  
BRANCH   7  11
HETATM   11  C   UNL     1     -10.529  11.428  68.471  1.00  0.00    -0.223 A  
HETATM   12  C   UNL     1     -10.796   9.170  67.570  1.00  0.00    -0.151 A  
HETATM   13  C   UNL     1     -11.320  10.298  68.183  1.00  0.00    -0.233 A  
HETATM   14  C   UNL     1      -9.426   9.089  67.342  1.00  0.00    -0.179 A  
HETATM   15  C   UNL     1      -8.917   7.859  66.699  1.00  0.00    -0.151 C  
HETATM   16  C   UNL     1      -7.467   7.672  66.609  1.00  0.00    -0.093 C  
HETATM   17  O   UNL     1      -9.677   7.002  66.250  1.00  0.00    -0.112 OA 
HETATM   18  C   UNL     1      -6.700   8.666  67.084  1.00  0.00    -0.063 C  
HETATM   19  C   UNL     1      -6.840   6.451  66.059  1.00  0.00    -0.057 C  
HETATM   20  O   UNL     1      -7.709   5.546  65.565  1.00  0.00    -0.084 OA 
HETATM   21  O   UNL     1      -5.632   6.270  66.038  1.00  0.00    -0.013 OA 
HETATM   22  N   UNL     1      -7.123   9.888  67.595  1.00  0.00    -0.086 NA 
HETATM   23  C   UNL     1      -8.547  10.135  67.697  1.00  0.00    -0.118 A  
HETATM   24  C   UNL     1      -8.325  12.639  68.092  1.00  0.00    -0.175 C  
HETATM   25  C   UNL     1      -9.136  11.365  68.128  1.00  0.00    -0.174 A  
BRANCH  22  26
HETATM   26  C   UNL     1      -6.168  10.587  68.510  1.00  0.00    -0.046 C  
HETATM   27  C   UNL     1      -5.178   9.801  69.339  1.00  0.00    -0.035 C  
HETATM   28  C   UNL     1      -6.237  10.595  70.025  1.00  0.00    -0.111 C  
ENDBRANCH  22  26
ENDBRANCH   7  11
ENDBRANCH   2   4
TORSDOF 3
ENDMDL
MODEL      108
REMARK 921   NORMALIZED FREE ENERGY PREDICTED BY IDOCK:   -4.10 KCAL/MOL
REMARK 922        TOTAL FREE ENERGY PREDICTED BY IDOCK:   -5.49 KCAL/MOL
REMARK 923 INTER-LIGAND FREE ENERGY PREDICTED BY IDOCK:   -5.10 KCAL/MOL
REMARK 924 INTRA-LIGAND FREE ENERGY PREDICTED BY IDOCK:   -0.39 KCAL/MOL
REMARK 927      BINDING AFFINITY PREDICTED BY RF-SCORE:    0.00 PKD
ROOT
HETATM    1  C   UNL     1      -7.358   3.156  70.789  1.00  0.00    -0.037 C  
HETATM    2  N   UNL     1      -7.844   3.270  69.424  1.00  0.00    -0.050 NA 
HETATM    3  H   UNL     1      -7.773   2.508  68.749  1.00  0.00     0.000 HD 
ENDROOT
BRANCH   2   4
HETATM    4  C   UNL     1      -8.420   4.511  69.107  1.00  0.00    -0.079 A  
HETATM    5  N   UNL     1      -8.669   5.398  70.089  1.00  0.00    -0.124 NA 
HETATM    6  C   UNL     1      -9.159   6.620  69.749  1.00  0.00    -0.143 A  
HETATM    7  C   UNL     1      -9.492   7.035  68.465  1.00  0.00    -0.134 A  
HETATM    8  C   UNL     1      -8.262   3.910  66.652  1.00  0.00    -0.100 C  
HETATM    9  C   UNL     1      -9.259   6.071  67.471  1.00  0.00    -0.111 A  
HETATM   10  C   UNL     1      -8.668   4.830  67.770  1.00  0.00    -0.107 A  
BRANCH   7  11
HETATM   11  C   UNL     1      -9.917   8.433  68.139  1.00  0.00    -0.224 A  
HETATM   12  C   UNL     1     -11.307  10.337  68.791  1.00  0.00    -0.226 A  
HETATM   13  C   UNL     1     -10.834   9.053  69.012  1.00  0.00    -0.092 A  
HETATM   14  C   UNL     1     -10.973  10.997  67.612  1.00  0.00    -0.332 A  
HETATM   15  C   UNL     1     -11.514  12.358  67.419  1.00  0.00    -0.352 C  
HETATM   16  C   UNL     1     -11.325  13.003  66.117  1.00  0.00    -0.349 C  
HETATM   17  O   UNL     1     -12.115  12.948  68.315  1.00  0.00    -0.294 OA 
HETATM   18  C   UNL     1     -10.625  12.316  65.200  1.00  0.00    -0.285 C  
HETATM   19  C   UNL     1     -11.886  14.327  65.779  1.00  0.00    -0.374 C  
HETATM   20  O   UNL     1     -12.524  14.944  66.795  1.00  0.00     0.085 OA 
HETATM   21  O   UNL     1     -11.779  14.839  64.675  1.00  0.00    -0.409 OA 
HETATM   22  N   UNL     1     -10.000  11.084  65.364  1.00  0.00    -0.245 NA 
HETATM   23  C   UNL     1     -10.142  10.405  66.635  1.00  0.00    -0.224 A  
HETATM   24  C   UNL     1      -8.283   8.719  66.212  1.00  0.00    -0.115 C  
HETATM   25  C   UNL     1      -9.499   9.175  66.983  1.00  0.00    -0.201 A  
BRANCH  22  26
HETATM   26  C   UNL     1      -9.743  10.303  64.114  1.00  0.00    -0.291 C  
HETATM   27  C   UNL     1      -8.532  10.593  63.258  1.00  0.00    -0.119 C  
HETATM   28  C   UNL     1      -9.894  10.824  62.698  1.00  0.00    -0.166 C  
ENDBRANCH  22  26
ENDBRANCH   7  11
ENDBRANCH   2   4
TORSDOF 3
ENDMDL
MODEL      109
REMARK 921   NORMALIZED FREE ENERGY PREDICTED BY IDOCK:   -4.08 KCAL/MOL
REMARK 922        TOTAL FREE ENERGY PREDICTED BY IDOCK:   -5.47 KCAL/MOL
REMARK 923 INTER-LIGAND FREE ENERGY PREDICTED BY IDOCK:   -5.06 KCAL/MOL
REMARK 924 INTRA-LIGAND FREE ENERGY PREDICTED BY IDOCK:   -0.41 KCAL/MOL
REMARK 927      BINDING AFFINITY PREDICTED BY RF-SCORE:    0.00 PKD
ROOT
HETATM    1  C   UNL     1      -9.975   3.433  74.555  1.00  0.00    -0.150 C  
HETATM    2  N   UNL     1      -8.956   4.469  74.502  1.00  0.00    -0.107 NA 
HETATM    3  H   UNL     1      -8.133   4.463  75.105  1.00  0.00     0.000 HD 
ENDROOT
BRANCH   2   4
HETATM    4  C   UNL     1      -9.195   5.479  73.555  1.00  0.00    -0.130 A  
HETATM    5  N   UNL     1      -9.724   6.651  73.953  1.00  0.00    -0.215 NA 
HETATM    6  C   UNL     1      -9.879   7.639  73.032  1.00  0.00    -0.261 A  
HETATM    7  C   UNL     1      -9.592   7.538  71.675  1.00  0.00    -0.171 A  
HETATM    8  C   UNL     1      -8.097   4.028  71.793  1.00  0.00    -0.082 C  
HETATM    9  C   UNL     1      -9.081   6.289  71.287  1.00  0.00    -0.148 A  
HETATM   10  C   UNL     1      -8.821   5.273  72.225  1.00  0.00    -0.132 A  
BRANCH   7  11
HETATM   11  C   UNL     1      -9.673   8.697  70.731  1.00  0.00    -0.237 A  
HETATM   12  C   UNL     1      -8.424  10.265  69.329  1.00  0.00    -0.172 A  
HETATM   13  C   UNL     1      -8.463   9.183  70.195  1.00  0.00    -0.186 A  
HETATM   14  C   UNL     1      -9.591  10.978  69.072  1.00  0.00    -0.136 A  
HETATM   15  C   UNL     1      -9.493  12.131  68.152  1.00  0.00    -0.205 C  
HETATM   16  C   UNL     1     -10.662  13.002  68.003  1.00  0.00    -0.248 C  
HETATM   17  O   UNL     1      -8.463  12.371  67.524  1.00  0.00    -0.155 OA 
HETATM   18  C   UNL     1     -11.763  12.656  68.689  1.00  0.00    -0.325 C  
HETATM   19  C   UNL     1     -10.660  14.226  67.175  1.00  0.00    -0.279 C  
HETATM   20  O   UNL     1      -9.516  14.442  66.493  1.00  0.00    -0.268 OA 
HETATM   21  O   UNL     1     -11.615  14.984  67.097  1.00  0.00    -0.342 OA 
HETATM   22  N   UNL     1     -11.945  11.525  69.477  1.00  0.00    -0.331 NA 
HETATM   23  C   UNL     1     -10.828  10.620  69.651  1.00  0.00    -0.268 A  
HETATM   24  C   UNL     1     -12.213   8.718  70.620  1.00  0.00     0.052 C  
HETATM   25  C   UNL     1     -10.881   9.382  70.366  1.00  0.00    -0.321 A  
BRANCH  22  26
HETATM   26  C   UNL     1     -13.016  11.613  70.519  1.00  0.00     0.162 C  
HETATM   27  C   UNL     1     -13.240  12.895  71.289  1.00  0.00    -0.160 C  
HETATM   28  C   UNL     1     -12.791  11.674  72.017  1.00  0.00    -0.250 C  
ENDBRANCH  22  26
ENDBRANCH   7  11
ENDBRANCH   2   4
TORSDOF 3
ENDMDL
MODEL      110
REMARK 921   NORMALIZED FREE ENERGY PREDICTED BY IDOCK:   -4.05 KCAL/MOL
REMARK 922        TOTAL FREE ENERGY PREDICTED BY IDOCK:   -5.44 KCAL/MOL
REMARK 923 INTER-LIGAND FREE ENERGY PREDICTED BY IDOCK:   -4.87 KCAL/MOL
REMARK 924 INTRA-LIGAND FREE ENERGY PREDICTED BY IDOCK:   -0.57 KCAL/MOL
REMARK 927      BINDING AFFINITY PREDICTED BY RF-SCORE:    0.00 PKD
ROOT
HETATM    1  C   UNL     1     -11.284  16.899  65.706  1.00  0.00     0.443 C  
HETATM    2  N   UNL     1     -10.656  15.876  64.887  1.00  0.00    -0.651 NA 
HETATM    3  H   UNL     1     -10.329  16.054  63.937  1.00  0.00     0.000 HD 
ENDROOT
BRANCH   2   4
HETATM    4  C   UNL     1     -10.534  14.621  65.507  1.00  0.00    -0.356 A  
HETATM    5  N   UNL     1      -9.487  14.379  66.318  1.00  0.00    -0.290 NA 
HETATM    6  C   UNL     1      -9.429  13.184  66.962  1.00  0.00    -0.242 A  
HETATM    7  C   UNL     1     -10.333  12.136  66.818  1.00  0.00    -0.237 A  
HETATM    8  C   UNL     1     -12.779  13.969  64.533  1.00  0.00    -0.101 C  
HETATM    9  C   UNL     1     -11.389  12.407  65.933  1.00  0.00    -0.399 A  
HETATM   10  C   UNL     1     -11.534  13.664  65.318  1.00  0.00    -0.320 A  
BRANCH   7  11
HETATM   11  C   UNL     1     -10.281  10.889  67.644  1.00  0.00    -0.214 A  
HETATM   12  C   UNL     1     -10.373   9.937  69.895  1.00  0.00    -0.298 A  
HETATM   13  C   UNL     1     -10.427  11.026  69.039  1.00  0.00    -0.242 A  
HETATM   14  C   UNL     1     -10.042   8.684  69.389  1.00  0.00    -0.204 A  
HETATM   15  C   UNL     1      -9.985   7.560  70.346  1.00  0.00    -0.184 C  
HETATM   16  C   UNL     1      -9.468   6.272  69.875  1.00  0.00    -0.162 C  
HETATM   17  O   UNL     1     -10.353   7.684  71.513  1.00  0.00    -0.196 OA 
HETATM   18  C   UNL     1      -9.122   6.198  68.580  1.00  0.00    -0.125 C  
HETATM   19  C   UNL     1      -9.290   5.098  70.756  1.00  0.00    -0.160 C  
HETATM   20  O   UNL     1      -9.720   5.275  72.022  1.00  0.00    -0.154 OA 
HETATM   21  O   UNL     1      -8.804   4.044  70.377  1.00  0.00    -0.075 OA 
HETATM   22  N   UNL     1      -9.259   7.189  67.613  1.00  0.00    -0.126 NA 
HETATM   23  C   UNL     1      -9.777   8.479  68.017  1.00  0.00    -0.154 A  
HETATM   24  C   UNL     1     -10.224   9.307  65.653  1.00  0.00     0.217 C  
HETATM   25  C   UNL     1     -10.047   9.568  67.130  1.00  0.00    -0.290 A  
BRANCH  22  26
HETATM   26  C   UNL     1      -8.363   7.074  66.421  1.00  0.00    -0.125 C  
HETATM   27  C   UNL     1      -8.431   5.864  65.516  1.00  0.00    -0.154 C  
HETATM   28  C   UNL     1      -7.183   6.131  66.287  1.00  0.00    -0.072 C  
ENDBRANCH  22  26
ENDBRANCH   7  11
ENDBRANCH   2   4
TORSDOF 3
ENDMDL
MODEL      111
REMARK 921   NORMALIZED FREE ENERGY PREDICTED BY IDOCK:   -4.01 KCAL/MOL
REMARK 922        TOTAL FREE ENERGY PREDICTED BY IDOCK:   -5.40 KCAL/MOL
REMARK 923 INTER-LIGAND FREE ENERGY PREDICTED BY IDOCK:   -4.81 KCAL/MOL
REMARK 924 INTRA-LIGAND FREE ENERGY PREDICTED BY IDOCK:   -0.59 KCAL/MOL
REMARK 927      BINDING AFFINITY PREDICTED BY RF-SCORE:    0.00 PKD
ROOT
HETATM    1  C   UNL     1      -9.599  17.876  66.681  1.00  0.00    -0.309 C  
HETATM    2  N   UNL     1      -9.917  17.092  65.499  1.00  0.00    -0.572 NA 
HETATM    3  H   UNL     1     -10.194  17.517  64.614  1.00  0.00     0.000 HD 
ENDROOT
BRANCH   2   4
HETATM    4  C   UNL     1      -9.811  15.701  65.672  1.00  0.00    -0.333 A  
HETATM    5  N   UNL     1      -8.950  15.208  66.581  1.00  0.00    -0.270 NA 
HETATM    6  C   UNL     1      -8.918  13.864  66.781  1.00  0.00    -0.188 A  
HETATM    7  C   UNL     1      -9.661  12.919  66.081  1.00  0.00    -0.250 A  
HETATM    8  C   UNL     1     -11.712  15.396  64.026  1.00  0.00     0.051 C  
HETATM    9  C   UNL     1     -10.517  13.465  65.112  1.00  0.00    -0.358 A  
HETATM   10  C   UNL     1     -10.647  14.855  64.938  1.00  0.00    -0.417 A  
BRANCH   7  11
HETATM   11  C   UNL     1      -9.669  11.462  66.426  1.00  0.00    -0.231 A  
HETATM   12  C   UNL     1     -11.036   9.462  66.761  1.00  0.00     0.163 A  
HETATM   13  C   UNL     1     -10.915  10.804  66.435  1.00  0.00    -0.108 A  
HETATM   14  C   UNL     1      -9.921   8.764  67.216  1.00  0.00    -0.281 A  
HETATM   15  C   UNL     1     -10.106   7.340  67.563  1.00  0.00    -0.193 C  
HETATM   16  C   UNL     1      -8.997   6.633  68.209  1.00  0.00    -0.122 C  
HETATM   17  O   UNL     1     -11.159   6.749  67.328  1.00  0.00    -0.358 OA 
HETATM   18  C   UNL     1      -7.866   7.330  68.399  1.00  0.00    -0.122 C  
HETATM   19  C   UNL     1      -9.090   5.232  68.673  1.00  0.00    -0.109 C  
HETATM   20  O   UNL     1     -10.255   4.619  68.382  1.00  0.00    -0.060 OA 
HETATM   21  O   UNL     1      -8.186   4.661  69.264  1.00  0.00    -0.075 OA 
HETATM   22  N   UNL     1      -7.600   8.633  67.992  1.00  0.00    -0.097 NA 
HETATM   23  C   UNL     1      -8.655   9.379  67.336  1.00  0.00    -0.125 A  
HETATM   24  C   UNL     1      -7.137  11.232  66.478  1.00  0.00    -0.097 C  
HETATM   25  C   UNL     1      -8.513  10.694  66.795  1.00  0.00    -0.134 A  
BRANCH  22  26
HETATM   26  C   UNL     1      -6.521   9.350  68.741  1.00  0.00    -0.048 C  
HETATM   27  C   UNL     1      -6.081   8.873  70.106  1.00  0.00    -0.037 C  
HETATM   28  C   UNL     1      -6.720  10.213  69.972  1.00  0.00    -0.127 C  
ENDBRANCH  22  26
ENDBRANCH   7  11
ENDBRANCH   2   4
TORSDOF 3
ENDMDL
MODEL      112
REMARK 921   NORMALIZED FREE ENERGY PREDICTED BY IDOCK:   -3.98 KCAL/MOL
REMARK 922        TOTAL FREE ENERGY PREDICTED BY IDOCK:   -5.35 KCAL/MOL
REMARK 923 INTER-LIGAND FREE ENERGY PREDICTED BY IDOCK:   -4.54 KCAL/MOL
REMARK 924 INTRA-LIGAND FREE ENERGY PREDICTED BY IDOCK:   -0.82 KCAL/MOL
REMARK 927      BINDING AFFINITY PREDICTED BY RF-SCORE:    0.00 PKD
ROOT
HETATM    1  C   UNL     1      -7.222   5.631  68.629  1.00  0.00    -0.078 C  
HETATM    2  N   UNL     1      -6.440   6.333  69.633  1.00  0.00    -0.041 NA 
HETATM    3  H   UNL     1      -5.876   5.847  70.331  1.00  0.00     0.000 HD 
ENDROOT
BRANCH   2   4
HETATM    4  C   UNL     1      -6.520   7.734  69.566  1.00  0.00    -0.035 A  
HETATM    5  N   UNL     1      -5.827   8.395  68.620  1.00  0.00    -0.043 NA 
HETATM    6  C   UNL     1      -5.977   9.743  68.530  1.00  0.00    -0.042 A  
HETATM    7  C   UNL     1      -6.748  10.535  69.375  1.00  0.00    -0.076 A  
HETATM    8  C   UNL     1      -8.255   7.680  71.410  1.00  0.00    -0.102 C  
HETATM    9  C   UNL     1      -7.423   9.818  70.376  1.00  0.00    -0.161 A  
HETATM   10  C   UNL     1      -7.367   8.414  70.445  1.00  0.00    -0.056 A  
BRANCH   7  11
HETATM   11  C   UNL     1      -6.967  11.999  69.154  1.00  0.00    -0.066 A  
HETATM   12  C   UNL     1      -6.224  14.267  69.687  1.00  0.00    -0.126 A  
HETATM   13  C   UNL     1      -6.095  12.892  69.808  1.00  0.00    -0.125 A  
HETATM   14  C   UNL     1      -7.315  14.795  69.004  1.00  0.00    -0.139 A  
HETATM   15  C   UNL     1      -7.412  16.267  68.915  1.00  0.00    -0.209 C  
HETATM   16  C   UNL     1      -8.636  16.850  68.358  1.00  0.00    -0.240 C  
HETATM   17  O   UNL     1      -6.501  17.000  69.298  1.00  0.00    -0.208 OA 
HETATM   18  C   UNL     1      -9.570  15.990  67.924  1.00  0.00    -0.219 C  
HETATM   19  C   UNL     1      -8.882  18.306  68.290  1.00  0.00    -0.287 C  
HETATM   20  O   UNL     1      -7.852  19.071  68.706  1.00  0.00    -0.340 OA 
HETATM   21  O   UNL     1      -9.926  18.791  67.880  1.00  0.00    -0.322 OA 
HETATM   22  N   UNL     1      -9.484  14.602  67.881  1.00  0.00    -0.207 NA 
HETATM   23  C   UNL     1      -8.292  13.969  68.406  1.00  0.00    -0.162 A  
HETATM   24  C   UNL     1      -8.761  11.689  67.379  1.00  0.00    -0.155 C  
HETATM   25  C   UNL     1      -8.023  12.566  68.363  1.00  0.00    -0.139 A  
BRANCH  22  26
HETATM   26  C   UNL     1     -10.784  13.862  67.856  1.00  0.00    -0.240 C  
HETATM   27  C   UNL     1     -11.937  14.354  67.011  1.00  0.00    -0.424 C  
HETATM   28  C   UNL     1     -12.080  14.325  68.495  1.00  0.00    -0.295 C  
ENDBRANCH  22  26
ENDBRANCH   7  11
ENDBRANCH   2   4
TORSDOF 3
ENDMDL
MODEL      113
REMARK 921   NORMALIZED FREE ENERGY PREDICTED BY IDOCK:   -3.94 KCAL/MOL
REMARK 922        TOTAL FREE ENERGY PREDICTED BY IDOCK:   -5.31 KCAL/MOL
REMARK 923 INTER-LIGAND FREE ENERGY PREDICTED BY IDOCK:   -4.55 KCAL/MOL
REMARK 924 INTRA-LIGAND FREE ENERGY PREDICTED BY IDOCK:   -0.76 KCAL/MOL
REMARK 927      BINDING AFFINITY PREDICTED BY RF-SCORE:    0.00 PKD
ROOT
HETATM    1  C   UNL     1     -11.016  19.169  65.503  1.00  0.00     0.138 C  
HETATM    2  N   UNL     1      -9.746  18.684  66.016  1.00  0.00    -0.507 NA 
HETATM    3  H   UNL     1      -8.957  19.303  66.208  1.00  0.00     0.000 HD 
ENDROOT
BRANCH   2   4
HETATM    4  C   UNL     1      -9.688  17.297  66.227  1.00  0.00    -0.266 A  
HETATM    5  N   UNL     1     -10.767  16.538  65.955  1.00  0.00    -0.235 NA 
HETATM    6  C   UNL     1     -10.664  15.190  66.099  1.00  0.00    -0.325 A  
HETATM    7  C   UNL     1      -9.548  14.504  66.566  1.00  0.00    -0.311 A  
HETATM    8  C   UNL     1      -7.239  17.531  66.825  1.00  0.00    -0.250 C  
HETATM    9  C   UNL     1      -8.456  15.329  66.879  1.00  0.00    -0.286 A  
HETATM   10  C   UNL     1      -8.492  16.718  66.657  1.00  0.00    -0.291 A  
BRANCH   7  11
HETATM   11  C   UNL     1      -9.455  13.010  66.591  1.00  0.00    -0.256 A  
HETATM   12  C   UNL     1      -9.292  10.963  65.262  1.00  0.00    -0.246 A  
HETATM   13  C   UNL     1      -9.362  12.345  65.351  1.00  0.00     0.161 A  
HETATM   14  C   UNL     1      -9.443  10.194  66.411  1.00  0.00    -0.223 A  
HETATM   15  C   UNL     1      -9.374   8.726  66.259  1.00  0.00    -0.222 C  
HETATM   16  C   UNL     1      -9.704   7.891  67.417  1.00  0.00    -0.210 C  
HETATM   17  O   UNL     1      -9.054   8.200  65.194  1.00  0.00     0.064 OA 
HETATM   18  C   UNL     1     -10.005   8.533  68.557  1.00  0.00    -0.184 C  
HETATM   19  C   UNL     1      -9.747   6.414  67.367  1.00  0.00    -0.121 C  
HETATM   20  O   UNL     1      -9.375   5.881  66.185  1.00  0.00    -0.160 OA 
HETATM   21  O   UNL     1     -10.079   5.721  68.315  1.00  0.00    -0.142 OA 
HETATM   22  N   UNL     1      -9.977   9.905  68.785  1.00  0.00    -0.166 NA 
HETATM   23  C   UNL     1      -9.644  10.780  67.681  1.00  0.00    -0.158 A  
HETATM   24  C   UNL     1      -9.254  12.841  69.120  1.00  0.00     0.686 C  
HETATM   25  C   UNL     1      -9.500  12.199  67.775  1.00  0.00    -0.192 A  
BRANCH  22  26
HETATM   26  C   UNL     1     -10.821  10.402  69.916  1.00  0.00    -0.298 C  
HETATM   27  C   UNL     1     -11.191   9.490  71.063  1.00  0.00    -0.432 C  
HETATM   28  C   UNL     1     -12.266  10.021  70.177  1.00  0.00    -0.116 C  
ENDBRANCH  22  26
ENDBRANCH   7  11
ENDBRANCH   2   4
TORSDOF 3
ENDMDL
MODEL      114
REMARK 921   NORMALIZED FREE ENERGY PREDICTED BY IDOCK:   -3.91 KCAL/MOL
REMARK 922        TOTAL FREE ENERGY PREDICTED BY IDOCK:   -5.27 KCAL/MOL
REMARK 923 INTER-LIGAND FREE ENERGY PREDICTED BY IDOCK:   -4.42 KCAL/MOL
REMARK 924 INTRA-LIGAND FREE ENERGY PREDICTED BY IDOCK:   -0.85 KCAL/MOL
REMARK 927      BINDING AFFINITY PREDICTED BY RF-SCORE:    0.00 PKD
ROOT
HETATM    1  C   UNL     1      -7.467  19.035  68.797  1.00  0.00    -0.333 C  
HETATM    2  N   UNL     1      -8.804  18.485  68.651  1.00  0.00    -0.321 NA 
HETATM    3  H   UNL     1      -9.647  19.029  68.834  1.00  0.00     0.000 HD 
ENDROOT
BRANCH   2   4
HETATM    4  C   UNL     1      -8.844  17.143  68.237  1.00  0.00    -0.245 A  
HETATM    5  N   UNL     1      -7.923  16.687  67.368  1.00  0.00    -0.158 NA 
HETATM    6  C   UNL     1      -7.939  15.368  67.039  1.00  0.00    -0.224 A  
HETATM    7  C   UNL     1      -8.870  14.431  67.474  1.00  0.00    -0.197 A  
HETATM    8  C   UNL     1     -10.746  16.744  69.861  1.00  0.00    -0.123 C  
HETATM    9  C   UNL     1      -9.841  14.950  68.346  1.00  0.00    -0.216 A  
HETATM   10  C   UNL     1      -9.804  16.286  68.783  1.00  0.00    -0.238 A  
BRANCH   7  11
HETATM   11  C   UNL     1      -8.766  12.969  67.170  1.00  0.00    -0.204 A  
HETATM   12  C   UNL     1      -9.414  11.158  65.660  1.00  0.00    -0.252 A  
HETATM   13  C   UNL     1      -9.430  12.497  66.020  1.00  0.00    -0.154 A  
HETATM   14  C   UNL     1      -8.836  10.225  66.515  1.00  0.00    -0.150 A  
HETATM   15  C   UNL     1      -8.858   8.810  66.091  1.00  0.00    -0.168 C  
HETATM   16  C   UNL     1      -8.417   7.791  67.047  1.00  0.00    -0.124 C  
HETATM   17  O   UNL     1      -9.237   8.477  64.969  1.00  0.00     0.031 OA 
HETATM   18  C   UNL     1      -7.980   8.230  68.238  1.00  0.00    -0.119 C  
HETATM   19  C   UNL     1      -8.467   6.340  66.767  1.00  0.00    -0.111 C  
HETATM   20  O   UNL     1      -8.875   6.022  65.521  1.00  0.00    -0.147 OA 
HETATM   21  O   UNL     1      -8.156   5.489  67.585  1.00  0.00    -0.101 OA 
HETATM   22  N   UNL     1      -7.833   9.551  68.647  1.00  0.00    -0.084 NA 
HETATM   23  C   UNL     1      -8.240  10.603  67.739  1.00  0.00    -0.111 A  
HETATM   24  C   UNL     1      -7.084  12.478  69.012  1.00  0.00    -0.037 C  
HETATM   25  C   UNL     1      -8.082  12.003  67.983  1.00  0.00    -0.153 A  
BRANCH  22  26
HETATM   26  C   UNL     1      -7.833   9.787  70.125  1.00  0.00    -0.183 C  
HETATM   27  C   UNL     1      -6.783   9.153  71.008  1.00  0.00    -0.093 C  
HETATM   28  C   UNL     1      -8.213   8.770  71.184  1.00  0.00    -0.204 C  
ENDBRANCH  22  26
ENDBRANCH   7  11
ENDBRANCH   2   4
TORSDOF 3
ENDMDL
MODEL      115
REMARK 921   NORMALIZED FREE ENERGY PREDICTED BY IDOCK:   -3.83 KCAL/MOL
REMARK 922        TOTAL FREE ENERGY PREDICTED BY IDOCK:   -5.18 KCAL/MOL
REMARK 923 INTER-LIGAND FREE ENERGY PREDICTED BY IDOCK:   -5.12 KCAL/MOL
REMARK 924 INTRA-LIGAND FREE ENERGY PREDICTED BY IDOCK:   -0.06 KCAL/MOL
REMARK 927      BINDING AFFINITY PREDICTED BY RF-SCORE:    0.00 PKD
ROOT
HETATM    1  C   UNL     1     -11.866  16.153  69.588  1.00  0.00    -0.130 C  
HETATM    2  N   UNL     1     -12.771  15.141  70.109  1.00  0.00    -0.602 NA 
HETATM    3  H   UNL     1     -13.626  15.375  70.614  1.00  0.00     0.000 HD 
ENDROOT
BRANCH   2   4
HETATM    4  C   UNL     1     -12.376  13.816  69.861  1.00  0.00    -0.275 A  
HETATM    5  N   UNL     1     -11.800  13.503  68.685  1.00  0.00    -0.353 NA 
HETATM    6  C   UNL     1     -11.361  12.231  68.496  1.00  0.00    -0.286 A  
HETATM    7  C   UNL     1     -11.503  11.179  69.395  1.00  0.00    -0.368 A  
HETATM    8  C   UNL     1     -13.039  13.219  72.231  1.00  0.00    -0.474 C  
HETATM    9  C   UNL     1     -12.145  11.530  70.593  1.00  0.00    -0.450 A  
HETATM   10  C   UNL     1     -12.532  12.856  70.864  1.00  0.00    -0.383 A  
BRANCH   7  11
HETATM   11  C   UNL     1     -10.895   9.828  69.179  1.00  0.00    -0.231 A  
HETATM   12  C   UNL     1     -11.003   7.444  69.712  1.00  0.00    -0.215 A  
HETATM   13  C   UNL     1     -11.500   8.733  69.828  1.00  0.00     0.210 A  
HETATM   14  C   UNL     1      -9.803   7.230  69.041  1.00  0.00    -0.165 A  
HETATM   15  C   UNL     1      -9.311   5.839  68.957  1.00  0.00    -0.123 C  
HETATM   16  C   UNL     1      -7.969   5.608  68.414  1.00  0.00    -0.100 C  
HETATM   17  O   UNL     1      -9.993   4.888  69.333  1.00  0.00    -0.195 OA 
HETATM   18  C   UNL     1      -7.297   6.689  67.987  1.00  0.00    -0.097 C  
HETATM   19  C   UNL     1      -7.338   4.273  68.352  1.00  0.00    -0.060 C  
HETATM   20  O   UNL     1      -8.128   3.259  68.760  1.00  0.00    -0.060 OA 
HETATM   21  O   UNL     1      -6.198   4.088  67.955  1.00  0.00    -0.034 OA 
HETATM   22  N   UNL     1      -7.754   8.002  67.939  1.00  0.00    -0.112 NA 
HETATM   23  C   UNL     1      -9.079   8.289  68.450  1.00  0.00    -0.136 A  
HETATM   24  C   UNL     1      -9.232  10.611  67.422  1.00  0.00    -0.153 C  
HETATM   25  C   UNL     1      -9.716   9.568  68.401  1.00  0.00    -0.168 A  
BRANCH  22  26
HETATM   26  C   UNL     1      -6.703   9.066  67.926  1.00  0.00    -0.068 C  
HETATM   27  C   UNL     1      -6.034   9.474  66.633  1.00  0.00    -0.059 C  
HETATM   28  C   UNL     1      -5.218   8.842  67.709  1.00  0.00    -0.035 C  
ENDBRANCH  22  26
ENDBRANCH   7  11
ENDBRANCH   2   4
TORSDOF 3
ENDMDL
MODEL      116
REMARK 921   NORMALIZED FREE ENERGY PREDICTED BY IDOCK:   -3.75 KCAL/MOL
REMARK 922        TOTAL FREE ENERGY PREDICTED BY IDOCK:   -5.09 KCAL/MOL
REMARK 923 INTER-LIGAND FREE ENERGY PREDICTED BY IDOCK:   -4.56 KCAL/MOL
REMARK 924 INTRA-LIGAND FREE ENERGY PREDICTED BY IDOCK:   -0.53 KCAL/MOL
REMARK 927      BINDING AFFINITY PREDICTED BY RF-SCORE:    0.00 PKD
ROOT
HETATM    1  C   UNL     1      -6.001  20.126  69.795  1.00  0.00    -0.352 C  
HETATM    2  N   UNL     1      -5.753  19.402  68.559  1.00  0.00    -0.202 NA 
HETATM    3  H   UNL     1      -5.397  19.856  67.717  1.00  0.00     0.000 HD 
ENDROOT
BRANCH   2   4
HETATM    4  C   UNL     1      -6.042  18.029  68.614  1.00  0.00    -0.195 A  
HETATM    5  N   UNL     1      -5.973  17.382  69.793  1.00  0.00    -0.245 NA 
HETATM    6  C   UNL     1      -6.327  16.070  69.834  1.00  0.00    -0.134 A  
HETATM    7  C   UNL     1      -6.706  15.294  68.743  1.00  0.00    -0.103 A  
HETATM    8  C   UNL     1      -6.678  18.108  66.164  1.00  0.00    -0.292 C  
HETATM    9  C   UNL     1      -6.727  15.990  67.524  1.00  0.00    -0.205 A  
HETATM   10  C   UNL     1      -6.457  17.369  67.454  1.00  0.00    -0.169 A  
BRANCH   7  11
HETATM   11  C   UNL     1      -7.197  13.886  68.869  1.00  0.00    -0.103 A  
HETATM   12  C   UNL     1      -6.807  11.679  69.849  1.00  0.00     0.137 A  
HETATM   13  C   UNL     1      -6.450  13.009  69.681  1.00  0.00    -0.044 A  
HETATM   14  C   UNL     1      -7.857  11.152  69.103  1.00  0.00    -0.065 A  
HETATM   15  C   UNL     1      -8.187   9.727  69.310  1.00  0.00    -0.132 C  
HETATM   16  C   UNL     1      -9.165   9.104  68.414  1.00  0.00    -0.132 C  
HETATM   17  O   UNL     1      -7.661   9.064  70.202  1.00  0.00    -0.070 OA 
HETATM   18  C   UNL     1      -9.728   9.898  67.489  1.00  0.00    -0.160 C  
HETATM   19  C   UNL     1      -9.519   7.670  68.472  1.00  0.00    -0.147 C  
HETATM   20  O   UNL     1      -8.931   6.985  69.474  1.00  0.00    -0.143 OA 
HETATM   21  O   UNL     1     -10.290   7.138  67.688  1.00  0.00    -0.180 OA 
HETATM   22  N   UNL     1      -9.537  11.265  67.323  1.00  0.00    -0.173 NA 
HETATM   23  C   UNL     1      -8.591  11.939  68.188  1.00  0.00    -0.165 A  
HETATM   24  C   UNL     1      -9.362  14.291  67.599  1.00  0.00    -0.201 C  
HETATM   25  C   UNL     1      -8.343  13.347  68.192  1.00  0.00    -0.164 A  
BRANCH  22  26
HETATM   26  C   UNL     1      -9.841  11.813  65.965  1.00  0.00    -0.232 C  
HETATM   27  C   UNL     1     -11.254  11.807  65.428  1.00  0.00    -0.310 C  
HETATM   28  C   UNL     1     -10.209  10.995  64.741  1.00  0.00    -0.381 C  
ENDBRANCH  22  26
ENDBRANCH   7  11
ENDBRANCH   2   4
TORSDOF 3
ENDMDL
MODEL      117
REMARK 921   NORMALIZED FREE ENERGY PREDICTED BY IDOCK:   -3.75 KCAL/MOL
REMARK 922        TOTAL FREE ENERGY PREDICTED BY IDOCK:   -5.09 KCAL/MOL
REMARK 923 INTER-LIGAND FREE ENERGY PREDICTED BY IDOCK:   -4.41 KCAL/MOL
REMARK 924 INTRA-LIGAND FREE ENERGY PREDICTED BY IDOCK:   -0.68 KCAL/MOL
REMARK 927      BINDING AFFINITY PREDICTED BY RF-SCORE:    0.00 PKD
ROOT
HETATM    1  C   UNL     1      -7.929   4.837  65.099  1.00  0.00    -0.097 C  
HETATM    2  N   UNL     1      -9.321   5.164  65.360  1.00  0.00    -0.285 NA 
HETATM    3  H   UNL     1     -10.095   4.600  65.005  1.00  0.00     0.000 HD 
ENDROOT
BRANCH   2   4
HETATM    4  C   UNL     1      -9.518   6.316  66.139  1.00  0.00    -0.055 A  
HETATM    5  N   UNL     1      -9.352   7.531  65.583  1.00  0.00     0.182 NA 
HETATM    6  C   UNL     1      -9.618   8.630  66.337  1.00  0.00    -0.247 A  
HETATM    7  C   UNL     1      -9.997   8.628  67.675  1.00  0.00    -0.248 A  
HETATM    8  C   UNL     1     -10.273   4.841  68.054  1.00  0.00    -0.057 C  
HETATM    9  C   UNL     1     -10.121   7.346  68.234  1.00  0.00    -0.201 A  
HETATM   10  C   UNL     1      -9.943   6.183  67.463  1.00  0.00    -0.159 A  
BRANCH   7  11
HETATM   11  C   UNL     1     -10.390   9.866  68.418  1.00  0.00    -0.226 A  
HETATM   12  C   UNL     1     -12.107  10.966  69.768  1.00  0.00    -0.409 A  
HETATM   13  C   UNL     1     -11.639   9.864  69.070  1.00  0.00     0.097 A  
HETATM   14  C   UNL     1     -11.390  12.158  69.727  1.00  0.00    -0.173 A  
HETATM   15  C   UNL     1     -11.939  13.307  70.477  1.00  0.00    -0.240 C  
HETATM   16  C   UNL     1     -11.302  14.615  70.307  1.00  0.00    -0.253 C  
HETATM   17  O   UNL     1     -12.908  13.187  71.224  1.00  0.00    -0.353 OA 
HETATM   18  C   UNL     1     -10.225  14.663  69.507  1.00  0.00    -0.022 C  
HETATM   19  C   UNL     1     -11.807  15.851  70.942  1.00  0.00    -0.417 C  
HETATM   20  O   UNL     1     -12.861  15.671  71.764  1.00  0.00    -0.407 OA 
HETATM   21  O   UNL     1     -11.311  16.952  70.754  1.00  0.00     0.053 OA 
HETATM   22  N   UNL     1      -9.602  13.596  68.868  1.00  0.00     0.009 NA 
HETATM   23  C   UNL     1     -10.179  12.276  69.010  1.00  0.00     0.089 A  
HETATM   24  C   UNL     1      -8.151  11.032  68.108  1.00  0.00    -0.122 C  
HETATM   25  C   UNL     1      -9.614  11.074  68.480  1.00  0.00    -0.187 A  
BRANCH  22  26
HETATM   26  C   UNL     1      -8.782  13.938  67.664  1.00  0.00    -0.187 C  
HETATM   27  C   UNL     1      -8.204  15.324  67.490  1.00  0.00    -0.191 C  
HETATM   28  C   UNL     1      -9.220  14.829  66.518  1.00  0.00    -0.304 C  
ENDBRANCH  22  26
ENDBRANCH   7  11
ENDBRANCH   2   4
TORSDOF 3
ENDMDL
MODEL      118
REMARK 921   NORMALIZED FREE ENERGY PREDICTED BY IDOCK:   -3.64 KCAL/MOL
REMARK 922        TOTAL FREE ENERGY PREDICTED BY IDOCK:   -4.96 KCAL/MOL
REMARK 923 INTER-LIGAND FREE ENERGY PREDICTED BY IDOCK:   -4.27 KCAL/MOL
REMARK 924 INTRA-LIGAND FREE ENERGY PREDICTED BY IDOCK:   -0.68 KCAL/MOL
REMARK 927      BINDING AFFINITY PREDICTED BY RF-SCORE:    0.00 PKD
ROOT
HETATM    1  C   UNL     1      -7.676  19.315  69.108  1.00  0.00    -0.237 C  
HETATM    2  N   UNL     1      -6.658  18.482  68.490  1.00  0.00    -0.228 NA 
HETATM    3  H   UNL     1      -5.785  18.861  68.122  1.00  0.00     0.000 HD 
ENDROOT
BRANCH   2   4
HETATM    4  C   UNL     1      -6.971  17.113  68.438  1.00  0.00    -0.195 A  
HETATM    5  N   UNL     1      -6.793  16.349  69.531  1.00  0.00    -0.222 NA 
HETATM    6  C   UNL     1      -7.170  15.044  69.479  1.00  0.00    -0.199 A  
HETATM    7  C   UNL     1      -7.680  14.388  68.363  1.00  0.00    -0.132 A  
HETATM    8  C   UNL     1      -7.860  17.449  66.090  1.00  0.00    -0.293 C  
HETATM    9  C   UNL     1      -7.813  15.205  67.229  1.00  0.00    -0.241 A  
HETATM   10  C   UNL     1      -7.520  16.580  67.269  1.00  0.00    -0.195 A  
BRANCH   7  11
HETATM   11  C   UNL     1      -8.187  12.981  68.400  1.00  0.00    -0.123 A  
HETATM   12  C   UNL     1     -10.114  11.507  68.087  1.00  0.00    -0.201 A  
HETATM   13  C   UNL     1      -9.539  12.769  68.064  1.00  0.00    -0.217 A  
HETATM   14  C   UNL     1      -9.381  10.429  68.572  1.00  0.00    -0.160 A  
HETATM   15  C   UNL     1     -10.044   9.109  68.588  1.00  0.00    -0.194 C  
HETATM   16  C   UNL     1      -9.362   7.996  69.255  1.00  0.00    -0.151 C  
HETATM   17  O   UNL     1     -11.142   8.931  68.064  1.00  0.00     0.018 OA 
HETATM   18  C   UNL     1      -8.150   8.254  69.770  1.00  0.00    -0.118 C  
HETATM   19  C   UNL     1      -9.958   6.652  69.403  1.00  0.00    -0.156 C  
HETATM   20  O   UNL     1     -11.155   6.498  68.801  1.00  0.00    -0.297 OA 
HETATM   21  O   UNL     1      -9.416   5.741  70.010  1.00  0.00    -0.152 OA 
HETATM   22  N   UNL     1      -7.433   9.443  69.687  1.00  0.00    -0.076 NA 
HETATM   23  C   UNL     1      -8.051  10.575  69.027  1.00  0.00    -0.143 A  
HETATM   24  C   UNL     1      -5.910  11.934  68.830  1.00  0.00    -0.052 C  
HETATM   25  C   UNL     1      -7.416  11.835  68.795  1.00  0.00    -0.109 A  
BRANCH  22  26
HETATM   26  C   UNL     1      -6.389   9.658  70.736  1.00  0.00    -0.097 C  
HETATM   27  C   UNL     1      -5.215   8.713  70.863  1.00  0.00    -0.028 C  
HETATM   28  C   UNL     1      -6.197   8.814  71.981  1.00  0.00    -0.075 C  
ENDBRANCH  22  26
ENDBRANCH   7  11
ENDBRANCH   2   4
TORSDOF 3
ENDMDL
MODEL      119
REMARK 921   NORMALIZED FREE ENERGY PREDICTED BY IDOCK:   -3.62 KCAL/MOL
REMARK 922        TOTAL FREE ENERGY PREDICTED BY IDOCK:   -4.94 KCAL/MOL
REMARK 923 INTER-LIGAND FREE ENERGY PREDICTED BY IDOCK:   -4.07 KCAL/MOL
REMARK 924 INTRA-LIGAND FREE ENERGY PREDICTED BY IDOCK:   -0.87 KCAL/MOL
REMARK 927      BINDING AFFINITY PREDICTED BY RF-SCORE:    0.00 PKD
ROOT
HETATM    1  C   UNL     1     -10.538  16.117  69.421  1.00  0.00    -0.300 C  
HETATM    2  N   UNL     1     -10.325  15.629  68.069  1.00  0.00    -0.241 NA 
HETATM    3  H   UNL     1     -10.578  16.170  67.242  1.00  0.00     0.000 HD 
ENDROOT
BRANCH   2   4
HETATM    4  C   UNL     1      -9.742  14.353  67.990  1.00  0.00    -0.221 A  
HETATM    5  N   UNL     1      -8.461  14.183  68.367  1.00  0.00    -0.167 NA 
HETATM    6  C   UNL     1      -7.942  12.927  68.350  1.00  0.00    -0.137 A  
HETATM    7  C   UNL     1      -8.598  11.780  67.915  1.00  0.00    -0.156 A  
HETATM    8  C   UNL     1     -11.990  13.417  67.293  1.00  0.00    -0.393 C  
HETATM    9  C   UNL     1      -9.918  12.001  67.489  1.00  0.00    -0.199 A  
HETATM   10  C   UNL     1     -10.521  13.269  67.578  1.00  0.00    -0.237 A  
BRANCH   7  11
HETATM   11  C   UNL     1      -8.014  10.407  68.030  1.00  0.00    -0.105 A  
HETATM   12  C   UNL     1      -6.483   8.764  67.061  1.00  0.00    -0.061 A  
HETATM   13  C   UNL     1      -7.069  10.021  67.058  1.00  0.00    -0.089 A  
HETATM   14  C   UNL     1      -6.922   7.805  67.969  1.00  0.00    -0.080 A  
HETATM   15  C   UNL     1      -6.274   6.478  67.921  1.00  0.00    -0.028 C  
HETATM   16  C   UNL     1      -6.836   5.401  68.741  1.00  0.00    -0.055 C  
HETATM   17  O   UNL     1      -5.291   6.264  67.214  1.00  0.00    -0.005 OA 
HETATM   18  C   UNL     1      -7.884   5.718  69.517  1.00  0.00    -0.093 C  
HETATM   19  C   UNL     1      -6.324   4.015  68.719  1.00  0.00    -0.033 C  
HETATM   20  O   UNL     1      -5.237   3.829  67.942  1.00  0.00    -0.007 OA 
HETATM   21  O   UNL     1      -6.829   3.104  69.358  1.00  0.00    -0.036 OA 
HETATM   22  N   UNL     1      -8.461   6.973  69.684  1.00  0.00    -0.133 NA 
HETATM   23  C   UNL     1      -7.940   8.079  68.910  1.00  0.00    -0.118 A  
HETATM   24  C   UNL     1      -9.100   9.890  70.270  1.00  0.00    -0.108 C  
HETATM   25  C   UNL     1      -8.374   9.437  69.025  1.00  0.00    -0.124 A  
BRANCH  22  26
HETATM   26  C   UNL     1      -9.878   6.988  70.164  1.00  0.00    -0.175 C  
HETATM   27  C   UNL     1     -10.416   5.863  71.020  1.00  0.00    -0.296 C  
HETATM   28  C   UNL     1     -10.992   6.088  69.664  1.00  0.00    -0.470 C  
ENDBRANCH  22  26
ENDBRANCH   7  11
ENDBRANCH   2   4
TORSDOF 3
ENDMDL
MODEL      120
REMARK 921   NORMALIZED FREE ENERGY PREDICTED BY IDOCK:   -3.62 KCAL/MOL
REMARK 922        TOTAL FREE ENERGY PREDICTED BY IDOCK:   -4.94 KCAL/MOL
REMARK 923 INTER-LIGAND FREE ENERGY PREDICTED BY IDOCK:   -4.32 KCAL/MOL
REMARK 924 INTRA-LIGAND FREE ENERGY PREDICTED BY IDOCK:   -0.61 KCAL/MOL
REMARK 927      BINDING AFFINITY PREDICTED BY RF-SCORE:    0.00 PKD
ROOT
HETATM    1  C   UNL     1      -5.836  18.110  69.350  1.00  0.00    -0.235 C  
HETATM    2  N   UNL     1      -6.287  17.718  68.025  1.00  0.00    -0.173 NA 
HETATM    3  H   UNL     1      -6.215  18.334  67.215  1.00  0.00     0.000 HD 
ENDROOT
BRANCH   2   4
HETATM    4  C   UNL     1      -6.829  16.425  67.948  1.00  0.00    -0.137 A  
HETATM    5  N   UNL     1      -6.014  15.374  67.734  1.00  0.00    -0.170 NA 
HETATM    6  C   UNL     1      -6.552  14.126  67.735  1.00  0.00    -0.175 A  
HETATM    7  C   UNL     1      -7.901  13.821  67.878  1.00  0.00    -0.159 A  
HETATM    8  C   UNL     1      -9.097  17.385  68.536  1.00  0.00    -0.273 C  
HETATM    9  C   UNL     1      -8.727  14.942  68.058  1.00  0.00    -0.165 A  
HETATM   10  C   UNL     1      -8.198  16.242  68.154  1.00  0.00    -0.163 A  
BRANCH   7  11
HETATM   11  C   UNL     1      -8.418  12.421  67.988  1.00  0.00    -0.176 A  
HETATM   12  C   UNL     1      -8.594  10.425  69.392  1.00  0.00    -0.143 A  
HETATM   13  C   UNL     1      -8.177  11.732  69.194  1.00  0.00     0.281 A  
HETATM   14  C   UNL     1      -9.158   9.719  68.333  1.00  0.00    -0.123 A  
HETATM   15  C   UNL     1      -9.574   8.325  68.593  1.00  0.00    -0.149 C  
HETATM   16  C   UNL     1     -10.004   7.506  67.456  1.00  0.00    -0.228 C  
HETATM   17  O   UNL     1      -9.560   7.846  69.725  1.00  0.00    -0.167 OA 
HETATM   18  C   UNL     1     -10.031   8.106  66.256  1.00  0.00    -0.077 C  
HETATM   19  C   UNL     1     -10.368   6.079  67.578  1.00  0.00    -0.210 C  
HETATM   20  O   UNL     1     -10.354   5.600  68.839  1.00  0.00    -0.190 OA 
HETATM   21  O   UNL     1     -10.670   5.380  66.622  1.00  0.00    -0.295 OA 
HETATM   22  N   UNL     1      -9.759   9.441  65.974  1.00  0.00    -0.258 NA 
HETATM   23  C   UNL     1      -9.341  10.303  67.060  1.00  0.00    -0.154 A  
HETATM   24  C   UNL     1      -9.684  12.477  65.784  1.00  0.00    -0.196 C  
HETATM   25  C   UNL     1      -9.100  11.707  66.945  1.00  0.00    -0.188 A  
BRANCH  22  26
HETATM   26  C   UNL     1      -9.354   9.748  64.567  1.00  0.00    -0.235 C  
HETATM   27  C   UNL     1      -8.657   8.707  63.719  1.00  0.00    -0.011 C  
HETATM   28  C   UNL     1      -7.933   9.959  64.080  1.00  0.00    -0.150 C  
ENDBRANCH  22  26
ENDBRANCH   7  11
ENDBRANCH   2   4
TORSDOF 3
ENDMDL
MODEL      121
REMARK 921   NORMALIZED FREE ENERGY PREDICTED BY IDOCK:   -3.49 KCAL/MOL
REMARK 922        TOTAL FREE ENERGY PREDICTED BY IDOCK:   -4.78 KCAL/MOL
REMARK 923 INTER-LIGAND FREE ENERGY PREDICTED BY IDOCK:   -3.99 KCAL/MOL
REMARK 924 INTRA-LIGAND FREE ENERGY PREDICTED BY IDOCK:   -0.79 KCAL/MOL
REMARK 927      BINDING AFFINITY PREDICTED BY RF-SCORE:    0.00 PKD
ROOT
HETATM    1  C   UNL     1      -9.858  13.872  65.384  1.00  0.00    -0.163 C  
HETATM    2  N   UNL     1     -10.652  12.656  65.331  1.00  0.00    -0.276 NA 
HETATM    3  H   UNL     1     -11.398  12.514  64.649  1.00  0.00     0.000 HD 
ENDROOT
BRANCH   2   4
HETATM    4  C   UNL     1     -10.313  11.691  66.294  1.00  0.00    -0.235 A  
HETATM    5  N   UNL     1      -9.275  10.864  66.069  1.00  0.00    -0.181 NA 
HETATM    6  C   UNL     1      -8.920   9.987  67.045  1.00  0.00    -0.138 A  
HETATM    7  C   UNL     1      -9.576   9.813  68.259  1.00  0.00    -0.155 A  
HETATM    8  C   UNL     1     -12.087  12.653  67.823  1.00  0.00    -0.157 C  
HETATM    9  C   UNL     1     -10.679  10.662  68.444  1.00  0.00    -0.260 A  
HETATM   10  C   UNL     1     -11.021  11.645  67.497  1.00  0.00    -0.312 A  
BRANCH   7  11
HETATM   11  C   UNL     1      -9.068   8.914  69.343  1.00  0.00    -0.145 A  
HETATM   12  C   UNL     1      -7.382   8.582  71.083  1.00  0.00    -0.080 A  
HETATM   13  C   UNL     1      -7.944   9.348  70.074  1.00  0.00    -0.142 A  
HETATM   14  C   UNL     1      -7.855   7.292  71.309  1.00  0.00    -0.096 A  
HETATM   15  C   UNL     1      -7.213   6.513  72.388  1.00  0.00    -0.082 C  
HETATM   16  C   UNL     1      -7.568   5.098  72.528  1.00  0.00    -0.097 C  
HETATM   17  O   UNL     1      -6.396   7.021  73.154  1.00  0.00    -0.060 OA 
HETATM   18  C   UNL     1      -8.495   4.622  71.683  1.00  0.00    -0.112 C  
HETATM   19  C   UNL     1      -6.937   4.199  73.517  1.00  0.00    -0.060 C  
HETATM   20  O   UNL     1      -6.059   4.801  74.345  1.00  0.00    -0.046 OA 
HETATM   21  O   UNL     1      -7.190   3.006  73.595  1.00  0.00    -0.043 OA 
HETATM   22  N   UNL     1      -9.210   5.336  70.726  1.00  0.00    -0.149 NA 
HETATM   23  C   UNL     1      -8.911   6.742  70.550  1.00  0.00    -0.152 A  
HETATM   24  C   UNL     1     -10.989   7.255  69.174  1.00  0.00    -0.093 C  
HETATM   25  C   UNL     1      -9.609   7.623  69.666  1.00  0.00    -0.160 A  
BRANCH  22  26
HETATM   26  C   UNL     1      -9.777   4.536  69.596  1.00  0.00    -0.218 C  
HETATM   27  C   UNL     1      -9.371   3.095  69.389  1.00  0.00    -0.225 C  
HETATM   28  C   UNL     1      -9.025   4.106  68.350  1.00  0.00    -0.157 C  
ENDBRANCH  22  26
ENDBRANCH   7  11
ENDBRANCH   2   4
TORSDOF 3
ENDMDL
MODEL      122
REMARK 921   NORMALIZED FREE ENERGY PREDICTED BY IDOCK:   -3.43 KCAL/MOL
REMARK 922        TOTAL FREE ENERGY PREDICTED BY IDOCK:   -4.72 KCAL/MOL
REMARK 923 INTER-LIGAND FREE ENERGY PREDICTED BY IDOCK:   -3.78 KCAL/MOL
REMARK 924 INTRA-LIGAND FREE ENERGY PREDICTED BY IDOCK:   -0.94 KCAL/MOL
REMARK 927      BINDING AFFINITY PREDICTED BY RF-SCORE:    0.00 PKD
ROOT
HETATM    1  C   UNL     1      -6.126  17.437  69.236  1.00  0.00    -0.231 C  
HETATM    2  N   UNL     1      -7.072  17.057  68.200  1.00  0.00    -0.172 NA 
HETATM    3  H   UNL     1      -7.606  17.742  67.664  1.00  0.00     0.000 HD 
ENDROOT
BRANCH   2   4
HETATM    4  C   UNL     1      -7.193  15.673  67.995  1.00  0.00    -0.129 A  
HETATM    5  N   UNL     1      -6.116  14.960  67.615  1.00  0.00    -0.300 NA 
HETATM    6  C   UNL     1      -6.241  13.612  67.493  1.00  0.00    -0.036 A  
HETATM    7  C   UNL     1      -7.413  12.884  67.667  1.00  0.00    -0.148 A  
HETATM    8  C   UNL     1      -9.587  15.805  68.810  1.00  0.00    -0.216 C  
HETATM    9  C   UNL     1      -8.526  13.663  68.022  1.00  0.00    -0.174 A  
HETATM   10  C   UNL     1      -8.417  15.048  68.248  1.00  0.00    -0.147 A  
BRANCH   7  11
HETATM   11  C   UNL     1      -7.462  11.388  67.634  1.00  0.00    -0.103 A  
HETATM   12  C   UNL     1      -7.825   9.398  66.259  1.00  0.00    -0.100 A  
HETATM   13  C   UNL     1      -7.737  10.775  66.395  1.00  0.00    -0.145 A  
HETATM   14  C   UNL     1      -7.765   8.593  67.392  1.00  0.00    -0.098 A  
HETATM   15  C   UNL     1      -7.878   7.133  67.194  1.00  0.00    -0.110 C  
HETATM   16  C   UNL     1      -7.996   6.278  68.378  1.00  0.00    -0.105 C  
HETATM   17  O   UNL     1      -7.879   6.631  66.071  1.00  0.00    -0.096 OA 
HETATM   18  C   UNL     1      -7.947   6.891  69.572  1.00  0.00    -0.125 C  
HETATM   19  C   UNL     1      -8.191   4.815  68.306  1.00  0.00    -0.088 C  
HETATM   20  O   UNL     1      -8.171   4.306  67.057  1.00  0.00    -0.100 OA 
HETATM   21  O   UNL     1      -8.349   4.110  69.291  1.00  0.00    -0.068 OA 
HETATM   22  N   UNL     1      -7.732   8.242  69.817  1.00  0.00    -0.096 NA 
HETATM   23  C   UNL     1      -7.595   9.135  68.685  1.00  0.00    -0.084 A  
HETATM   24  C   UNL     1      -6.669  11.086  70.031  1.00  0.00    -0.097 C  
HETATM   25  C   UNL     1      -7.295  10.530  68.774  1.00  0.00    -0.092 A  
BRANCH  22  26
HETATM   26  C   UNL     1      -8.223   8.760  71.132  1.00  0.00    -0.165 C  
HETATM   27  C   UNL     1      -9.025   7.875  72.059  1.00  0.00    -0.189 C  
HETATM   28  C   UNL     1      -9.665   9.087  71.473  1.00  0.00    -0.365 C  
ENDBRANCH  22  26
ENDBRANCH   7  11
ENDBRANCH   2   4
TORSDOF 3
ENDMDL
MODEL      123
REMARK 921   NORMALIZED FREE ENERGY PREDICTED BY IDOCK:   -3.38 KCAL/MOL
REMARK 922        TOTAL FREE ENERGY PREDICTED BY IDOCK:   -4.65 KCAL/MOL
REMARK 923 INTER-LIGAND FREE ENERGY PREDICTED BY IDOCK:   -4.33 KCAL/MOL
REMARK 924 INTRA-LIGAND FREE ENERGY PREDICTED BY IDOCK:   -0.32 KCAL/MOL
REMARK 927      BINDING AFFINITY PREDICTED BY RF-SCORE:    0.00 PKD
ROOT
HETATM    1  C   UNL     1     -13.236  13.514  73.128  1.00  0.00     0.660 C  
HETATM    2  N   UNL     1     -13.499  12.119  72.812  1.00  0.00    -0.267 NA 
HETATM    3  H   UNL     1     -14.097  11.527  73.389  1.00  0.00     0.000 HD 
ENDROOT
BRANCH   2   4
HETATM    4  C   UNL     1     -12.863  11.651  71.650  1.00  0.00    -0.349 A  
HETATM    5  N   UNL     1     -12.081  12.484  70.938  1.00  0.00    -0.189 NA 
HETATM    6  C   UNL     1     -11.420  11.988  69.859  1.00  0.00    -0.162 A  
HETATM    7  C   UNL     1     -11.519  10.690  69.369  1.00  0.00    -0.356 A  
HETATM    8  C   UNL     1     -13.754   9.333  72.149  1.00  0.00    -0.517 C  
HETATM    9  C   UNL     1     -12.374   9.860  70.111  1.00  0.00     0.021 A  
HETATM   10  C   UNL     1     -13.004  10.309  71.286  1.00  0.00    -0.517 A  
BRANCH   7  11
HETATM   11  C   UNL     1     -10.676  10.171  68.247  1.00  0.00    -0.277 A  
HETATM   12  C   UNL     1     -10.262  10.199  65.836  1.00  0.00    -0.281 A  
HETATM   13  C   UNL     1     -10.968  10.633  66.948  1.00  0.00    -0.228 A  
HETATM   14  C   UNL     1      -9.318   9.187  65.977  1.00  0.00    -0.300 A  
HETATM   15  C   UNL     1      -8.603   8.752  64.759  1.00  0.00    -0.134 C  
HETATM   16  C   UNL     1      -7.737   7.573  64.846  1.00  0.00    -0.115 C  
HETATM   17  O   UNL     1      -8.723   9.349  63.691  1.00  0.00    -0.213 OA 
HETATM   18  C   UNL     1      -7.623   6.996  66.052  1.00  0.00    -0.096 C  
HETATM   19  C   UNL     1      -7.032   6.997  63.681  1.00  0.00    -0.057 C  
HETATM   20  O   UNL     1      -7.181   7.692  62.534  1.00  0.00    -0.078 OA 
HETATM   21  O   UNL     1      -6.358   5.980  63.741  1.00  0.00    -0.028 OA 
HETATM   22  N   UNL     1      -8.182   7.428  67.250  1.00  0.00    -0.114 NA 
HETATM   23  C   UNL     1      -9.038   8.596  67.229  1.00  0.00    -0.133 A  
HETATM   24  C   UNL     1      -9.038   8.936  69.750  1.00  0.00    -0.151 C  
HETATM   25  C   UNL     1      -9.622   9.205  68.383  1.00  0.00    -0.162 A  
BRANCH  22  26
HETATM   26  C   UNL     1      -8.351   6.387  68.312  1.00  0.00    -0.116 C  
HETATM   27  C   UNL     1      -7.434   6.354  69.514  1.00  0.00    -0.093 C  
HETATM   28  C   UNL     1      -7.423   5.212  68.556  1.00  0.00    -0.074 C  
ENDBRANCH  22  26
ENDBRANCH   7  11
ENDBRANCH   2   4
TORSDOF 3
ENDMDL
MODEL      124
REMARK 921   NORMALIZED FREE ENERGY PREDICTED BY IDOCK:   -3.28 KCAL/MOL
REMARK 922        TOTAL FREE ENERGY PREDICTED BY IDOCK:   -4.54 KCAL/MOL
REMARK 923 INTER-LIGAND FREE ENERGY PREDICTED BY IDOCK:   -4.18 KCAL/MOL
REMARK 924 INTRA-LIGAND FREE ENERGY PREDICTED BY IDOCK:   -0.35 KCAL/MOL
REMARK 927      BINDING AFFINITY PREDICTED BY RF-SCORE:    0.00 PKD
ROOT
HETATM    1  C   UNL     1      -7.765   8.180  74.381  1.00  0.00    -0.232 C  
HETATM    2  N   UNL     1      -9.060   8.327  73.738  1.00  0.00    -0.226 NA 
HETATM    3  H   UNL     1      -9.865   8.740  74.210  1.00  0.00     0.000 HD 
ENDROOT
BRANCH   2   4
HETATM    4  C   UNL     1      -9.116   7.856  72.416  1.00  0.00    -0.172 A  
HETATM    5  N   UNL     1      -8.096   7.126  71.926  1.00  0.00    -0.097 NA 
HETATM    6  C   UNL     1      -8.206   6.621  70.669  1.00  0.00    -0.124 A  
HETATM    7  C   UNL     1      -9.266   6.836  69.795  1.00  0.00    -0.146 A  
HETATM    8  C   UNL     1     -11.464   8.788  72.229  1.00  0.00    -0.376 C  
HETATM    9  C   UNL     1     -10.293   7.635  70.323  1.00  0.00    -0.214 A  
HETATM   10  C   UNL     1     -10.259   8.101  71.650  1.00  0.00    -0.266 A  
BRANCH   7  11
HETATM   11  C   UNL     1      -9.384   6.157  68.466  1.00  0.00    -0.117 A  
HETATM   12  C   UNL     1     -10.896   5.396  66.702  1.00  0.00    -0.220 A  
HETATM   13  C   UNL     1     -10.675   6.027  67.916  1.00  0.00    -0.363 A  
HETATM   14  C   UNL     1      -9.840   4.759  66.057  1.00  0.00    -0.229 A  
HETATM   15  C   UNL     1     -10.132   4.090  64.773  1.00  0.00    -0.213 C  
HETATM   16  C   UNL     1      -9.084   3.266  64.165  1.00  0.00    -0.115 C  
HETATM   17  O   UNL     1     -11.223   4.207  64.216  1.00  0.00    -0.277 OA 
HETATM   18  C   UNL     1      -7.907   3.217  64.807  1.00  0.00    -0.078 C  
HETATM   19  C   UNL     1      -9.283   2.487  62.924  1.00  0.00    -0.091 C  
HETATM   20  O   UNL     1     -10.487   2.656  62.341  1.00  0.00    -0.109 OA 
HETATM   21  O   UNL     1      -8.430   1.754  62.449  1.00  0.00    -0.065 OA 
HETATM   22  N   UNL     1      -7.542   3.912  65.955  1.00  0.00    -0.087 NA 
HETATM   23  C   UNL     1      -8.533   4.754  66.594  1.00  0.00    -0.106 A  
HETATM   24  C   UNL     1      -6.876   5.985  68.081  1.00  0.00    -0.070 C  
HETATM   25  C   UNL     1      -8.290   5.587  67.730  1.00  0.00    -0.099 A  
BRANCH  22  26
HETATM   26  C   UNL     1      -6.421   3.326  66.753  1.00  0.00    -0.037 C  
HETATM   27  C   UNL     1      -5.939   1.917  66.489  1.00  0.00    -0.019 C  
HETATM   28  C   UNL     1      -6.555   2.243  67.807  1.00  0.00    -0.035 C  
ENDBRANCH  22  26
ENDBRANCH   7  11
ENDBRANCH   2   4
TORSDOF 3
ENDMDL
MODEL      125
REMARK 921   NORMALIZED FREE ENERGY PREDICTED BY IDOCK:   -3.25 KCAL/MOL
REMARK 922        TOTAL FREE ENERGY PREDICTED BY IDOCK:   -4.50 KCAL/MOL
REMARK 923 INTER-LIGAND FREE ENERGY PREDICTED BY IDOCK:   -3.89 KCAL/MOL
REMARK 924 INTRA-LIGAND FREE ENERGY PREDICTED BY IDOCK:   -0.61 KCAL/MOL
REMARK 927      BINDING AFFINITY PREDICTED BY RF-SCORE:    0.00 PKD
ROOT
HETATM    1  C   UNL     1      -7.599   2.082  67.999  1.00  0.00    -0.054 C  
HETATM    2  N   UNL     1      -8.396   2.723  66.966  1.00  0.00    -0.089 NA 
HETATM    3  H   UNL     1      -8.818   2.205  66.196  1.00  0.00     0.000 HD 
ENDROOT
BRANCH   2   4
HETATM    4  C   UNL     1      -8.539   4.113  67.112  1.00  0.00    -0.104 A  
HETATM    5  N   UNL     1      -7.689   4.789  67.908  1.00  0.00    -0.082 NA 
HETATM    6  C   UNL     1      -7.802   6.142  67.977  1.00  0.00    -0.106 A  
HETATM    7  C   UNL     1      -8.769   6.911  67.339  1.00  0.00    -0.119 A  
HETATM    8  C   UNL     1     -10.385   4.063  65.380  1.00  0.00    -0.092 C  
HETATM    9  C   UNL     1      -9.664   6.170  66.551  1.00  0.00    -0.184 A  
HETATM   10  C   UNL     1      -9.524   4.781  66.381  1.00  0.00    -0.159 A  
BRANCH   7  11
HETATM   11  C   UNL     1      -8.770   8.408  67.359  1.00  0.00    -0.136 A  
HETATM   12  C   UNL     1      -8.745  10.420  68.750  1.00  0.00    -0.146 A  
HETATM   13  C   UNL     1      -8.726   9.040  68.618  1.00  0.00    -0.133 A  
HETATM   14  C   UNL     1      -8.937  11.213  67.622  1.00  0.00    -0.140 A  
HETATM   15  C   UNL     1      -8.961  12.677  67.819  1.00  0.00    -0.189 C  
HETATM   16  C   UNL     1      -9.337  13.524  66.684  1.00  0.00    -0.254 C  
HETATM   17  O   UNL     1      -8.682  13.189  68.901  1.00  0.00     0.090 OA 
HETATM   18  C   UNL     1      -9.591  12.899  65.523  1.00  0.00     0.029 C  
HETATM   19  C   UNL     1      -9.473  14.993  66.778  1.00  0.00    -0.246 C  
HETATM   20  O   UNL     1      -9.142  15.512  67.978  1.00  0.00    -0.180 OA 
HETATM   21  O   UNL     1      -9.843  15.693  65.847  1.00  0.00    -0.299 OA 
HETATM   22  N   UNL     1      -9.474  11.540  65.254  1.00  0.00    -0.215 NA 
HETATM   23  C   UNL     1      -9.093  10.654  66.335  1.00  0.00    -0.164 A  
HETATM   24  C   UNL     1      -8.565   8.665  64.838  1.00  0.00    -0.163 C  
HETATM   25  C   UNL     1      -8.859   9.250  66.199  1.00  0.00    -0.183 A  
BRANCH  22  26
HETATM   26  C   UNL     1     -10.279  11.024  64.103  1.00  0.00    -0.357 C  
HETATM   27  C   UNL     1     -10.314  11.772  62.789  1.00  0.00     0.219 C  
HETATM   28  C   UNL     1     -11.568  11.629  63.581  1.00  0.00    -0.435 C  
ENDBRANCH  22  26
ENDBRANCH   7  11
ENDBRANCH   2   4
TORSDOF 3
ENDMDL
MODEL      126
REMARK 921   NORMALIZED FREE ENERGY PREDICTED BY IDOCK:   -3.04 KCAL/MOL
REMARK 922        TOTAL FREE ENERGY PREDICTED BY IDOCK:   -4.26 KCAL/MOL
REMARK 923 INTER-LIGAND FREE ENERGY PREDICTED BY IDOCK:   -4.48 KCAL/MOL
REMARK 924 INTRA-LIGAND FREE ENERGY PREDICTED BY IDOCK:    0.23 KCAL/MOL
REMARK 927      BINDING AFFINITY PREDICTED BY RF-SCORE:    0.00 PKD
ROOT
HETATM    1  C   UNL     1     -12.984  14.369  73.022  1.00  0.00    -0.472 C  
HETATM    2  N   UNL     1     -13.607  13.128  72.593  1.00  0.00    -0.662 NA 
HETATM    3  H   UNL     1     -14.436  12.742  73.046  1.00  0.00     0.000 HD 
ENDROOT
BRANCH   2   4
HETATM    4  C   UNL     1     -12.977  12.499  71.505  1.00  0.00    -0.280 A  
HETATM    5  N   UNL     1     -12.488  13.247  70.499  1.00  0.00    -0.296 NA 
HETATM    6  C   UNL     1     -11.820  12.623  69.493  1.00  0.00    -0.312 A  
HETATM    7  C   UNL     1     -11.638  11.249  69.366  1.00  0.00    -0.390 A  
HETATM    8  C   UNL     1     -13.227  10.279  72.697  1.00  0.00     0.386 C  
HETATM    9  C   UNL     1     -12.197  10.497  70.412  1.00  0.00    -0.415 A  
HETATM   10  C   UNL     1     -12.815  11.112  71.516  1.00  0.00    -0.542 A  
BRANCH   7  11
HETATM   11  C   UNL     1     -10.792  10.630  68.298  1.00  0.00    -0.287 A  
HETATM   12  C   UNL     1     -10.422   8.670  66.882  1.00  0.00    -0.329 A  
HETATM   13  C   UNL     1     -11.150   9.341  67.852  1.00  0.00     0.068 A  
HETATM   14  C   UNL     1      -9.231   9.219  66.417  1.00  0.00    -0.227 A  
HETATM   15  C   UNL     1      -8.487   8.456  65.393  1.00  0.00    -0.176 C  
HETATM   16  C   UNL     1      -7.149   8.922  65.017  1.00  0.00    -0.083 C  
HETATM   17  O   UNL     1      -8.960   7.453  64.863  1.00  0.00     0.294 OA 
HETATM   18  C   UNL     1      -6.714  10.046  65.606  1.00  0.00    -0.105 C  
HETATM   19  C   UNL     1      -6.278   8.201  64.064  1.00  0.00    -0.066 C  
HETATM   20  O   UNL     1      -6.843   7.115  63.497  1.00  0.00    -0.050 OA 
HETATM   21  O   UNL     1      -5.141   8.556  63.795  1.00  0.00    -0.053 OA 
HETATM   22  N   UNL     1      -7.414  10.862  66.489  1.00  0.00    -0.138 NA 
HETATM   23  C   UNL     1      -8.747  10.459  66.888  1.00  0.00    -0.126 A  
HETATM   24  C   UNL     1      -9.382  12.707  67.896  1.00  0.00    -0.204 C  
HETATM   25  C   UNL     1      -9.618  11.225  67.724  1.00  0.00    -0.181 A  
BRANCH  22  26
HETATM   26  C   UNL     1      -6.586  11.727  67.386  1.00  0.00    -0.118 C  
HETATM   27  C   UNL     1      -6.431  13.204  67.105  1.00  0.00     0.280 C  
HETATM   28  C   UNL     1      -5.233  12.319  67.043  1.00  0.00     0.004 C  
ENDBRANCH  22  26
ENDBRANCH   7  11
ENDBRANCH   2   4
TORSDOF 3
ENDMDL
MODEL      127
REMARK 921   NORMALIZED FREE ENERGY PREDICTED BY IDOCK:   -3.00 KCAL/MOL
REMARK 922        TOTAL FREE ENERGY PREDICTED BY IDOCK:   -4.21 KCAL/MOL
REMARK 923 INTER-LIGAND FREE ENERGY PREDICTED BY IDOCK:   -3.32 KCAL/MOL
REMARK 924 INTRA-LIGAND FREE ENERGY PREDICTED BY IDOCK:   -0.89 KCAL/MOL
REMARK 927      BINDING AFFINITY PREDICTED BY RF-SCORE:    0.00 PKD
ROOT
HETATM    1  C   UNL     1      -6.405  16.711  68.153  1.00  0.00    -0.135 C  
HETATM    2  N   UNL     1      -5.325  15.739  68.200  1.00  0.00    -0.106 NA 
HETATM    3  H   UNL     1      -4.350  15.991  68.040  1.00  0.00     0.000 HD 
ENDROOT
BRANCH   2   4
HETATM    4  C   UNL     1      -5.731  14.424  68.483  1.00  0.00    -0.096 A  
HETATM    5  N   UNL     1      -6.074  13.602  67.474  1.00  0.00    -0.335 NA 
HETATM    6  C   UNL     1      -6.393  12.314  67.766  1.00  0.00    -0.101 A  
HETATM    7  C   UNL     1      -6.460  11.761  69.041  1.00  0.00    -0.084 A  
HETATM    8  C   UNL     1      -5.194  14.829  70.925  1.00  0.00    -0.132 C  
HETATM    9  C   UNL     1      -6.136  12.656  70.073  1.00  0.00    -0.115 A  
HETATM   10  C   UNL     1      -5.712  13.971  69.805  1.00  0.00    -0.108 A  
BRANCH   7  11
HETATM   11  C   UNL     1      -6.703  10.306  69.291  1.00  0.00    -0.063 A  
HETATM   12  C   UNL     1      -5.689   8.122  69.726  1.00  0.00    -0.026 A  
HETATM   13  C   UNL     1      -5.576   9.487  69.506  1.00  0.00    -0.034 A  
HETATM   14  C   UNL     1      -6.934   7.511  69.612  1.00  0.00    -0.053 A  
HETATM   15  C   UNL     1      -6.997   6.053  69.843  1.00  0.00    -0.070 C  
HETATM   16  C   UNL     1      -8.256   5.358  69.556  1.00  0.00    -0.096 C  
HETATM   17  O   UNL     1      -6.028   5.421  70.260  1.00  0.00    -0.019 OA 
HETATM   18  C   UNL     1      -9.282   6.117  69.141  1.00  0.00    -0.127 C  
HETATM   19  C   UNL     1      -8.418   3.894  69.673  1.00  0.00    -0.057 C  
HETATM   20  O   UNL     1      -7.336   3.244  70.148  1.00  0.00    -0.041 OA 
HETATM   21  O   UNL     1      -9.449   3.308  69.378  1.00  0.00    -0.167 OA 
HETATM   22  N   UNL     1      -9.310   7.502  69.014  1.00  0.00    -0.146 NA 
HETATM   23  C   UNL     1      -8.099   8.244  69.297  1.00  0.00    -0.116 A  
HETATM   24  C   UNL     1      -9.234  10.519  69.406  1.00  0.00    -0.128 C  
HETATM   25  C   UNL     1      -7.991   9.670  69.285  1.00  0.00    -0.104 A  
BRANCH  22  26
HETATM   26  C   UNL     1     -10.335   8.057  68.076  1.00  0.00    -0.206 C  
HETATM   27  C   UNL     1     -11.025   7.164  67.070  1.00  0.00    -0.304 C  
HETATM   28  C   UNL     1     -10.150   8.269  66.586  1.00  0.00    -0.351 C  
ENDBRANCH  22  26
ENDBRANCH   7  11
ENDBRANCH   2   4
TORSDOF 3
ENDMDL
MODEL      128
REMARK 921   NORMALIZED FREE ENERGY PREDICTED BY IDOCK:   -2.91 KCAL/MOL
REMARK 922        TOTAL FREE ENERGY PREDICTED BY IDOCK:   -4.10 KCAL/MOL
REMARK 923 INTER-LIGAND FREE ENERGY PREDICTED BY IDOCK:   -3.58 KCAL/MOL
REMARK 924 INTRA-LIGAND FREE ENERGY PREDICTED BY IDOCK:   -0.52 KCAL/MOL
REMARK 927      BINDING AFFINITY PREDICTED BY RF-SCORE:    0.00 PKD
ROOT
HETATM    1  C   UNL     1      -9.545  16.274  66.134  1.00  0.00    -0.331 C  
HETATM    2  N   UNL     1     -10.032  15.239  67.031  1.00  0.00    -0.232 NA 
HETATM    3  H   UNL     1     -10.703  15.428  67.776  1.00  0.00     0.000 HD 
ENDROOT
BRANCH   2   4
HETATM    4  C   UNL     1      -9.507  13.959  66.791  1.00  0.00    -0.279 A  
HETATM    5  N   UNL     1      -8.262  13.662  67.207  1.00  0.00    -0.173 NA 
HETATM    6  C   UNL     1      -7.803  12.395  67.028  1.00  0.00    -0.085 A  
HETATM    7  C   UNL     1      -8.484  11.365  66.388  1.00  0.00    -0.160 A  
HETATM    8  C   UNL     1     -11.748  13.265  65.837  1.00  0.00    -0.403 C  
HETATM    9  C   UNL     1      -9.763  11.721  65.929  1.00  0.00    -0.259 A  
HETATM   10  C   UNL     1     -10.309  12.994  66.176  1.00  0.00    -0.285 A  
BRANCH   7  11
HETATM   11  C   UNL     1      -7.974   9.960  66.325  1.00  0.00    -0.108 A  
HETATM   12  C   UNL     1      -7.359   8.086  64.878  1.00  0.00    -0.084 A  
HETATM   13  C   UNL     1      -7.806   9.387  65.048  1.00  0.00    -0.115 A  
HETATM   14  C   UNL     1      -7.186   7.270  65.993  1.00  0.00    -0.074 A  
HETATM   15  C   UNL     1      -6.722   5.887  65.756  1.00  0.00    -0.048 C  
HETATM   16  C   UNL     1      -6.702   4.958  66.889  1.00  0.00    -0.054 C  
HETATM   17  O   UNL     1      -6.361   5.508  64.644  1.00  0.00    -0.028 OA 
HETATM   18  C   UNL     1      -7.072   5.452  68.081  1.00  0.00    -0.067 C  
HETATM   19  C   UNL     1      -6.333   3.533  66.762  1.00  0.00    -0.036 C  
HETATM   20  O   UNL     1      -5.930   3.164  65.529  1.00  0.00    -0.018 OA 
HETATM   21  O   UNL     1      -6.373   2.744  67.694  1.00  0.00    -0.031 OA 
HETATM   22  N   UNL     1      -7.410   6.768  68.381  1.00  0.00    -0.085 NA 
HETATM   23  C   UNL     1      -7.434   7.735  67.303  1.00  0.00    -0.093 A  
HETATM   24  C   UNL     1      -7.514   9.777  68.819  1.00  0.00    -0.075 C  
HETATM   25  C   UNL     1      -7.686   9.133  67.463  1.00  0.00    -0.092 A  
BRANCH  22  26
HETATM   26  C   UNL     1      -8.258   6.970  69.596  1.00  0.00    -0.131 C  
HETATM   27  C   UNL     1      -7.668   6.833  70.982  1.00  0.00    -0.097 C  
HETATM   28  C   UNL     1      -8.726   5.880  70.542  1.00  0.00    -0.140 C  
ENDBRANCH  22  26
ENDBRANCH   7  11
ENDBRANCH   2   4
TORSDOF 3
ENDMDL
MODEL      129
REMARK 921   NORMALIZED FREE ENERGY PREDICTED BY IDOCK:   -2.82 KCAL/MOL
REMARK 922        TOTAL FREE ENERGY PREDICTED BY IDOCK:   -3.99 KCAL/MOL
REMARK 923 INTER-LIGAND FREE ENERGY PREDICTED BY IDOCK:   -3.39 KCAL/MOL
REMARK 924 INTRA-LIGAND FREE ENERGY PREDICTED BY IDOCK:   -0.60 KCAL/MOL
REMARK 927      BINDING AFFINITY PREDICTED BY RF-SCORE:    0.00 PKD
ROOT
HETATM    1  C   UNL     1      -7.885   1.663  69.582  1.00  0.00    -0.042 C  
HETATM    2  N   UNL     1      -7.331   2.624  70.521  1.00  0.00    -0.033 NA 
HETATM    3  H   UNL     1      -6.773   2.346  71.329  1.00  0.00     0.000 HD 
ENDROOT
BRANCH   2   4
HETATM    4  C   UNL     1      -7.624   3.967  70.229  1.00  0.00    -0.045 A  
HETATM    5  N   UNL     1      -8.214   4.279  69.059  1.00  0.00    -0.071 NA 
HETATM    6  C   UNL     1      -8.552   5.575  68.830  1.00  0.00    -0.100 A  
HETATM    7  C   UNL     1      -8.291   6.647  69.677  1.00  0.00    -0.132 A  
HETATM    8  C   UNL     1      -6.830   4.601  72.548  1.00  0.00    -0.060 C  
HETATM    9  C   UNL     1      -7.638   6.291  70.868  1.00  0.00    -0.096 A  
HETATM   10  C   UNL     1      -7.353   4.950  71.183  1.00  0.00    -0.068 A  
BRANCH   7  11
HETATM   11  C   UNL     1      -8.793   8.034  69.423  1.00  0.00    -0.144 A  
HETATM   12  C   UNL     1     -10.751   9.444  69.026  1.00  0.00    -0.209 A  
HETATM   13  C   UNL     1     -10.185   8.205  69.284  1.00  0.00    -0.216 A  
HETATM   14  C   UNL     1      -9.926  10.535  68.772  1.00  0.00    -0.200 A  
HETATM   15  C   UNL     1     -10.580  11.830  68.490  1.00  0.00    -0.217 C  
HETATM   16  C   UNL     1      -9.744  12.949  68.047  1.00  0.00    -0.224 C  
HETATM   17  O   UNL     1     -11.794  11.981  68.613  1.00  0.00    -0.310 OA 
HETATM   18  C   UNL     1      -8.423  12.722  67.973  1.00  0.00    -0.177 C  
HETATM   19  C   UNL     1     -10.291  14.267  67.660  1.00  0.00    -0.248 C  
HETATM   20  O   UNL     1     -11.623  14.393  67.826  1.00  0.00    -0.319 OA 
HETATM   21  O   UNL     1      -9.600  15.180  67.235  1.00  0.00    -0.206 OA 
HETATM   22  N   UNL     1      -7.745  11.562  68.332  1.00  0.00    -0.122 NA 
HETATM   23  C   UNL     1      -8.518  10.426  68.790  1.00  0.00    -0.132 A  
HETATM   24  C   UNL     1      -6.529   9.150  69.735  1.00  0.00    -0.039 C  
HETATM   25  C   UNL     1      -7.964   9.196  69.265  1.00  0.00    -0.097 A  
BRANCH  22  26
HETATM   26  C   UNL     1      -6.406  11.358  67.697  1.00  0.00    -0.062 C  
HETATM   27  C   UNL     1      -5.222  12.208  68.100  1.00  0.00    -0.058 C  
HETATM   28  C   UNL     1      -5.743  12.295  66.705  1.00  0.00     0.232 C  
ENDBRANCH  22  26
ENDBRANCH   7  11
ENDBRANCH   2   4
TORSDOF 3
ENDMDL
MODEL      130
REMARK 921   NORMALIZED FREE ENERGY PREDICTED BY IDOCK:   -2.56 KCAL/MOL
REMARK 922        TOTAL FREE ENERGY PREDICTED BY IDOCK:   -3.68 KCAL/MOL
REMARK 923 INTER-LIGAND FREE ENERGY PREDICTED BY IDOCK:   -2.92 KCAL/MOL
REMARK 924 INTRA-LIGAND FREE ENERGY PREDICTED BY IDOCK:   -0.76 KCAL/MOL
REMARK 927      BINDING AFFINITY PREDICTED BY RF-SCORE:    0.00 PKD
ROOT
HETATM    1  C   UNL     1      -7.476   5.571  70.885  1.00  0.00    -0.089 C  
HETATM    2  N   UNL     1      -7.490   5.879  69.465  1.00  0.00    -0.075 NA 
HETATM    3  H   UNL     1      -7.220   5.201  68.752  1.00  0.00     0.000 HD 
ENDROOT
BRANCH   2   4
HETATM    4  C   UNL     1      -7.904   7.184  69.151  1.00  0.00    -0.118 A  
HETATM    5  N   UNL     1      -9.065   7.651  69.647  1.00  0.00    -0.147 NA 
HETATM    6  C   UNL     1      -9.409   8.940  69.388  1.00  0.00    -0.153 A  
HETATM    7  C   UNL     1      -8.694   9.830  68.594  1.00  0.00    -0.122 A  
HETATM    8  C   UNL     1      -5.709   7.544  67.939  1.00  0.00    -0.035 C  
HETATM    9  C   UNL     1      -7.510   9.298  68.060  1.00  0.00    -0.083 A  
HETATM   10  C   UNL     1      -7.073   7.999  68.378  1.00  0.00    -0.084 A  
BRANCH   7  11
HETATM   11  C   UNL     1      -9.063  11.272  68.442  1.00  0.00    -0.170 A  
HETATM   12  C   UNL     1     -10.697  12.870  67.569  1.00  0.00    -0.241 A  
HETATM   13  C   UNL     1     -10.272  11.567  67.780  1.00  0.00    -0.200 A  
HETATM   14  C   UNL     1      -9.856  13.927  67.904  1.00  0.00    -0.228 A  
HETATM   15  C   UNL     1     -10.351  15.295  67.645  1.00  0.00    -0.250 C  
HETATM   16  C   UNL     1      -9.422  16.415  67.822  1.00  0.00    -0.222 C  
HETATM   17  O   UNL     1     -11.508  15.507  67.286  1.00  0.00    -0.246 OA 
HETATM   18  C   UNL     1      -8.188  16.111  68.254  1.00  0.00    -0.162 C  
HETATM   19  C   UNL     1      -9.776  17.818  67.521  1.00  0.00    -0.284 C  
HETATM   20  O   UNL     1     -11.058  18.006  67.144  1.00  0.00    -0.126 OA 
HETATM   21  O   UNL     1      -8.984  18.743  67.612  1.00  0.00    -0.276 OA 
HETATM   22  N   UNL     1      -7.705  14.859  68.618  1.00  0.00    -0.120 NA 
HETATM   23  C   UNL     1      -8.583  13.715  68.477  1.00  0.00    -0.103 A  
HETATM   24  C   UNL     1      -7.153  12.144  69.877  1.00  0.00     0.623 C  
HETATM   25  C   UNL     1      -8.261  12.381  68.878  1.00  0.00     0.215 A  
BRANCH  22  26
HETATM   26  C   UNL     1      -6.221  14.683  68.563  1.00  0.00    -0.089 C  
HETATM   27  C   UNL     1      -5.295  15.770  69.061  1.00  0.00    -0.103 C  
HETATM   28  C   UNL     1      -5.277  15.400  67.617  1.00  0.00    -0.033 C  
ENDBRANCH  22  26
ENDBRANCH   7  11
ENDBRANCH   2   4
TORSDOF 3
ENDMDL
MODEL      131
REMARK 921   NORMALIZED FREE ENERGY PREDICTED BY IDOCK:   -2.17 KCAL/MOL
REMARK 922        TOTAL FREE ENERGY PREDICTED BY IDOCK:   -3.23 KCAL/MOL
REMARK 923 INTER-LIGAND FREE ENERGY PREDICTED BY IDOCK:   -2.55 KCAL/MOL
REMARK 924 INTRA-LIGAND FREE ENERGY PREDICTED BY IDOCK:   -0.68 KCAL/MOL
REMARK 927      BINDING AFFINITY PREDICTED BY RF-SCORE:    0.00 PKD
ROOT
HETATM    1  C   UNL     1      -6.403   6.347  71.857  1.00  0.00    -0.043 C  
HETATM    2  N   UNL     1      -6.067   7.755  71.992  1.00  0.00    -0.039 NA 
HETATM    3  H   UNL     1      -5.469   8.110  72.738  1.00  0.00     0.000 HD 
ENDROOT
BRANCH   2   4
HETATM    4  C   UNL     1      -6.632   8.590  71.012  1.00  0.00    -0.048 A  
HETATM    5  N   UNL     1      -7.584   8.104  70.193  1.00  0.00    -0.075 NA 
HETATM    6  C   UNL     1      -8.166   8.950  69.302  1.00  0.00    -0.114 A  
HETATM    7  C   UNL     1      -7.827  10.284  69.106  1.00  0.00    -0.127 A  
HETATM    8  C   UNL     1      -5.286  10.522  71.944  1.00  0.00     0.134 C  
HETATM    9  C   UNL     1      -6.803  10.747  69.948  1.00  0.00    -0.146 A  
HETATM   10  C   UNL     1      -6.240   9.929  70.945  1.00  0.00    -0.070 A  
BRANCH   7  11
HETATM   11  C   UNL     1      -8.584  11.196  68.192  1.00  0.00    -0.140 A  
HETATM   12  C   UNL     1     -10.237  12.991  68.025  1.00  0.00    -0.233 A  
HETATM   13  C   UNL     1      -9.473  12.117  68.783  1.00  0.00     0.048 A  
HETATM   14  C   UNL     1     -10.229  12.883  66.638  1.00  0.00    -0.251 A  
HETATM   15  C   UNL     1     -11.071  13.830  65.878  1.00  0.00    -0.286 C  
HETATM   16  C   UNL     1     -11.218  13.625  64.435  1.00  0.00    -0.382 C  
HETATM   17  O   UNL     1     -11.645  14.769  66.427  1.00  0.00    -0.356 OA 
HETATM   18  C   UNL     1     -10.531  12.605  63.897  1.00  0.00    -0.411 C  
HETATM   19  C   UNL     1     -12.093  14.458  63.583  1.00  0.00     0.187 C  
HETATM   20  O   UNL     1     -12.691  15.483  64.223  1.00  0.00    -0.403 OA 
HETATM   21  O   UNL     1     -12.262  14.251  62.391  1.00  0.00     1.253 OA 
HETATM   22  N   UNL     1      -9.640  11.755  64.544  1.00  0.00    -0.133 NA 
HETATM   23  C   UNL     1      -9.444  11.918  65.969  1.00  0.00    -0.229 A  
HETATM   24  C   UNL     1      -7.352  10.474  66.088  1.00  0.00    -0.136 C  
HETATM   25  C   UNL     1      -8.510  11.176  66.758  1.00  0.00    -0.153 A  
BRANCH  22  26
HETATM   26  C   UNL     1      -9.410  10.426  63.896  1.00  0.00    -0.279 C  
HETATM   27  C   UNL     1      -8.312  10.246  62.872  1.00  0.00    -0.172 C  
HETATM   28  C   UNL     1      -9.734  10.073  62.457  1.00  0.00     0.052 C  
ENDBRANCH  22  26
ENDBRANCH   7  11
ENDBRANCH   2   4
TORSDOF 3
ENDMDL
MODEL      132
REMARK 921   NORMALIZED FREE ENERGY PREDICTED BY IDOCK:   -2.07 KCAL/MOL
REMARK 922        TOTAL FREE ENERGY PREDICTED BY IDOCK:   -3.11 KCAL/MOL
REMARK 923 INTER-LIGAND FREE ENERGY PREDICTED BY IDOCK:   -3.47 KCAL/MOL
REMARK 924 INTRA-LIGAND FREE ENERGY PREDICTED BY IDOCK:    0.36 KCAL/MOL
REMARK 927      BINDING AFFINITY PREDICTED BY RF-SCORE:    0.00 PKD
ROOT
HETATM    1  C   UNL     1      -5.885  16.752  70.337  1.00  0.00    -0.032 C  
HETATM    2  N   UNL     1      -5.773  15.491  71.052  1.00  0.00     0.044 NA 
HETATM    3  H   UNL     1      -5.510  15.437  72.036  1.00  0.00     0.000 HD 
ENDROOT
BRANCH   2   4
HETATM    4  C   UNL     1      -6.057  14.352  70.280  1.00  0.00    -0.172 A  
HETATM    5  N   UNL     1      -5.291  13.253  70.412  1.00  0.00    -0.115 NA 
HETATM    6  C   UNL     1      -5.628  12.140  69.708  1.00  0.00    -0.100 A  
HETATM    7  C   UNL     1      -6.676  12.038  68.799  1.00  0.00    -0.087 A  
HETATM    8  C   UNL     1      -8.115  15.524  69.383  1.00  0.00    -0.241 C  
HETATM    9  C   UNL     1      -7.428  13.215  68.655  1.00  0.00    -0.092 A  
HETATM   10  C   UNL     1      -7.167  14.358  69.433  1.00  0.00    -0.086 A  
BRANCH   7  11
HETATM   11  C   UNL     1      -7.070  10.751  68.143  1.00  0.00    -0.078 A  
HETATM   12  C   UNL     1      -7.223   9.505  66.044  1.00  0.00    -0.093 A  
HETATM   13  C   UNL     1      -6.873  10.645  66.751  1.00  0.00    -0.108 A  
HETATM   14  C   UNL     1      -7.902   8.478  66.691  1.00  0.00    -0.090 A  
HETATM   15  C   UNL     1      -8.264   7.292  65.889  1.00  0.00    -0.132 C  
HETATM   16  C   UNL     1      -9.131   6.279  66.498  1.00  0.00    -0.162 C  
HETATM   17  O   UNL     1      -7.861   7.144  64.736  1.00  0.00    -0.115 OA 
HETATM   18  C   UNL     1      -9.499   6.488  67.771  1.00  0.00    -0.119 C  
HETATM   19  C   UNL     1      -9.623   5.090  65.770  1.00  0.00    -0.148 C  
HETATM   20  O   UNL     1      -9.145   4.960  64.516  1.00  0.00    -0.139 OA 
HETATM   21  O   UNL     1     -10.393   4.277  66.259  1.00  0.00    -0.189 OA 
HETATM   22  N   UNL     1      -9.099   7.526  68.606  1.00  0.00    -0.135 NA 
HETATM   23  C   UNL     1      -8.231   8.550  68.063  1.00  0.00    -0.120 A  
HETATM   24  C   UNL     1      -7.597   9.544  70.318  1.00  0.00    -0.162 C  
HETATM   25  C   UNL     1      -7.675   9.634  68.812  1.00  0.00    -0.080 A  
BRANCH  22  26
HETATM   26  C   UNL     1     -10.006   7.834  69.755  1.00  0.00    -0.189 C  
HETATM   27  C   UNL     1     -10.052   6.931  70.967  1.00  0.00    -0.206 C  
HETATM   28  C   UNL     1     -11.268   7.075  70.117  1.00  0.00    -0.325 C  
ENDBRANCH  22  26
ENDBRANCH   7  11
ENDBRANCH   2   4
TORSDOF 3
ENDMDL
MODEL      133
REMARK 921   NORMALIZED FREE ENERGY PREDICTED BY IDOCK:   -1.79 KCAL/MOL
REMARK 922        TOTAL FREE ENERGY PREDICTED BY IDOCK:   -2.79 KCAL/MOL
REMARK 923 INTER-LIGAND FREE ENERGY PREDICTED BY IDOCK:   -2.51 KCAL/MOL
REMARK 924 INTRA-LIGAND FREE ENERGY PREDICTED BY IDOCK:   -0.28 KCAL/MOL
REMARK 927      BINDING AFFINITY PREDICTED BY RF-SCORE:    0.00 PKD
ROOT
HETATM    1  C   UNL     1     -11.604   3.800  73.351  1.00  0.00     0.025 C  
HETATM    2  N   UNL     1     -10.285   4.074  72.804  1.00  0.00    -0.159 NA 
HETATM    3  H   UNL     1      -9.447   3.583  73.116  1.00  0.00     0.000 HD 
ENDROOT
BRANCH   2   4
HETATM    4  C   UNL     1     -10.255   5.069  71.813  1.00  0.00    -0.207 A  
HETATM    5  N   UNL     1     -10.904   4.868  70.650  1.00  0.00     0.140 NA 
HETATM    6  C   UNL     1     -10.921   5.873  69.735  1.00  0.00    -0.382 A  
HETATM    7  C   UNL     1     -10.270   7.097  69.858  1.00  0.00    -0.215 A  
HETATM    8  C   UNL     1      -9.000   6.572  73.418  1.00  0.00    -0.135 C  
HETATM    9  C   UNL     1      -9.570   7.256  71.064  1.00  0.00    -0.158 A  
HETATM   10  C   UNL     1      -9.604   6.277  72.074  1.00  0.00    -0.161 A  
BRANCH   7  11
HETATM   11  C   UNL     1     -10.423   8.209  68.868  1.00  0.00    -0.202 A  
HETATM   12  C   UNL     1     -11.009   8.820  66.573  1.00  0.00     0.728 A  
HETATM   13  C   UNL     1     -10.855   7.869  67.570  1.00  0.00    -0.152 A  
HETATM   14  C   UNL     1     -10.611  10.132  66.810  1.00  0.00    -0.239 A  
HETATM   15  C   UNL     1     -10.783  11.103  65.710  1.00  0.00    -0.188 C  
HETATM   16  C   UNL     1     -10.212  12.443  65.870  1.00  0.00    -0.273 C  
HETATM   17  O   UNL     1     -11.384  10.810  64.678  1.00  0.00     0.260 OA 
HETATM   18  C   UNL     1      -9.605  12.704  67.039  1.00  0.00    -0.219 C  
HETATM   19  C   UNL     1     -10.252  13.473  64.811  1.00  0.00    -0.332 C  
HETATM   20  O   UNL     1     -10.933  13.115  63.704  1.00  0.00    -0.290 OA 
HETATM   21  O   UNL     1      -9.725  14.569  64.922  1.00  0.00    -0.071 OA 
HETATM   22  N   UNL     1      -9.512  11.868  68.146  1.00  0.00    -0.190 NA 
HETATM   23  C   UNL     1     -10.070  10.535  68.052  1.00  0.00    -0.165 A  
HETATM   24  C   UNL     1      -9.991  10.066  70.551  1.00  0.00    -0.038 C  
HETATM   25  C   UNL     1     -10.121   9.590  69.123  1.00  0.00    -0.200 A  
BRANCH  22  26
HETATM   26  C   UNL     1      -8.389  12.151  69.094  1.00  0.00     0.494 C  
HETATM   27  C   UNL     1      -7.318  13.158  68.742  1.00  0.00    -0.068 C  
HETATM   28  C   UNL     1      -6.945  11.724  68.909  1.00  0.00    -0.109 C  
ENDBRANCH  22  26
ENDBRANCH   7  11
ENDBRANCH   2   4
TORSDOF 3
ENDMDL
MODEL      134
REMARK 921   NORMALIZED FREE ENERGY PREDICTED BY IDOCK:   -1.66 KCAL/MOL
REMARK 922        TOTAL FREE ENERGY PREDICTED BY IDOCK:   -2.62 KCAL/MOL
REMARK 923 INTER-LIGAND FREE ENERGY PREDICTED BY IDOCK:   -4.06 KCAL/MOL
REMARK 924 INTRA-LIGAND FREE ENERGY PREDICTED BY IDOCK:    1.44 KCAL/MOL
REMARK 927      BINDING AFFINITY PREDICTED BY RF-SCORE:    0.00 PKD
ROOT
HETATM    1  C   UNL     1     -12.896  17.201  74.252  1.00  0.00     1.004 C  
HETATM    2  N   UNL     1     -13.962  16.518  73.539  1.00  0.00    -0.396 NA 
HETATM    3  H   UNL     1     -14.950  16.700  73.719  1.00  0.00     0.000 HD 
ENDROOT
BRANCH   2   4
HETATM    4  C   UNL     1     -13.526  15.587  72.581  1.00  0.00    -0.547 A  
HETATM    5  N   UNL     1     -13.924  15.714  71.301  1.00  0.00    -0.531 NA 
HETATM    6  C   UNL     1     -13.432  14.844  70.380  1.00  0.00     0.142 A  
HETATM    7  C   UNL     1     -12.584  13.773  70.643  1.00  0.00    -0.386 A  
HETATM    8  C   UNL     1     -12.071  14.511  74.352  1.00  0.00     0.801 C  
HETATM    9  C   UNL     1     -12.222  13.646  71.994  1.00  0.00     0.244 A  
HETATM   10  C   UNL     1     -12.637  14.579  72.962  1.00  0.00    -0.419 A  
BRANCH   7  11
HETATM   11  C   UNL     1     -11.982  12.921  69.570  1.00  0.00    -0.346 A  
HETATM   12  C   UNL     1     -11.387  10.654  68.871  1.00  0.00    -0.337 A  
HETATM   13  C   UNL     1     -11.941  11.530  69.792  1.00  0.00    -0.415 A  
HETATM   14  C   UNL     1     -10.737  11.160  67.750  1.00  0.00    -0.267 A  
HETATM   15  C   UNL     1     -10.151  10.185  66.807  1.00  0.00    -0.219 C  
HETATM   16  C   UNL     1      -9.313  10.690  65.717  1.00  0.00    -0.223 C  
HETATM   17  O   UNL     1     -10.348   8.976  66.922  1.00  0.00    -0.256 OA 
HETATM   18  C   UNL     1      -9.174  12.022  65.630  1.00  0.00    -0.003 C  
HETATM   19  C   UNL     1      -8.611   9.809  64.759  1.00  0.00    -0.179 C  
HETATM   20  O   UNL     1      -8.867   8.494  64.913  1.00  0.00    -0.118 OA 
HETATM   21  O   UNL     1      -7.864  10.228  63.887  1.00  0.00    -0.155 OA 
HETATM   22  N   UNL     1      -9.790  12.987  66.419  1.00  0.00    -0.265 NA 
HETATM   23  C   UNL     1     -10.642  12.548  67.505  1.00  0.00    -0.220 A  
HETATM   24  C   UNL     1     -11.714  14.821  67.902  1.00  0.00    -0.367 C  
HETATM   25  C   UNL     1     -11.401  13.414  68.352  1.00  0.00    -0.329 A  
BRANCH  22  26
HETATM   26  C   UNL     1      -9.111  14.319  66.483  1.00  0.00    -0.185 C  
HETATM   27  C   UNL     1      -7.713  14.446  67.045  1.00  0.00     0.080 C  
HETATM   28  C   UNL     1      -8.845  15.118  67.744  1.00  0.00    -0.171 C  
ENDBRANCH  22  26
ENDBRANCH   7  11
ENDBRANCH   2   4
TORSDOF 3
ENDMDL
MODEL      135
REMARK 921   NORMALIZED FREE ENERGY PREDICTED BY IDOCK:   -0.83 KCAL/MOL
REMARK 922        TOTAL FREE ENERGY PREDICTED BY IDOCK:   -1.65 KCAL/MOL
REMARK 923 INTER-LIGAND FREE ENERGY PREDICTED BY IDOCK:   -4.16 KCAL/MOL
REMARK 924 INTRA-LIGAND FREE ENERGY PREDICTED BY IDOCK:    2.51 KCAL/MOL
REMARK 927      BINDING AFFINITY PREDICTED BY RF-SCORE:    0.00 PKD
ROOT
HETATM    1  C   UNL     1     -10.946  12.000  63.300  1.00  0.00    -0.325 C  
HETATM    2  N   UNL     1      -9.940  12.308  64.302  1.00  0.00    -0.501 NA 
HETATM    3  H   UNL     1      -9.452  13.204  64.335  1.00  0.00     0.000 HD 
ENDROOT
BRANCH   2   4
HETATM    4  C   UNL     1      -9.692  11.276  65.223  1.00  0.00    -0.239 A  
HETATM    5  N   UNL     1     -10.483  11.145  66.304  1.00  0.00    -0.253 NA 
HETATM    6  C   UNL     1     -10.268  10.096  67.141  1.00  0.00    -0.225 A  
HETATM    7  C   UNL     1      -9.250   9.156  67.023  1.00  0.00    -0.167 A  
HETATM    8  C   UNL     1      -7.866  10.411  63.696  1.00  0.00    -0.072 C  
HETATM    9  C   UNL     1      -8.419   9.347  65.909  1.00  0.00    -0.135 A  
HETATM   10  C   UNL     1      -8.664  10.365  64.969  1.00  0.00    -0.195 A  
BRANCH   7  11
HETATM   11  C   UNL     1      -9.136   7.956  67.911  1.00  0.00    -0.133 A  
HETATM   12  C   UNL     1     -10.057   5.766  68.494  1.00  0.00    -0.226 A  
HETATM   13  C   UNL     1     -10.062   6.912  67.713  1.00  0.00    -0.199 A  
HETATM   14  C   UNL     1      -9.199   5.686  69.587  1.00  0.00    -0.163 A  
HETATM   15  C   UNL     1      -9.243   4.450  70.394  1.00  0.00    -0.115 C  
HETATM   16  C   UNL     1      -8.483   4.411  71.647  1.00  0.00    -0.112 C  
HETATM   17  O   UNL     1      -9.898   3.470  70.043  1.00  0.00    -0.138 OA 
HETATM   18  C   UNL     1      -7.759   5.501  71.947  1.00  0.00    -0.104 C  
HETATM   19  C   UNL     1      -8.510   3.262  72.576  1.00  0.00    -0.084 C  
HETATM   20  O   UNL     1      -9.228   2.205  72.144  1.00  0.00    -0.077 OA 
HETATM   21  O   UNL     1      -7.924   3.253  73.648  1.00  0.00    -0.071 OA 
HETATM   22  N   UNL     1      -7.595   6.644  71.172  1.00  0.00    -0.088 NA 
HETATM   23  C   UNL     1      -8.311   6.734  69.917  1.00  0.00    -0.135 A  
HETATM   24  C   UNL     1      -6.975   8.705  69.021  1.00  0.00    -0.064 C  
HETATM   25  C   UNL     1      -8.187   7.805  68.978  1.00  0.00    -0.126 A  
BRANCH  22  26
HETATM   26  C   UNL     1      -7.196   7.886  71.905  1.00  0.00    -0.074 C  
HETATM   27  C   UNL     1      -6.874   9.157  71.153  1.00  0.00    -0.088 C  
HETATM   28  C   UNL     1      -5.803   8.484  71.942  1.00  0.00    -0.051 C  
ENDBRANCH  22  26
ENDBRANCH   7  11
ENDBRANCH   2   4
TORSDOF 3
ENDMDL
MODEL      136
REMARK 921   NORMALIZED FREE ENERGY PREDICTED BY IDOCK:   -0.80 KCAL/MOL
REMARK 922        TOTAL FREE ENERGY PREDICTED BY IDOCK:   -1.62 KCAL/MOL
REMARK 923 INTER-LIGAND FREE ENERGY PREDICTED BY IDOCK:   -1.32 KCAL/MOL
REMARK 924 INTRA-LIGAND FREE ENERGY PREDICTED BY IDOCK:   -0.30 KCAL/MOL
REMARK 927      BINDING AFFINITY PREDICTED BY RF-SCORE:    0.00 PKD
ROOT
HETATM    1  C   UNL     1      -5.639  19.060  70.021  1.00  0.00    -0.230 C  
HETATM    2  N   UNL     1      -5.306  18.579  68.691  1.00  0.00    -0.183 NA 
HETATM    3  H   UNL     1      -4.914  19.184  67.968  1.00  0.00     0.000 HD 
ENDROOT
BRANCH   2   4
HETATM    4  C   UNL     1      -5.566  17.215  68.477  1.00  0.00    -0.137 A  
HETATM    5  N   UNL     1      -5.876  16.426  69.523  1.00  0.00    -0.159 NA 
HETATM    6  C   UNL     1      -6.194  15.127  69.282  1.00  0.00    -0.112 A  
HETATM    7  C   UNL     1      -6.173  14.500  68.041  1.00  0.00    -0.162 A  
HETATM    8  C   UNL     1      -5.357  17.609  65.984  1.00  0.00    -0.224 C  
HETATM    9  C   UNL     1      -5.806  15.341  66.979  1.00  0.00     0.758 A  
HETATM   10  C   UNL     1      -5.559  16.712  67.174  1.00  0.00    -0.175 A  
BRANCH   7  11
HETATM   11  C   UNL     1      -6.647  13.097  67.823  1.00  0.00    -0.151 A  
HETATM   12  C   UNL     1      -6.360  11.031  66.544  1.00  0.00    -0.132 A  
HETATM   13  C   UNL     1      -5.986  12.334  66.839  1.00  0.00     0.078 A  
HETATM   14  C   UNL     1      -7.496  10.493  67.141  1.00  0.00    -0.097 A  
HETATM   15  C   UNL     1      -7.858   9.106  66.782  1.00  0.00    -0.101 C  
HETATM   16  C   UNL     1      -9.140   8.578  67.256  1.00  0.00    -0.152 C  
HETATM   17  O   UNL     1      -7.116   8.400  66.101  1.00  0.00    -0.074 OA 
HETATM   18  C   UNL     1      -9.879   9.391  68.027  1.00  0.00    -0.164 C  
HETATM   19  C   UNL     1      -9.646   7.236  66.898  1.00  0.00    -0.174 C  
HETATM   20  O   UNL     1      -8.795   6.492  66.163  1.00  0.00    -0.146 OA 
HETATM   21  O   UNL     1     -10.741   6.819  67.244  1.00  0.00    -0.267 OA 
HETATM   22  N   UNL     1      -9.537  10.659  68.486  1.00  0.00    -0.168 NA 
HETATM   23  C   UNL     1      -8.275  11.228  68.061  1.00  0.00    -0.134 A  
HETATM   24  C   UNL     1      -8.268  13.102  69.782  1.00  0.00     1.900 C  
HETATM   25  C   UNL     1      -7.751  12.482  68.505  1.00  0.00    -0.113 A  
BRANCH  22  26
HETATM   26  C   UNL     1     -10.676  11.550  68.870  1.00  0.00    -0.207 C  
HETATM   27  C   UNL     1     -12.105  11.144  68.585  1.00  0.00    -0.180 C  
HETATM   28  C   UNL     1     -11.540  12.348  67.912  1.00  0.00    -0.415 C  
ENDBRANCH  22  26
ENDBRANCH   7  11
ENDBRANCH   2   4
TORSDOF 3
ENDMDL
MODEL      137
REMARK 921   NORMALIZED FREE ENERGY PREDICTED BY IDOCK:    1.41 KCAL/MOL
REMARK 922        TOTAL FREE ENERGY PREDICTED BY IDOCK:    0.97 KCAL/MOL
REMARK 923 INTER-LIGAND FREE ENERGY PREDICTED BY IDOCK:    1.12 KCAL/MOL
REMARK 924 INTRA-LIGAND FREE ENERGY PREDICTED BY IDOCK:   -0.15 KCAL/MOL
REMARK 927      BINDING AFFINITY PREDICTED BY RF-SCORE:    0.00 PKD
ROOT
HETATM    1  C   UNL     1      -6.368   9.391  73.897  1.00  0.00     0.452 C  
HETATM    2  N   UNL     1      -7.789   9.106  73.786  1.00  0.00     0.219 NA 
HETATM    3  H   UNL     1      -8.451   9.310  74.535  1.00  0.00     0.000 HD 
ENDROOT
BRANCH   2   4
HETATM    4  C   UNL     1      -8.178   8.528  72.567  1.00  0.00    -0.077 A  
HETATM    5  N   UNL     1      -7.290   8.440  71.559  1.00  0.00    -0.087 NA 
HETATM    6  C   UNL     1      -7.669   7.811  70.415  1.00  0.00    -0.088 A  
HETATM    7  C   UNL     1      -8.931   7.290  70.151  1.00  0.00    -0.148 A  
HETATM    8  C   UNL     1     -10.418   7.958  73.602  1.00  0.00     0.251 C  
HETATM    9  C   UNL     1      -9.844   7.436  71.208  1.00  0.00    -0.182 A  
HETATM   10  C   UNL     1      -9.465   7.997  72.441  1.00  0.00    -0.279 A  
BRANCH   7  11
HETATM   11  C   UNL     1      -9.253   6.505  68.918  1.00  0.00    -0.129 A  
HETATM   12  C   UNL     1     -10.609   4.718  67.944  1.00  0.00     0.248 A  
HETATM   13  C   UNL     1     -10.249   5.514  69.021  1.00  0.00    -0.298 A  
HETATM   14  C   UNL     1      -9.887   4.804  66.757  1.00  0.00    -0.227 A  
HETATM   15  C   UNL     1     -10.302   3.924  65.645  1.00  0.00     0.118 C  
HETATM   16  C   UNL     1      -9.454   3.866  64.452  1.00  0.00    -0.163 C  
HETATM   17  O   UNL     1     -11.327   3.247  65.705  1.00  0.00     2.570 OA 
HETATM   18  C   UNL     1      -8.373   4.662  64.440  1.00  0.00    -0.118 C  
HETATM   19  C   UNL     1      -9.723   2.968  63.309  1.00  0.00    -0.098 C  
HETATM   20  O   UNL     1     -10.863   2.255  63.410  1.00  0.00    -0.210 OA 
HETATM   21  O   UNL     1      -8.984   2.876  62.340  1.00  0.00    -0.081 OA 
HETATM   22  N   UNL     1      -7.998   5.588  65.408  1.00  0.00    -0.104 NA 
HETATM   23  C   UNL     1      -8.805   5.699  66.605  1.00  0.00    -0.119 A  
HETATM   24  C   UNL     1      -7.782   7.897  67.379  1.00  0.00    -0.109 C  
HETATM   25  C   UNL     1      -8.594   6.652  67.650  1.00  0.00    -0.120 A  
BRANCH  22  26
HETATM   26  C   UNL     1      -6.549   5.961  65.436  1.00  0.00    -0.043 C  
HETATM   27  C   UNL     1      -6.044   7.155  64.658  1.00  0.00    -0.037 C  
HETATM   28  C   UNL     1      -5.568   5.790  64.293  1.00  0.00    -0.017 C  
ENDBRANCH  22  26
ENDBRANCH   7  11
ENDBRANCH   2   4
TORSDOF 3
ENDMDL
MODEL      138
REMARK 921   NORMALIZED FREE ENERGY PREDICTED BY IDOCK:    2.04 KCAL/MOL
REMARK 922        TOTAL FREE ENERGY PREDICTED BY IDOCK:    1.72 KCAL/MOL
REMARK 923 INTER-LIGAND FREE ENERGY PREDICTED BY IDOCK:   -1.52 KCAL/MOL
REMARK 924 INTRA-LIGAND FREE ENERGY PREDICTED BY IDOCK:    3.24 KCAL/MOL
REMARK 927      BINDING AFFINITY PREDICTED BY RF-SCORE:    0.00 PKD
ROOT
HETATM    1  C   UNL     1     -10.073  19.807  70.714  1.00  0.00     1.591 C  
HETATM    2  N   UNL     1      -9.622  19.374  69.401  1.00  0.00    -0.216 NA 
HETATM    3  H   UNL     1      -9.553  20.009  68.606  1.00  0.00     0.000 HD 
ENDROOT
BRANCH   2   4
HETATM    4  C   UNL     1      -9.291  18.011  69.314  1.00  0.00     0.174 A  
HETATM    5  N   UNL     1     -10.224  17.081  69.591  1.00  0.00    -0.096 NA 
HETATM    6  C   UNL     1      -9.901  15.771  69.429  1.00  0.00    -0.286 A  
HETATM    7  C   UNL     1      -8.655  15.280  69.055  1.00  0.00    -0.226 A  
HETATM    8  C   UNL     1      -7.010  18.666  68.429  1.00  0.00    -0.278 C  
HETATM    9  C   UNL     1      -7.695  16.275  68.814  1.00  0.00    -0.202 A  
HETATM   10  C   UNL     1      -8.015  17.643  68.881  1.00  0.00    -0.178 A  
BRANCH   7  11
HETATM   11  C   UNL     1      -8.393  13.832  68.780  1.00  0.00     0.014 A  
HETATM   12  C   UNL     1      -6.755  12.017  68.840  1.00  0.00    -0.093 A  
HETATM   13  C   UNL     1      -7.107  13.337  69.076  1.00  0.00    -0.044 A  
HETATM   14  C   UNL     1      -7.646  11.178  68.178  1.00  0.00    -0.103 A  
HETATM   15  C   UNL     1      -7.216   9.784  67.940  1.00  0.00    -0.084 C  
HETATM   16  C   UNL     1      -8.057   8.933  67.093  1.00  0.00    -0.103 C  
HETATM   17  O   UNL     1      -6.180   9.335  68.427  1.00  0.00    -0.052 OA 
HETATM   18  C   UNL     1      -9.192   9.478  66.629  1.00  0.00    -0.152 C  
HETATM   19  C   UNL     1      -7.693   7.550  66.720  1.00  0.00    -0.102 C  
HETATM   20  O   UNL     1      -6.558   7.094  67.288  1.00  0.00    -0.054 OA 
HETATM   21  O   UNL     1      -8.365   6.861  65.967  1.00  0.00    -0.121 OA 
HETATM   22  N   UNL     1      -9.698  10.742  66.912  1.00  0.00    -0.175 NA 
HETATM   23  C   UNL     1      -8.917  11.624  67.754  1.00  0.00    -0.170 A  
HETATM   24  C   UNL     1     -10.802  13.281  68.177  1.00  0.00    -0.270 C  
HETATM   25  C   UNL     1      -9.335  12.918  68.196  1.00  0.00    -0.214 A  
BRANCH  22  26
HETATM   26  C   UNL     1     -10.659  11.306  65.914  1.00  0.00    -0.253 C  
HETATM   27  C   UNL     1     -10.970  12.786  65.891  1.00  0.00    -0.303 C  
HETATM   28  C   UNL     1     -12.055  11.817  66.218  1.00  0.00     0.477 C  
ENDBRANCH  22  26
ENDBRANCH   7  11
ENDBRANCH   2   4
TORSDOF 3
ENDMDL
MODEL      139
REMARK 921   NORMALIZED FREE ENERGY PREDICTED BY IDOCK:    2.30 KCAL/MOL
REMARK 922        TOTAL FREE ENERGY PREDICTED BY IDOCK:    2.03 KCAL/MOL
REMARK 923 INTER-LIGAND FREE ENERGY PREDICTED BY IDOCK:    0.99 KCAL/MOL
REMARK 924 INTRA-LIGAND FREE ENERGY PREDICTED BY IDOCK:    1.03 KCAL/MOL
REMARK 927      BINDING AFFINITY PREDICTED BY RF-SCORE:    0.00 PKD
ROOT
HETATM    1  C   UNL     1     -11.057   5.021  66.424  1.00  0.00     0.414 C  
HETATM    2  N   UNL     1     -11.628   6.354  66.333  1.00  0.00    -0.223 NA 
HETATM    3  H   UNL     1     -12.566   6.528  65.970  1.00  0.00     0.000 HD 
ENDROOT
BRANCH   2   4
HETATM    4  C   UNL     1     -10.787   7.385  66.784  1.00  0.00    -0.003 A  
HETATM    5  N   UNL     1     -11.030   8.654  66.405  1.00  0.00     0.728 NA 
HETATM    6  C   UNL     1     -10.246   9.643  66.911  1.00  0.00    -0.237 A  
HETATM    7  C   UNL     1      -9.156   9.465  67.756  1.00  0.00    -0.134 A  
HETATM    8  C   UNL     1      -9.554   5.698  68.214  1.00  0.00    -0.145 C  
HETATM    9  C   UNL     1      -8.906   8.127  68.097  1.00  0.00    -0.132 A  
HETATM   10  C   UNL     1      -9.748   7.085  67.668  1.00  0.00    -0.163 A  
BRANCH   7  11
HETATM   11  C   UNL     1      -8.404  10.603  68.374  1.00  0.00    -0.127 A  
HETATM   12  C   UNL     1      -7.407  11.507  70.417  1.00  0.00     1.846 A  
HETATM   13  C   UNL     1      -8.083  10.501  69.743  1.00  0.00     0.017 A  
HETATM   14  C   UNL     1      -7.143  12.708  69.767  1.00  0.00     0.528 A  
HETATM   15  C   UNL     1      -6.432  13.753  70.534  1.00  0.00     0.139 C  
HETATM   16  C   UNL     1      -6.299  15.084  69.936  1.00  0.00    -0.162 C  
HETATM   17  O   UNL     1      -5.963  13.529  71.648  1.00  0.00    -0.323 OA 
HETATM   18  C   UNL     1      -6.801  15.244  68.702  1.00  0.00    -0.109 C  
HETATM   19  C   UNL     1      -5.679  16.229  70.637  1.00  0.00     0.025 C  
HETATM   20  O   UNL     1      -5.165  15.935  71.849  1.00  0.00    -0.049 OA 
HETATM   21  O   UNL     1      -5.621  17.353  70.162  1.00  0.00    -0.229 OA 
HETATM   22  N   UNL     1      -7.377  14.270  67.893  1.00  0.00    -0.137 NA 
HETATM   23  C   UNL     1      -7.524  12.931  68.425  1.00  0.00    -0.124 A  
HETATM   24  C   UNL     1      -8.028  11.838  66.184  1.00  0.00     0.256 C  
HETATM   25  C   UNL     1      -8.025  11.809  67.694  1.00  0.00    -0.143 A  
BRANCH  22  26
HETATM   26  C   UNL     1      -8.300  14.763  66.823  1.00  0.00    -0.079 C  
HETATM   27  C   UNL     1      -8.111  16.133  66.212  1.00  0.00    -0.210 C  
HETATM   28  C   UNL     1      -9.350  15.845  66.989  1.00  0.00    -0.230 C  
ENDBRANCH  22  26
ENDBRANCH   7  11
ENDBRANCH   2   4
TORSDOF 3
ENDMDL
MODEL      140
REMARK 921   NORMALIZED FREE ENERGY PREDICTED BY IDOCK:    7.06 KCAL/MOL
REMARK 922        TOTAL FREE ENERGY PREDICTED BY IDOCK:    7.62 KCAL/MOL
REMARK 923 INTER-LIGAND FREE ENERGY PREDICTED BY IDOCK:    7.79 KCAL/MOL
REMARK 924 INTRA-LIGAND FREE ENERGY PREDICTED BY IDOCK:   -0.16 KCAL/MOL
REMARK 927      BINDING AFFINITY PREDICTED BY RF-SCORE:    0.00 PKD
ROOT
HETATM    1  C   UNL     1      -5.448   9.664  72.790  1.00  0.00     0.087 C  
HETATM    2  N   UNL     1      -5.171  11.090  72.730  1.00  0.00    -0.219 NA 
HETATM    3  H   UNL     1      -4.507  11.549  73.355  1.00  0.00     0.000 HD 
ENDROOT
BRANCH   2   4
HETATM    4  C   UNL     1      -5.888  11.787  71.743  1.00  0.00     1.126 A  
HETATM    5  N   UNL     1      -6.626  11.102  70.850  1.00  0.00     0.126 NA 
HETATM    6  C   UNL     1      -7.368  11.801  69.950  1.00  0.00     0.792 A  
HETATM    7  C   UNL     1      -7.396  13.185  69.819  1.00  0.00     0.771 A  
HETATM    8  C   UNL     1      -5.172  13.964  72.820  1.00  0.00    -0.208 C  
HETATM    9  C   UNL     1      -6.583  13.866  70.739  1.00  0.00     0.374 A  
HETATM   10  C   UNL     1      -5.873  13.184  71.744  1.00  0.00     0.555 A  
BRANCH   7  11
HETATM   11  C   UNL     1      -8.323  13.901  68.887  1.00  0.00     0.074 A  
HETATM   12  C   UNL     1      -9.955  13.680  67.079  1.00  0.00    -0.248 A  
HETATM   13  C   UNL     1      -9.083  13.116  67.997  1.00  0.00    -0.207 A  
HETATM   14  C   UNL     1      -9.999  15.064  66.936  1.00  0.00    -0.247 A  
HETATM   15  C   UNL     1     -10.936  15.614  65.934  1.00  0.00    -0.231 C  
HETATM   16  C   UNL     1     -10.874  17.048  65.640  1.00  0.00    -0.063 C  
HETATM   17  O   UNL     1     -11.749  14.901  65.350  1.00  0.00    -0.326 OA 
HETATM   18  C   UNL     1      -9.989  17.771  66.344  1.00  0.00    -0.344 C  
HETATM   19  C   UNL     1     -11.704  17.699  64.604  1.00  0.00     2.971 C  
HETATM   20  O   UNL     1     -12.591  16.883  64.000  1.00  0.00     1.347 OA 
HETATM   21  O   UNL     1     -11.611  18.883  64.318  1.00  0.00     2.328 OA 
HETATM   22  N   UNL     1      -9.165  17.327  67.373  1.00  0.00    -0.229 NA 
HETATM   23  C   UNL     1      -9.192  15.920  67.718  1.00  0.00    -0.201 A  
HETATM   24  C   UNL     1      -7.956  16.193  69.925  1.00  0.00     0.630 C  
HETATM   25  C   UNL     1      -8.464  15.327  68.796  1.00  0.00    -0.181 A  
BRANCH  22  26
HETATM   26  C   UNL     1      -7.943  18.147  67.640  1.00  0.00    -0.233 C  
HETATM   27  C   UNL     1      -7.499  19.212  66.662  1.00  0.00    -0.246 C  
HETATM   28  C   UNL     1      -6.621  18.032  66.904  1.00  0.00    -0.210 C  
ENDBRANCH  22  26
ENDBRANCH   7  11
ENDBRANCH   2   4
TORSDOF 3
ENDMDL
MODEL      141
REMARK 921   NORMALIZED FREE ENERGY PREDICTED BY IDOCK:   10.51 KCAL/MOL
REMARK 922        TOTAL FREE ENERGY PREDICTED BY IDOCK:   11.67 KCAL/MOL
REMARK 923 INTER-LIGAND FREE ENERGY PREDICTED BY IDOCK:   11.84 KCAL/MOL
REMARK 924 INTRA-LIGAND FREE ENERGY PREDICTED BY IDOCK:   -0.17 KCAL/MOL
REMARK 927      BINDING AFFINITY PREDICTED BY RF-SCORE:    0.00 PKD
ROOT
HETATM    1  C   UNL     1      -5.654   9.235  63.346  1.00  0.00    -0.075 C  
HETATM    2  N   UNL     1      -6.885   9.032  64.091  1.00  0.00    -0.086 NA 
HETATM    3  H   UNL     1      -7.340   8.122  64.166  1.00  0.00     0.000 HD 
ENDROOT
BRANCH   2   4
HETATM    4  C   UNL     1      -7.400  10.189  64.701  1.00  0.00    -0.129 A  
HETATM    5  N   UNL     1      -7.408  10.285  66.044  1.00  0.00    -0.122 NA 
HETATM    6  C   UNL     1      -7.845  11.442  66.608  1.00  0.00    -0.137 A  
HETATM    7  C   UNL     1      -8.352  12.541  65.924  1.00  0.00     0.955 A  
HETATM    8  C   UNL     1      -7.705  11.213  62.405  1.00  0.00    -0.033 C  
HETATM    9  C   UNL     1      -8.368  12.390  64.528  1.00  0.00     2.895 A  
HETATM   10  C   UNL     1      -7.841  11.246  63.901  1.00  0.00     0.998 A  
BRANCH   7  11
HETATM   11  C   UNL     1      -8.707  13.831  66.593  1.00  0.00    -0.026 A  
HETATM   12  C   UNL     1      -7.992  16.110  67.121  1.00  0.00    -0.232 A  
HETATM   13  C   UNL     1      -7.771  14.882  66.517  1.00  0.00     0.771 A  
HETATM   14  C   UNL     1      -9.110  16.284  67.931  1.00  0.00    -0.196 A  
HETATM   15  C   UNL     1      -9.293  17.608  68.561  1.00  0.00    -0.291 C  
HETATM   16  C   UNL     1     -10.358  17.763  69.555  1.00  0.00     0.184 C  
HETATM   17  O   UNL     1      -8.576  18.565  68.275  1.00  0.00    -0.301 OA 
HETATM   18  C   UNL     1     -11.127  16.687  69.789  1.00  0.00    -0.132 C  
HETATM   19  C   UNL     1     -10.588  19.014  70.309  1.00  0.00     1.857 C  
HETATM   20  O   UNL     1      -9.789  20.040  69.952  1.00  0.00    -0.022 OA 
HETATM   21  O   UNL     1     -11.438  19.125  71.179  1.00  0.00     4.826 OA 
HETATM   22  N   UNL     1     -11.070  15.455  69.146  1.00  0.00    -0.249 NA 
HETATM   23  C   UNL     1     -10.046  15.247  68.144  1.00  0.00    -0.229 A  
HETATM   24  C   UNL     1     -11.080  13.131  67.181  1.00  0.00    -0.305 C  
HETATM   25  C   UNL     1      -9.907  14.069  67.346  1.00  0.00    -0.240 A  
BRANCH  22  26
HETATM   26  C   UNL     1     -11.639  14.293  69.897  1.00  0.00    -0.276 C  
HETATM   27  C   UNL     1     -11.549  14.230  71.405  1.00  0.00     0.151 C  
HETATM   28  C   UNL     1     -10.838  13.206  70.588  1.00  0.00     2.289 C  
ENDBRANCH  22  26
ENDBRANCH   7  11
ENDBRANCH   2   4
TORSDOF 3
ENDMDL
MODEL      142
REMARK 921   NORMALIZED FREE ENERGY PREDICTED BY IDOCK:   11.24 KCAL/MOL
REMARK 922        TOTAL FREE ENERGY PREDICTED BY IDOCK:   12.53 KCAL/MOL
REMARK 923 INTER-LIGAND FREE ENERGY PREDICTED BY IDOCK:   11.83 KCAL/MOL
REMARK 924 INTRA-LIGAND FREE ENERGY PREDICTED BY IDOCK:    0.71 KCAL/MOL
REMARK 927      BINDING AFFINITY PREDICTED BY RF-SCORE:    0.00 PKD
ROOT
HETATM    1  C   UNL     1     -13.398   7.475  71.485  1.00  0.00    -0.352 C  
HETATM    2  N   UNL     1     -12.163   7.924  70.865  1.00  0.00    -0.487 NA 
HETATM    3  H   UNL     1     -11.291   7.399  70.930  1.00  0.00     0.000 HD 
ENDROOT
BRANCH   2   4
HETATM    4  C   UNL     1     -12.264   9.140  70.168  1.00  0.00     0.473 A  
HETATM    5  N   UNL     1     -12.401  10.290  70.855  1.00  0.00    -0.342 NA 
HETATM    6  C   UNL     1     -12.425  11.460  70.163  1.00  0.00    -0.196 A  
HETATM    7  C   UNL     1     -12.379  11.587  68.778  1.00  0.00     0.148 A  
HETATM    8  C   UNL     1     -11.860   7.886  68.006  1.00  0.00     2.467 C  
HETATM    9  C   UNL     1     -12.277  10.366  68.092  1.00  0.00     1.486 A  
HETATM   10  C   UNL     1     -12.158   9.142  68.775  1.00  0.00     2.199 A  
BRANCH   7  11
HETATM   11  C   UNL     1     -12.290  12.908  68.079  1.00  0.00     0.212 A  
HETATM   12  C   UNL     1     -12.106  14.059  65.929  1.00  0.00    -0.448 A  
HETATM   13  C   UNL     1     -12.212  12.894  66.672  1.00  0.00    -0.229 A  
HETATM   14  C   UNL     1     -11.944  15.277  66.584  1.00  0.00     0.274 A  
HETATM   15  C   UNL     1     -11.822  16.487  65.746  1.00  0.00     1.575 C  
HETATM   16  C   UNL     1     -11.475  17.752  66.400  1.00  0.00     1.515 C  
HETATM   17  O   UNL     1     -11.998  16.452  64.530  1.00  0.00    -0.209 OA 
HETATM   18  C   UNL     1     -11.337  17.723  67.735  1.00  0.00     0.512 C  
HETATM   19  C   UNL     1     -11.249  19.012  65.660  1.00  0.00     0.662 C  
HETATM   20  O   UNL     1     -11.467  18.930  64.331  1.00  0.00     1.399 OA 
HETATM   21  O   UNL     1     -10.902  20.052  66.198  1.00  0.00    -0.356 OA 
HETATM   22  N   UNL     1     -11.549  16.641  68.581  1.00  0.00    -0.074 NA 
HETATM   23  C   UNL     1     -11.907  15.366  67.994  1.00  0.00    -0.110 A  
HETATM   24  C   UNL     1     -12.649  14.296  70.179  1.00  0.00    -0.338 C  
HETATM   25  C   UNL     1     -12.231  14.186  68.732  1.00  0.00    -0.234 A  
BRANCH  22  26
HETATM   26  C   UNL     1     -10.855  16.694  69.906  1.00  0.00    -0.202 C  
HETATM   27  C   UNL     1     -11.648  16.757  71.191  1.00  0.00     0.424 C  
HETATM   28  C   UNL     1     -10.773  17.904  70.816  1.00  0.00     2.058 C  
ENDBRANCH  22  26
ENDBRANCH   7  11
ENDBRANCH   2   4
TORSDOF 3
ENDMDL
MODEL      143
REMARK 921   NORMALIZED FREE ENERGY PREDICTED BY IDOCK:   14.71 KCAL/MOL
REMARK 922        TOTAL FREE ENERGY PREDICTED BY IDOCK:   16.62 KCAL/MOL
REMARK 923 INTER-LIGAND FREE ENERGY PREDICTED BY IDOCK:   16.77 KCAL/MOL
REMARK 924 INTRA-LIGAND FREE ENERGY PREDICTED BY IDOCK:   -0.15 KCAL/MOL
REMARK 927      BINDING AFFINITY PREDICTED BY RF-SCORE:    0.00 PKD
ROOT
HETATM    1  C   UNL     1      -5.484  19.460  67.847  1.00  0.00    -0.183 C  
HETATM    2  N   UNL     1      -6.590  19.245  66.928  1.00  0.00    -0.195 NA 
HETATM    3  H   UNL     1      -7.003  19.999  66.377  1.00  0.00     0.000 HD 
ENDROOT
BRANCH   2   4
HETATM    4  C   UNL     1      -7.046  17.919  66.858  1.00  0.00    -0.183 A  
HETATM    5  N   UNL     1      -6.518  17.081  65.946  1.00  0.00     0.045 NA 
HETATM    6  C   UNL     1      -6.923  15.784  65.945  1.00  0.00     3.305 A  
HETATM    7  C   UNL     1      -7.896  15.235  66.773  1.00  0.00    -0.041 A  
HETATM    8  C   UNL     1      -8.491  18.352  68.892  1.00  0.00    -0.172 C  
HETATM    9  C   UNL     1      -8.456  16.145  67.683  1.00  0.00    -0.178 A  
HETATM   10  C   UNL     1      -7.998  17.472  67.777  1.00  0.00    -0.210 A  
BRANCH   7  11
HETATM   11  C   UNL     1      -8.216  13.773  66.804  1.00  0.00     0.182 A  
HETATM   12  C   UNL     1      -8.589  11.747  65.486  1.00  0.00     0.375 A  
HETATM   13  C   UNL     1      -8.281  13.096  65.570  1.00  0.00     2.840 A  
HETATM   14  C   UNL     1      -8.970  11.059  66.634  1.00  0.00    -0.176 A  
HETATM   15  C   UNL     1      -9.302   9.626  66.487  1.00  0.00    -0.165 C  
HETATM   16  C   UNL     1      -9.874   8.925  67.640  1.00  0.00    -0.229 C  
HETATM   17  O   UNL     1      -9.114   9.023  65.432  1.00  0.00    -0.209 OA 
HETATM   18  C   UNL     1     -10.014   9.635  68.770  1.00  0.00    -0.173 C  
HETATM   19  C   UNL     1     -10.318   7.515  67.592  1.00  0.00    -0.229 C  
HETATM   20  O   UNL     1     -10.079   6.890  66.422  1.00  0.00    -0.108 OA 
HETATM   21  O   UNL     1     -10.849   6.948  68.535  1.00  0.00    -0.215 OA 
HETATM   22  N   UNL     1      -9.617  10.949  68.995  1.00  0.00    -0.187 NA 
HETATM   23  C   UNL     1      -9.032  11.689  67.896  1.00  0.00    -0.170 A  
HETATM   24  C   UNL     1      -8.125  13.579  69.338  1.00  0.00     0.701 C  
HETATM   25  C   UNL     1      -8.507  13.016  67.989  1.00  0.00    -0.181 A  
BRANCH  22  26
HETATM   26  C   UNL     1     -10.318  11.669  70.103  1.00  0.00     1.549 C  
HETATM   27  C   UNL     1      -9.817  11.570  71.526  1.00  0.00     9.901 C  
HETATM   28  C   UNL     1     -11.161  11.023  71.185  1.00  0.00     1.077 C  
ENDBRANCH  22  26
ENDBRANCH   7  11
ENDBRANCH   2   4
TORSDOF 3
ENDMDL
MODEL      144
REMARK 921   NORMALIZED FREE ENERGY PREDICTED BY IDOCK:   18.88 KCAL/MOL
REMARK 922        TOTAL FREE ENERGY PREDICTED BY IDOCK:   21.51 KCAL/MOL
REMARK 923 INTER-LIGAND FREE ENERGY PREDICTED BY IDOCK:   22.38 KCAL/MOL
REMARK 924 INTRA-LIGAND FREE ENERGY PREDICTED BY IDOCK:   -0.87 KCAL/MOL
REMARK 927      BINDING AFFINITY PREDICTED BY RF-SCORE:    0.00 PKD
ROOT
HETATM    1  C   UNL     1      -8.993   4.793  73.940  1.00  0.00    -0.113 C  
HETATM    2  N   UNL     1      -9.706   5.163  72.728  1.00  0.00    -0.152 NA 
HETATM    3  H   UNL     1     -10.356   4.533  72.258  1.00  0.00     0.000 HD 
ENDROOT
BRANCH   2   4
HETATM    4  C   UNL     1      -9.429   6.457  72.256  1.00  0.00    -0.148 A  
HETATM    5  N   UNL     1      -9.610   7.514  73.070  1.00  0.00    -0.193 NA 
HETATM    6  C   UNL     1      -9.267   8.748  72.615  1.00  0.00     0.111 A  
HETATM    7  C   UNL     1      -8.793   9.044  71.341  1.00  0.00    -0.220 A  
HETATM    8  C   UNL     1      -8.571   5.441  70.101  1.00  0.00    -0.121 C  
HETATM    9  C   UNL     1      -8.657   7.924  70.505  1.00  0.00    -0.131 A  
HETATM   10  C   UNL     1      -8.913   6.620  70.968  1.00  0.00    -0.146 A  
BRANCH   7  11
HETATM   11  C   UNL     1      -8.322  10.406  70.937  1.00  0.00     2.125 A  
HETATM   12  C   UNL     1      -6.391  11.864  70.582  1.00  0.00     0.547 A  
HETATM   13  C   UNL     1      -6.931  10.633  70.921  1.00  0.00     1.007 A  
HETATM   14  C   UNL     1      -7.237  12.949  70.370  1.00  0.00     2.082 A  
HETATM   15  C   UNL     1      -6.610  14.241  70.025  1.00  0.00    -0.088 C  
HETATM   16  C   UNL     1      -7.461  15.434  69.972  1.00  0.00     0.111 C  
HETATM   17  O   UNL     1      -5.407  14.334  69.790  1.00  0.00    -0.092 OA 
HETATM   18  C   UNL     1      -8.771  15.251  70.200  1.00  0.00     0.581 C  
HETATM   19  C   UNL     1      -6.937  16.792  69.714  1.00  0.00     0.201 C  
HETATM   20  O   UNL     1      -5.616  16.844  69.448  1.00  0.00    -0.147 OA 
HETATM   21  O   UNL     1      -7.637  17.793  69.728  1.00  0.00     0.438 OA 
HETATM   22  N   UNL     1      -9.428  14.045  70.418  1.00  0.00     2.398 NA 
HETATM   23  C   UNL     1      -8.641  12.830  70.469  1.00  0.00     6.472 A  
HETATM   24  C   UNL     1     -10.627  11.251  70.275  1.00  0.00     0.859 C  
HETATM   25  C   UNL     1      -9.177  11.512  70.608  1.00  0.00     5.341 A  
BRANCH  22  26
HETATM   26  C   UNL     1     -10.736  14.128  71.141  1.00  0.00     2.030 C  
HETATM   27  C   UNL     1     -11.748  15.194  70.786  1.00  0.00    -0.370 C  
HETATM   28  C   UNL     1     -11.128  15.199  72.141  1.00  0.00    -0.006 C  
ENDBRANCH  22  26
ENDBRANCH   7  11
ENDBRANCH   2   4
TORSDOF 3
ENDMDL
MODEL      145
REMARK 921   NORMALIZED FREE ENERGY PREDICTED BY IDOCK:   20.07 KCAL/MOL
REMARK 922        TOTAL FREE ENERGY PREDICTED BY IDOCK:   22.91 KCAL/MOL
REMARK 923 INTER-LIGAND FREE ENERGY PREDICTED BY IDOCK:   23.64 KCAL/MOL
REMARK 924 INTRA-LIGAND FREE ENERGY PREDICTED BY IDOCK:   -0.73 KCAL/MOL
REMARK 927      BINDING AFFINITY PREDICTED BY RF-SCORE:    0.00 PKD
ROOT
HETATM    1  C   UNL     1     -14.148  19.401  67.235  1.00  0.00     8.547 C  
HETATM    2  N   UNL     1     -12.723  19.132  67.137  1.00  0.00     4.627 NA 
HETATM    3  H   UNL     1     -12.031  19.869  66.999  1.00  0.00     0.000 HD 
ENDROOT
BRANCH   2   4
HETATM    4  C   UNL     1     -12.372  17.776  67.248  1.00  0.00     4.219 A  
HETATM    5  N   UNL     1     -13.265  16.829  66.902  1.00  0.00     6.396 NA 
HETATM    6  C   UNL     1     -12.878  15.526  66.949  1.00  0.00     2.535 A  
HETATM    7  C   UNL     1     -11.643  15.059  67.386  1.00  0.00    -0.304 A  
HETATM    8  C   UNL     1     -10.031  18.478  67.908  1.00  0.00    -0.374 C  
HETATM    9  C   UNL     1     -10.752  16.070  67.778  1.00  0.00    -0.323 A  
HETATM   10  C   UNL     1     -11.082  17.433  67.657  1.00  0.00     0.022 A  
BRANCH   7  11
HETATM   11  C   UNL     1     -11.235  13.621  67.303  1.00  0.00    -0.329 A  
HETATM   12  C   UNL     1     -11.699  11.333  68.034  1.00  0.00    -0.305 A  
HETATM   13  C   UNL     1     -12.004  12.686  68.026  1.00  0.00    -0.300 A  
HETATM   14  C   UNL     1     -10.533  10.890  67.418  1.00  0.00    -0.263 A  
HETATM   15  C   UNL     1     -10.248   9.441  67.467  1.00  0.00    -0.231 C  
HETATM   16  C   UNL     1      -8.946   8.972  66.984  1.00  0.00    -0.144 C  
HETATM   17  O   UNL     1     -11.068   8.635  67.904  1.00  0.00     0.054 OA 
HETATM   18  C   UNL     1      -8.117   9.902  66.485  1.00  0.00    -0.117 C  
HETATM   19  C   UNL     1      -8.517   7.559  67.054  1.00  0.00    -0.122 C  
HETATM   20  O   UNL     1      -9.452   6.710  67.525  1.00  0.00    -0.125 OA 
HETATM   21  O   UNL     1      -7.410   7.178  66.706  1.00  0.00    -0.080 OA 
HETATM   22  N   UNL     1      -8.377  11.258  66.313  1.00  0.00    -0.165 NA 
HETATM   23  C   UNL     1      -9.653  11.777  66.760  1.00  0.00    -0.200 A  
HETATM   24  C   UNL     1      -9.449  13.997  65.533  1.00  0.00     0.116 C  
HETATM   25  C   UNL     1     -10.096  13.125  66.584  1.00  0.00    -0.264 A  
BRANCH  22  26
HETATM   26  C   UNL     1      -7.181  12.154  66.238  1.00  0.00     0.794 C  
HETATM   27  C   UNL     1      -5.787  11.575  66.156  1.00  0.00     0.137 C  
HETATM   28  C   UNL     1      -6.174  12.381  67.349  1.00  0.00    -0.158 C  
ENDBRANCH  22  26
ENDBRANCH   7  11
ENDBRANCH   2   4
TORSDOF 3
ENDMDL
MODEL      146
REMARK 921   NORMALIZED FREE ENERGY PREDICTED BY IDOCK:   22.46 KCAL/MOL
REMARK 922        TOTAL FREE ENERGY PREDICTED BY IDOCK:   25.72 KCAL/MOL
REMARK 923 INTER-LIGAND FREE ENERGY PREDICTED BY IDOCK:   23.09 KCAL/MOL
REMARK 924 INTRA-LIGAND FREE ENERGY PREDICTED BY IDOCK:    2.64 KCAL/MOL
REMARK 927      BINDING AFFINITY PREDICTED BY RF-SCORE:    0.00 PKD
ROOT
HETATM    1  C   UNL     1     -11.453   5.396  65.700  1.00  0.00     1.306 C  
HETATM    2  N   UNL     1     -12.114   6.689  65.637  1.00  0.00     4.326 NA 
HETATM    3  H   UNL     1     -13.033   6.818  65.213  1.00  0.00     0.000 HD 
ENDROOT
BRANCH   2   4
HETATM    4  C   UNL     1     -11.387   7.748  66.205  1.00  0.00     3.073 A  
HETATM    5  N   UNL     1     -11.682   9.017  65.863  1.00  0.00     5.072 NA 
HETATM    6  C   UNL     1     -11.014  10.027  66.479  1.00  0.00     0.180 A  
HETATM    7  C   UNL     1      -9.990   9.878  67.409  1.00  0.00    -0.235 A  
HETATM    8  C   UNL     1     -10.168   6.074  67.663  1.00  0.00    -0.221 C  
HETATM    9  C   UNL     1      -9.679   8.542  67.712  1.00  0.00    -0.199 A  
HETATM   10  C   UNL     1     -10.409   7.471  67.164  1.00  0.00    -0.384 A  
BRANCH   7  11
HETATM   11  C   UNL     1      -9.373  11.029  68.140  1.00  0.00    -0.173 A  
HETATM   12  C   UNL     1      -8.781  13.401  68.066  1.00  0.00    -0.178 A  
HETATM   13  C   UNL     1      -9.347  12.276  67.485  1.00  0.00    -0.183 A  
HETATM   14  C   UNL     1      -8.105  13.280  69.276  1.00  0.00     0.613 A  
HETATM   15  C   UNL     1      -7.508  14.506  69.845  1.00  0.00     0.184 C  
HETATM   16  C   UNL     1      -6.643  14.376  71.021  1.00  0.00     0.385 C  
HETATM   17  O   UNL     1      -7.716  15.614  69.354  1.00  0.00    -0.211 OA 
HETATM   18  C   UNL     1      -6.493  13.142  71.525  1.00  0.00     2.140 C  
HETATM   19  C   UNL     1      -5.929  15.517  71.631  1.00  0.00     0.853 C  
HETATM   20  O   UNL     1      -6.198  16.714  71.072  1.00  0.00     0.774 OA 
HETATM   21  O   UNL     1      -5.162  15.400  72.575  1.00  0.00    -0.018 OA 
HETATM   22  N   UNL     1      -7.117  11.974  71.099  1.00  0.00     3.261 NA 
HETATM   23  C   UNL     1      -7.994  12.043  69.949  1.00  0.00     1.900 A  
HETATM   24  C   UNL     1      -9.056   9.761  70.322  1.00  0.00    -0.208 C  
HETATM   25  C   UNL     1      -8.764  10.951  69.439  1.00  0.00     0.107 A  
BRANCH  22  26
HETATM   26  C   UNL     1      -6.429  10.693  71.449  1.00  0.00     1.064 C  
HETATM   27  C   UNL     1      -5.172  10.269  70.724  1.00  0.00    -0.065 C  
HETATM   28  C   UNL     1      -6.403   9.439  70.596  1.00  0.00    -0.075 C  
ENDBRANCH  22  26
ENDBRANCH   7  11
ENDBRANCH   2   4
TORSDOF 3
ENDMDL
MODEL      147
REMARK 921   NORMALIZED FREE ENERGY PREDICTED BY IDOCK:   30.55 KCAL/MOL
REMARK 922        TOTAL FREE ENERGY PREDICTED BY IDOCK:   35.23 KCAL/MOL
REMARK 923 INTER-LIGAND FREE ENERGY PREDICTED BY IDOCK:   35.41 KCAL/MOL
REMARK 924 INTRA-LIGAND FREE ENERGY PREDICTED BY IDOCK:   -0.18 KCAL/MOL
REMARK 927      BINDING AFFINITY PREDICTED BY RF-SCORE:    0.00 PKD
ROOT
HETATM    1  C   UNL     1      -9.550  16.241  66.268  1.00  0.00    -0.308 C  
HETATM    2  N   UNL     1     -10.140  15.265  67.168  1.00  0.00    -0.238 NA 
HETATM    3  H   UNL     1     -10.561  15.522  68.062  1.00  0.00     0.000 HD 
ENDROOT
BRANCH   2   4
HETATM    4  C   UNL     1     -10.086  13.937  66.712  1.00  0.00    -0.265 A  
HETATM    5  N   UNL     1      -9.190  13.086  67.247  1.00  0.00    -0.205 NA 
HETATM    6  C   UNL     1      -9.205  11.789  66.841  1.00  0.00    -0.189 A  
HETATM    7  C   UNL     1     -10.033  11.253  65.860  1.00  0.00    -0.277 A  
HETATM    8  C   UNL     1     -12.101  14.402  65.250  1.00  0.00    -0.380 C  
HETATM    9  C   UNL     1     -10.925  12.177  65.294  1.00  0.00    -0.349 A  
HETATM   10  C   UNL     1     -11.004  13.505  65.751  1.00  0.00    -0.285 A  
BRANCH   7  11
HETATM   11  C   UNL     1     -10.084   9.792  65.539  1.00  0.00    -0.242 A  
HETATM   12  C   UNL     1     -10.128   8.101  63.773  1.00  0.00     5.944 A  
HETATM   13  C   UNL     1     -10.065   9.425  64.179  1.00  0.00     1.726 A  
HETATM   14  C   UNL     1     -10.342   7.104  64.719  1.00  0.00     5.288 A  
HETATM   15  C   UNL     1     -10.416   5.710  64.233  1.00  0.00     2.991 C  
HETATM   16  C   UNL     1     -10.815   4.664  65.178  1.00  0.00    -0.025 C  
HETATM   17  O   UNL     1     -10.157   5.418  63.067  1.00  0.00     1.104 OA 
HETATM   18  C   UNL     1     -11.044   5.051  66.443  1.00  0.00     0.414 C  
HETATM   19  C   UNL     1     -10.999   3.250  64.792  1.00  0.00     0.813 C  
HETATM   20  O   UNL     1     -10.690   2.972  63.509  1.00  0.00    -0.226 OA 
HETATM   21  O   UNL     1     -11.389   2.389  65.566  1.00  0.00     3.993 OA 
HETATM   22  N   UNL     1     -10.882   6.324  66.979  1.00  0.00    -0.364 NA 
HETATM   23  C   UNL     1     -10.477   7.397  66.095  1.00  0.00     0.849 A  
HETATM   24  C   UNL     1      -9.878   9.026  67.955  1.00  0.00    -0.197 C  
HETATM   25  C   UNL     1     -10.196   8.736  66.507  1.00  0.00    -0.314 A  
BRANCH  22  26
HETATM   26  C   UNL     1     -11.666   6.622  68.218  1.00  0.00     0.857 C  
HETATM   27  C   UNL     1     -12.088   5.510  69.151  1.00  0.00     4.413 C  
HETATM   28  C   UNL     1     -13.132   6.301  68.439  1.00  0.00    10.882 C  
ENDBRANCH  22  26
ENDBRANCH   7  11
ENDBRANCH   2   4
TORSDOF 3
ENDMDL
MODEL      148
REMARK 921   NORMALIZED FREE ENERGY PREDICTED BY IDOCK:   44.04 KCAL/MOL
REMARK 922        TOTAL FREE ENERGY PREDICTED BY IDOCK:   51.08 KCAL/MOL
REMARK 923 INTER-LIGAND FREE ENERGY PREDICTED BY IDOCK:   51.07 KCAL/MOL
REMARK 924 INTRA-LIGAND FREE ENERGY PREDICTED BY IDOCK:    0.01 KCAL/MOL
REMARK 927      BINDING AFFINITY PREDICTED BY RF-SCORE:    0.00 PKD
ROOT
HETATM    1  C   UNL     1      -5.134  10.227  63.643  1.00  0.00    -0.124 C  
HETATM    2  N   UNL     1      -6.318  10.201  64.486  1.00  0.00    -0.130 NA 
HETATM    3  H   UNL     1      -6.899   9.369  64.594  1.00  0.00     0.000 HD 
ENDROOT
BRANCH   2   4
HETATM    4  C   UNL     1      -6.599  11.411  65.142  1.00  0.00     1.255 A  
HETATM    5  N   UNL     1      -6.609  11.451  66.487  1.00  0.00    -0.110 NA 
HETATM    6  C   UNL     1      -6.812  12.649  67.098  1.00  0.00    -0.020 A  
HETATM    7  C   UNL     1      -7.076  13.855  66.458  1.00  0.00     2.247 A  
HETATM    8  C   UNL     1      -6.653  12.569  62.890  1.00  0.00     6.416 C  
HETATM    9  C   UNL     1      -7.100  13.768  65.057  1.00  0.00    12.856 A  
HETATM   10  C   UNL     1      -6.804  12.568  64.386  1.00  0.00     8.642 A  
BRANCH   7  11
HETATM   11  C   UNL     1      -7.175  15.162  67.181  1.00  0.00    -0.098 A  
HETATM   12  C   UNL     1      -6.056  17.264  67.738  1.00  0.00    -0.152 A  
HETATM   13  C   UNL     1      -6.075  16.038  67.090  1.00  0.00    -0.044 A  
HETATM   14  C   UNL     1      -7.092  17.597  68.606  1.00  0.00    -0.245 A  
HETATM   15  C   UNL     1      -7.016  18.909  69.282  1.00  0.00    -0.239 C  
HETATM   16  C   UNL     1      -7.996  19.207  70.329  1.00  0.00     1.468 C  
HETATM   17  O   UNL     1      -6.157  19.738  68.989  1.00  0.00    -0.251 OA 
HETATM   18  C   UNL     1      -8.928  18.272  70.568  1.00  0.00     3.820 C  
HETATM   19  C   UNL     1      -7.975  20.451  71.128  1.00  0.00     1.953 C  
HETATM   20  O   UNL     1      -7.026  21.338  70.763  1.00  0.00     2.200 OA 
HETATM   21  O   UNL     1      -8.755  20.675  72.041  1.00  0.00     1.162 OA 
HETATM   22  N   UNL     1      -9.113  17.072  69.888  1.00  0.00     0.991 NA 
HETATM   23  C   UNL     1      -8.182  16.728  68.833  1.00  0.00    -0.224 A  
HETATM   24  C   UNL     1      -9.606  14.858  67.861  1.00  0.00    -0.205 C  
HETATM   25  C   UNL     1      -8.283  15.574  67.996  1.00  0.00    -0.146 A  
BRANCH  22  26
HETATM   26  C   UNL     1      -9.842  15.999  70.633  1.00  0.00     1.179 C  
HETATM   27  C   UNL     1      -9.691  15.858  72.130  1.00  0.00     5.401 C  
HETATM   28  C   UNL     1      -9.214  14.760  71.242  1.00  0.00     3.466 C  
ENDBRANCH  22  26
ENDBRANCH   7  11
ENDBRANCH   2   4
TORSDOF 3
ENDMDL
MODEL      149
REMARK 921   NORMALIZED FREE ENERGY PREDICTED BY IDOCK:   58.14 KCAL/MOL
REMARK 922        TOTAL FREE ENERGY PREDICTED BY IDOCK:   67.66 KCAL/MOL
REMARK 923 INTER-LIGAND FREE ENERGY PREDICTED BY IDOCK:   66.71 KCAL/MOL
REMARK 924 INTRA-LIGAND FREE ENERGY PREDICTED BY IDOCK:    0.96 KCAL/MOL
REMARK 927      BINDING AFFINITY PREDICTED BY RF-SCORE:    0.00 PKD
ROOT
HETATM    1  C   UNL     1      -5.199  10.534  63.629  1.00  0.00    -0.163 C  
HETATM    2  N   UNL     1      -6.571  10.613  64.103  1.00  0.00    -0.358 NA 
HETATM    3  H   UNL     1      -7.293   9.953  63.811  1.00  0.00     0.000 HD 
ENDROOT
BRANCH   2   4
HETATM    4  C   UNL     1      -6.825  11.668  64.995  1.00  0.00     2.242 A  
HETATM    5  N   UNL     1      -7.438  11.415  66.166  1.00  0.00     0.036 NA 
HETATM    6  C   UNL     1      -7.608  12.439  67.044  1.00  0.00    -0.044 A  
HETATM    7  C   UNL     1      -7.257  13.767  66.823  1.00  0.00     1.126 A  
HETATM    8  C   UNL     1      -5.568  13.226  63.444  1.00  0.00    12.780 C  
HETATM    9  C   UNL     1      -6.657  14.002  65.576  1.00  0.00    10.326 A  
HETATM   10  C   UNL     1      -6.381  12.954  64.679  1.00  0.00    11.463 A  
BRANCH   7  11
HETATM   11  C   UNL     1      -7.362  14.828  67.874  1.00  0.00    -0.162 A  
HETATM   12  C   UNL     1      -8.028  15.357  70.167  1.00  0.00     0.500 A  
HETATM   13  C   UNL     1      -7.870  14.448  69.132  1.00  0.00    -0.026 A  
HETATM   14  C   UNL     1      -7.799  16.709  69.932  1.00  0.00     1.008 A  
HETATM   15  C   UNL     1      -7.995  17.637  71.064  1.00  0.00     6.555 C  
HETATM   16  C   UNL     1      -7.933  19.077  70.800  1.00  0.00     3.096 C  
HETATM   17  O   UNL     1      -8.209  17.230  72.205  1.00  0.00    12.038 OA 
HETATM   18  C   UNL     1      -7.656  19.449  69.541  1.00  0.00    -0.007 C  
HETATM   19  C   UNL     1      -8.189  20.103  71.834  1.00  0.00     2.346 C  
HETATM   20  O   UNL     1      -8.405  19.612  73.072  1.00  0.00     2.976 OA 
HETATM   21  O   UNL     1      -8.196  21.302  71.601  1.00  0.00     2.436 OA 
HETATM   22  N   UNL     1      -7.354  18.621  68.465  1.00  0.00    -0.286 NA 
HETATM   23  C   UNL     1      -7.387  17.187  68.668  1.00  0.00    -0.238 A  
HETATM   24  C   UNL     1      -6.173  16.612  66.507  1.00  0.00     0.099 C  
HETATM   25  C   UNL     1      -7.028  16.212  67.686  1.00  0.00    -0.175 A  
BRANCH  22  26
HETATM   26  C   UNL     1      -7.591  19.196  67.104  1.00  0.00    -0.232 C  
HETATM   27  C   UNL     1      -8.646  20.257  66.886  1.00  0.00    -0.370 C  
HETATM   28  C   UNL     1      -8.799  18.929  66.227  1.00  0.00    -0.260 C  
ENDBRANCH  22  26
ENDBRANCH   7  11
ENDBRANCH   2   4
TORSDOF 3
ENDMDL
