MODEL        1
REMARK 921   NORMALIZED FREE ENERGY PREDICTED BY IDOCK:   -6.27 KCAL/MOL
REMARK 922        TOTAL FREE ENERGY PREDICTED BY IDOCK:   -6.96 KCAL/MOL
REMARK 923 INTER-LIGAND FREE ENERGY PREDICTED BY IDOCK:   -6.64 KCAL/MOL
REMARK 924 INTRA-LIGAND FREE ENERGY PREDICTED BY IDOCK:   -0.32 KCAL/MOL
REMARK 927      BINDING AFFINITY PREDICTED BY RF-SCORE:    0.00 PKD
ROOT
HETATM    1  O   UNL     1     -11.272  13.827  64.553  1.00  0.00    -0.362 OA 
HETATM    2  N   UNL     1     -10.973  14.867  65.157  1.00  0.00    -0.374 N  
HETATM    3  O   UNL     1     -10.494  15.878  64.621  1.00  0.00    -0.474 OA 
HETATM    4  C   UNL     1     -11.210  14.908  66.604  1.00  0.00    -0.340 A  
HETATM    5  C   UNL     1     -11.753  13.796  67.251  1.00  0.00    -0.416 A  
HETATM    6  C   UNL     1     -12.026  13.862  68.624  1.00  0.00    -0.401 A  
HETATM    7  C   UNL     1     -11.760  15.021  69.381  1.00  0.00    -0.351 A  
HETATM    8  C   UNL     1     -10.909  16.066  67.328  1.00  0.00    -0.255 A  
HETATM    9  C   UNL     1     -11.177  16.109  68.702  1.00  0.00    -0.369 A  
ENDROOT
BRANCH   7  10
HETATM   10  C   UNL     1     -12.124  15.104  70.818  1.00  0.00    -0.387 A  
HETATM   11  C   UNL     1     -12.965  14.154  71.427  1.00  0.00    -0.422 A  
HETATM   12  C   UNL     1     -13.355  14.271  72.767  1.00  0.00    -0.621 A  
HETATM   13  C   UNL     1     -12.898  15.335  73.537  1.00  0.00    -0.681 A  
HETATM   14  C   UNL     1     -12.049  16.278  72.969  1.00  0.00    -0.629 A  
HETATM   15  C   UNL     1     -11.673  16.165  71.627  1.00  0.00    -0.558 A  
ENDBRANCH   7  10
TORSDOF 1
ENDMDL
MODEL        2
REMARK 921   NORMALIZED FREE ENERGY PREDICTED BY IDOCK:   -6.07 KCAL/MOL
REMARK 922        TOTAL FREE ENERGY PREDICTED BY IDOCK:   -6.75 KCAL/MOL
REMARK 923 INTER-LIGAND FREE ENERGY PREDICTED BY IDOCK:   -6.42 KCAL/MOL
REMARK 924 INTRA-LIGAND FREE ENERGY PREDICTED BY IDOCK:   -0.32 KCAL/MOL
REMARK 927      BINDING AFFINITY PREDICTED BY RF-SCORE:    0.00 PKD
ROOT
HETATM    1  O   UNL     1     -10.719   6.600  70.562  1.00  0.00    -0.226 OA 
HETATM    2  N   UNL     1     -11.630   6.996  71.302  1.00  0.00    -0.286 N  
HETATM    3  O   UNL     1     -12.268   6.270  72.079  1.00  0.00    -0.338 OA 
HETATM    4  C   UNL     1     -11.972   8.422  71.263  1.00  0.00    -0.288 A  
HETATM    5  C   UNL     1     -11.277   9.280  70.408  1.00  0.00    -0.290 A  
HETATM    6  C   UNL     1     -11.573  10.650  70.415  1.00  0.00    -0.441 A  
HETATM    7  C   UNL     1     -12.564  11.192  71.258  1.00  0.00    -0.503 A  
HETATM    8  C   UNL     1     -12.979   8.921  72.095  1.00  0.00    -0.473 A  
HETATM    9  C   UNL     1     -13.270  10.291  72.079  1.00  0.00    -0.516 A  
ENDROOT
BRANCH   7  10
HETATM   10  C   UNL     1     -12.814  12.655  71.311  1.00  0.00    -0.344 A  
HETATM   11  C   UNL     1     -13.656  13.230  72.280  1.00  0.00    -0.703 A  
HETATM   12  C   UNL     1     -13.938  14.602  72.285  1.00  0.00    -0.589 A  
HETATM   13  C   UNL     1     -13.368  15.436  71.330  1.00  0.00    -0.598 A  
HETATM   14  C   UNL     1     -12.515  14.901  70.373  1.00  0.00    -0.403 A  
HETATM   15  C   UNL     1     -12.247  13.528  70.361  1.00  0.00    -0.426 A  
ENDBRANCH   7  10
TORSDOF 1
ENDMDL
MODEL        3
REMARK 921   NORMALIZED FREE ENERGY PREDICTED BY IDOCK:   -6.02 KCAL/MOL
REMARK 922        TOTAL FREE ENERGY PREDICTED BY IDOCK:   -6.70 KCAL/MOL
REMARK 923 INTER-LIGAND FREE ENERGY PREDICTED BY IDOCK:   -6.38 KCAL/MOL
REMARK 924 INTRA-LIGAND FREE ENERGY PREDICTED BY IDOCK:   -0.32 KCAL/MOL
REMARK 927      BINDING AFFINITY PREDICTED BY RF-SCORE:    0.00 PKD
ROOT
HETATM    1  O   UNL     1     -12.492   6.383  71.712  1.00  0.00    -0.316 OA 
HETATM    2  N   UNL     1     -11.790   7.138  71.026  1.00  0.00    -0.319 N  
HETATM    3  O   UNL     1     -10.905   6.757  70.245  1.00  0.00    -0.240 OA 
HETATM    4  C   UNL     1     -12.027   8.582  71.137  1.00  0.00    -0.272 A  
HETATM    5  C   UNL     1     -13.017   9.058  72.000  1.00  0.00    -0.470 A  
HETATM    6  C   UNL     1     -13.273  10.435  72.062  1.00  0.00    -0.497 A  
HETATM    7  C   UNL     1     -12.553  11.362  71.281  1.00  0.00    -0.480 A  
HETATM    8  C   UNL     1     -11.275   9.474  70.368  1.00  0.00    -0.323 A  
HETATM    9  C   UNL     1     -11.537  10.847  70.452  1.00  0.00    -0.418 A  
ENDROOT
BRANCH   7  10
HETATM   10  C   UNL     1     -12.886  12.808  71.300  1.00  0.00    -0.355 A  
HETATM   11  C   UNL     1     -12.322  13.712  70.382  1.00  0.00    -0.415 A  
HETATM   12  C   UNL     1     -12.592  15.086  70.444  1.00  0.00    -0.399 A  
HETATM   13  C   UNL     1     -13.449  15.586  71.418  1.00  0.00    -0.583 A  
HETATM   14  C   UNL     1     -14.039  14.714  72.326  1.00  0.00    -0.588 A  
HETATM   15  C   UNL     1     -13.756  13.345  72.270  1.00  0.00    -0.705 A  
ENDBRANCH   7  10
TORSDOF 1
ENDMDL
MODEL        4
REMARK 921   NORMALIZED FREE ENERGY PREDICTED BY IDOCK:   -6.01 KCAL/MOL
REMARK 922        TOTAL FREE ENERGY PREDICTED BY IDOCK:   -6.68 KCAL/MOL
REMARK 923 INTER-LIGAND FREE ENERGY PREDICTED BY IDOCK:   -6.38 KCAL/MOL
REMARK 924 INTRA-LIGAND FREE ENERGY PREDICTED BY IDOCK:   -0.30 KCAL/MOL
REMARK 927      BINDING AFFINITY PREDICTED BY RF-SCORE:    0.00 PKD
ROOT
HETATM    1  O   UNL     1     -10.987  11.616  65.393  1.00  0.00    -0.299 OA 
HETATM    2  N   UNL     1     -10.874  12.838  65.561  1.00  0.00    -0.270 N  
HETATM    3  O   UNL     1     -10.499  13.635  64.688  1.00  0.00    -0.411 OA 
HETATM    4  C   UNL     1     -11.218  13.382  66.880  1.00  0.00    -0.308 A  
HETATM    5  C   UNL     1     -11.651  12.523  67.893  1.00  0.00    -0.403 A  
HETATM    6  C   UNL     1     -12.027  13.055  69.134  1.00  0.00    -0.320 A  
HETATM    7  C   UNL     1     -11.974  14.440  69.396  1.00  0.00    -0.370 A  
HETATM    8  C   UNL     1     -11.128  14.757  67.113  1.00  0.00    -0.333 A  
HETATM    9  C   UNL     1     -11.496  15.270  68.364  1.00  0.00    -0.358 A  
ENDROOT
BRANCH   7  10
HETATM   10  C   UNL     1     -12.448  14.997  70.689  1.00  0.00    -0.422 A  
HETATM   11  C   UNL     1     -11.574  15.635  71.587  1.00  0.00    -0.519 A  
HETATM   12  C   UNL     1     -12.014  16.103  72.832  1.00  0.00    -0.623 A  
HETATM   13  C   UNL     1     -13.347  15.960  73.200  1.00  0.00    -0.681 A  
HETATM   14  C   UNL     1     -14.239  15.354  72.324  1.00  0.00    -0.639 A  
HETATM   15  C   UNL     1     -13.793  14.875  71.088  1.00  0.00    -0.428 A  
ENDBRANCH   7  10
TORSDOF 1
ENDMDL
MODEL        5
REMARK 921   NORMALIZED FREE ENERGY PREDICTED BY IDOCK:   -5.96 KCAL/MOL
REMARK 922        TOTAL FREE ENERGY PREDICTED BY IDOCK:   -6.63 KCAL/MOL
REMARK 923 INTER-LIGAND FREE ENERGY PREDICTED BY IDOCK:   -6.31 KCAL/MOL
REMARK 924 INTRA-LIGAND FREE ENERGY PREDICTED BY IDOCK:   -0.32 KCAL/MOL
REMARK 927      BINDING AFFINITY PREDICTED BY RF-SCORE:    0.00 PKD
ROOT
HETATM    1  O   UNL     1     -10.220  15.737  64.695  1.00  0.00    -0.296 OA 
HETATM    2  N   UNL     1     -10.701  14.731  65.234  1.00  0.00    -0.361 N  
HETATM    3  O   UNL     1     -10.833  13.630  64.677  1.00  0.00    -0.367 OA 
HETATM    4  C   UNL     1     -11.137  14.846  66.630  1.00  0.00    -0.329 A  
HETATM    5  C   UNL     1     -11.004  16.063  67.301  1.00  0.00    -0.207 A  
HETATM    6  C   UNL     1     -11.374  16.151  68.650  1.00  0.00    -0.365 A  
HETATM    7  C   UNL     1     -11.888  15.043  69.355  1.00  0.00    -0.358 A  
HETATM    8  C   UNL     1     -11.668  13.733  67.290  1.00  0.00    -0.416 A  
HETATM    9  C   UNL     1     -12.044  13.843  68.635  1.00  0.00    -0.337 A  
ENDROOT
BRANCH   7  10
HETATM   10  C   UNL     1     -12.204  15.130  70.803  1.00  0.00    -0.392 A  
HETATM   11  C   UNL     1     -11.680  16.151  71.617  1.00  0.00    -0.558 A  
HETATM   12  C   UNL     1     -11.931  16.192  72.995  1.00  0.00    -0.593 A  
HETATM   13  C   UNL     1     -12.729  15.220  73.589  1.00  0.00    -0.703 A  
HETATM   14  C   UNL     1     -13.278  14.212  72.806  1.00  0.00    -0.604 A  
HETATM   15  C   UNL     1     -13.014  14.166  71.433  1.00  0.00    -0.422 A  
ENDBRANCH   7  10
TORSDOF 1
ENDMDL
MODEL        6
REMARK 921   NORMALIZED FREE ENERGY PREDICTED BY IDOCK:   -5.96 KCAL/MOL
REMARK 922        TOTAL FREE ENERGY PREDICTED BY IDOCK:   -6.63 KCAL/MOL
REMARK 923 INTER-LIGAND FREE ENERGY PREDICTED BY IDOCK:   -6.31 KCAL/MOL
REMARK 924 INTRA-LIGAND FREE ENERGY PREDICTED BY IDOCK:   -0.32 KCAL/MOL
REMARK 927      BINDING AFFINITY PREDICTED BY RF-SCORE:    0.00 PKD
ROOT
HETATM    1  O   UNL     1     -10.630  14.346  64.523  1.00  0.00    -0.371 OA 
HETATM    2  N   UNL     1     -10.866  13.413  65.303  1.00  0.00    -0.299 N  
HETATM    3  O   UNL     1     -10.791  12.211  65.003  1.00  0.00    -0.282 OA 
HETATM    4  C   UNL     1     -11.251  13.750  66.678  1.00  0.00    -0.318 A  
HETATM    5  C   UNL     1     -11.344  15.090  67.063  1.00  0.00    -0.319 A  
HETATM    6  C   UNL     1     -11.661  15.404  68.392  1.00  0.00    -0.368 A  
HETATM    7  C   UNL     1     -11.900  14.404  69.357  1.00  0.00    -0.369 A  
HETATM    8  C   UNL     1     -11.507  12.733  67.601  1.00  0.00    -0.387 A  
HETATM    9  C   UNL     1     -11.836  13.066  68.921  1.00  0.00    -0.358 A  
ENDROOT
BRANCH   7  10
HETATM   10  C   UNL     1     -12.160  14.750  70.777  1.00  0.00    -0.374 A  
HETATM   11  C   UNL     1     -12.881  13.895  71.630  1.00  0.00    -0.432 A  
HETATM   12  C   UNL     1     -13.177  14.255  72.951  1.00  0.00    -0.593 A  
HETATM   13  C   UNL     1     -12.741  15.475  73.457  1.00  0.00    -0.681 A  
HETATM   14  C   UNL     1     -12.008  16.332  72.644  1.00  0.00    -0.644 A  
HETATM   15  C   UNL     1     -11.727  15.975  71.321  1.00  0.00    -0.516 A  
ENDBRANCH   7  10
TORSDOF 1
ENDMDL
MODEL        7
REMARK 921   NORMALIZED FREE ENERGY PREDICTED BY IDOCK:   -5.91 KCAL/MOL
REMARK 922        TOTAL FREE ENERGY PREDICTED BY IDOCK:   -6.58 KCAL/MOL
REMARK 923 INTER-LIGAND FREE ENERGY PREDICTED BY IDOCK:   -6.28 KCAL/MOL
REMARK 924 INTRA-LIGAND FREE ENERGY PREDICTED BY IDOCK:   -0.31 KCAL/MOL
REMARK 927      BINDING AFFINITY PREDICTED BY RF-SCORE:    0.00 PKD
ROOT
HETATM    1  O   UNL     1     -10.826  16.578  64.494  1.00  0.00    -0.802 OA 
HETATM    2  N   UNL     1     -10.432  16.828  65.642  1.00  0.00    -0.327 N  
HETATM    3  O   UNL     1      -9.749  17.817  65.950  1.00  0.00    -0.528 OA 
HETATM    4  C   UNL     1     -10.804  15.895  66.711  1.00  0.00    -0.228 A  
HETATM    5  C   UNL     1     -11.577  14.770  66.413  1.00  0.00    -0.301 A  
HETATM    6  C   UNL     1     -11.973  13.912  67.448  1.00  0.00    -0.436 A  
HETATM    7  C   UNL     1     -11.607  14.146  68.790  1.00  0.00    -0.362 A  
HETATM    8  C   UNL     1     -10.401  16.144  68.027  1.00  0.00    -0.271 A  
HETATM    9  C   UNL     1     -10.796  15.268  69.046  1.00  0.00    -0.244 A  
ENDROOT
BRANCH   7  10
HETATM   10  C   UNL     1     -12.097  13.271  69.885  1.00  0.00    -0.377 A  
HETATM   11  C   UNL     1     -11.937  11.874  69.849  1.00  0.00    -0.398 A  
HETATM   12  C   UNL     1     -12.457  11.049  70.855  1.00  0.00    -0.509 A  
HETATM   13  C   UNL     1     -13.135  11.606  71.933  1.00  0.00    -0.490 A  
HETATM   14  C   UNL     1     -13.291  12.985  72.008  1.00  0.00    -0.588 A  
HETATM   15  C   UNL     1     -12.783  13.805  70.994  1.00  0.00    -0.416 A  
ENDBRANCH   7  10
TORSDOF 1
ENDMDL
MODEL        8
REMARK 921   NORMALIZED FREE ENERGY PREDICTED BY IDOCK:   -5.90 KCAL/MOL
REMARK 922        TOTAL FREE ENERGY PREDICTED BY IDOCK:   -6.57 KCAL/MOL
REMARK 923 INTER-LIGAND FREE ENERGY PREDICTED BY IDOCK:   -6.25 KCAL/MOL
REMARK 924 INTRA-LIGAND FREE ENERGY PREDICTED BY IDOCK:   -0.31 KCAL/MOL
REMARK 927      BINDING AFFINITY PREDICTED BY RF-SCORE:    0.00 PKD
ROOT
HETATM    1  O   UNL     1     -13.460  15.903  72.149  1.00  0.00    -0.435 OA 
HETATM    2  N   UNL     1     -12.834  15.358  71.230  1.00  0.00    -0.417 N  
HETATM    3  O   UNL     1     -12.231  15.966  70.332  1.00  0.00    -0.372 OA 
HETATM    4  C   UNL     1     -12.795  13.891  71.205  1.00  0.00    -0.360 A  
HETATM    5  C   UNL     1     -13.454  13.163  72.198  1.00  0.00    -0.653 A  
HETATM    6  C   UNL     1     -13.369  11.764  72.198  1.00  0.00    -0.334 A  
HETATM    7  C   UNL     1     -12.640  11.063  71.216  1.00  0.00    -0.517 A  
HETATM    8  C   UNL     1     -12.085  13.228  70.200  1.00  0.00    -0.403 A  
HETATM    9  C   UNL     1     -12.021  11.829  70.209  1.00  0.00    -0.429 A  
ENDROOT
BRANCH   7  10
HETATM   10  C   UNL     1     -12.495   9.586  71.272  1.00  0.00    -0.432 A  
HETATM   11  C   UNL     1     -11.291   8.945  70.927  1.00  0.00    -0.336 A  
HETATM   12  C   UNL     1     -11.179   7.548  70.922  1.00  0.00    -0.286 A  
HETATM   13  C   UNL     1     -12.267   6.759  71.280  1.00  0.00    -0.415 A  
HETATM   14  C   UNL     1     -13.463   7.365  71.645  1.00  0.00    -0.437 A  
HETATM   15  C   UNL     1     -13.575   8.759  71.636  1.00  0.00    -0.425 A  
ENDBRANCH   7  10
TORSDOF 1
ENDMDL
MODEL        9
REMARK 921   NORMALIZED FREE ENERGY PREDICTED BY IDOCK:   -5.82 KCAL/MOL
REMARK 922        TOTAL FREE ENERGY PREDICTED BY IDOCK:   -6.48 KCAL/MOL
REMARK 923 INTER-LIGAND FREE ENERGY PREDICTED BY IDOCK:   -6.16 KCAL/MOL
REMARK 924 INTRA-LIGAND FREE ENERGY PREDICTED BY IDOCK:   -0.32 KCAL/MOL
REMARK 927      BINDING AFFINITY PREDICTED BY RF-SCORE:    0.00 PKD
ROOT
HETATM    1  O   UNL     1     -12.039  11.598  67.092  1.00  0.00    -0.575 OA 
HETATM    2  N   UNL     1     -11.419  12.212  66.213  1.00  0.00    -0.365 N  
HETATM    3  O   UNL     1     -11.058  11.719  65.133  1.00  0.00    -0.308 OA 
HETATM    4  C   UNL     1     -11.097  13.622  66.460  1.00  0.00    -0.305 A  
HETATM    5  C   UNL     1     -11.487  14.223  67.659  1.00  0.00    -0.370 A  
HETATM    6  C   UNL     1     -11.223  15.584  67.867  1.00  0.00    -0.325 A  
HETATM    7  C   UNL     1     -10.562  16.369  66.900  1.00  0.00    -0.252 A  
HETATM    8  C   UNL     1     -10.416  14.364  65.490  1.00  0.00    -0.366 A  
HETATM    9  C   UNL     1     -10.149  15.719  65.720  1.00  0.00    -0.399 A  
ENDROOT
BRANCH   7  10
HETATM   10  C   UNL     1     -10.356  17.826  67.101  1.00  0.00    -0.354 A  
HETATM   11  C   UNL     1     -10.300  18.724  66.020  1.00  0.00    -0.467 A  
HETATM   12  C   UNL     1     -10.043  20.088  66.211  1.00  0.00    -0.603 A  
HETATM   13  C   UNL     1      -9.854  20.589  67.494  1.00  0.00    -0.534 A  
HETATM   14  C   UNL     1      -9.924  19.730  68.584  1.00  0.00    -0.535 A  
HETATM   15  C   UNL     1     -10.167  18.366  68.388  1.00  0.00    -0.407 A  
ENDBRANCH   7  10
TORSDOF 1
ENDMDL
MODEL       10
REMARK 921   NORMALIZED FREE ENERGY PREDICTED BY IDOCK:   -5.79 KCAL/MOL
REMARK 922        TOTAL FREE ENERGY PREDICTED BY IDOCK:   -6.45 KCAL/MOL
REMARK 923 INTER-LIGAND FREE ENERGY PREDICTED BY IDOCK:   -6.13 KCAL/MOL
REMARK 924 INTRA-LIGAND FREE ENERGY PREDICTED BY IDOCK:   -0.32 KCAL/MOL
REMARK 927      BINDING AFFINITY PREDICTED BY RF-SCORE:    0.00 PKD
ROOT
HETATM    1  O   UNL     1     -12.025  11.484  67.010  1.00  0.00    -0.556 OA 
HETATM    2  N   UNL     1     -11.414  12.119  66.138  1.00  0.00    -0.363 N  
HETATM    3  O   UNL     1     -11.074  11.654  65.040  1.00  0.00    -0.299 OA 
HETATM    4  C   UNL     1     -11.079  13.519  66.421  1.00  0.00    -0.302 A  
HETATM    5  C   UNL     1     -11.447  14.088  67.642  1.00  0.00    -0.362 A  
HETATM    6  C   UNL     1     -11.170  15.441  67.884  1.00  0.00    -0.329 A  
HETATM    7  C   UNL     1     -10.520  16.249  66.929  1.00  0.00    -0.302 A  
HETATM    8  C   UNL     1     -10.409  14.284  65.461  1.00  0.00    -0.374 A  
HETATM    9  C   UNL     1     -10.130  15.630  65.725  1.00  0.00    -0.394 A  
ENDROOT
BRANCH   7  10
HETATM   10  C   UNL     1     -10.301  17.698  67.167  1.00  0.00    -0.343 A  
HETATM   11  C   UNL     1     -10.121  18.219  68.461  1.00  0.00    -0.419 A  
HETATM   12  C   UNL     1      -9.978  19.595  68.686  1.00  0.00    -0.553 A  
HETATM   13  C   UNL     1      -9.993  20.482  67.615  1.00  0.00    -0.454 A  
HETATM   14  C   UNL     1     -10.147  19.995  66.323  1.00  0.00    -0.603 A  
HETATM   15  C   UNL     1     -10.304  18.622  66.104  1.00  0.00    -0.481 A  
ENDBRANCH   7  10
TORSDOF 1
ENDMDL
MODEL       11
REMARK 921   NORMALIZED FREE ENERGY PREDICTED BY IDOCK:   -5.79 KCAL/MOL
REMARK 922        TOTAL FREE ENERGY PREDICTED BY IDOCK:   -6.45 KCAL/MOL
REMARK 923 INTER-LIGAND FREE ENERGY PREDICTED BY IDOCK:   -6.14 KCAL/MOL
REMARK 924 INTRA-LIGAND FREE ENERGY PREDICTED BY IDOCK:   -0.31 KCAL/MOL
REMARK 927      BINDING AFFINITY PREDICTED BY RF-SCORE:    0.00 PKD
ROOT
HETATM    1  O   UNL     1     -11.165  16.597  64.288  1.00  0.00    -1.098 OA 
HETATM    2  N   UNL     1     -10.709  16.777  65.426  1.00  0.00    -0.278 N  
HETATM    3  O   UNL     1     -10.018  17.751  65.760  1.00  0.00    -0.545 OA 
HETATM    4  C   UNL     1     -11.017  15.774  66.452  1.00  0.00    -0.159 A  
HETATM    5  C   UNL     1     -11.797  14.663  66.125  1.00  0.00    -0.282 A  
HETATM    6  C   UNL     1     -12.130  13.736  67.123  1.00  0.00    -0.416 A  
HETATM    7  C   UNL     1     -11.692  13.887  68.455  1.00  0.00    -0.391 A  
HETATM    8  C   UNL     1     -10.543  15.942  67.757  1.00  0.00    -0.302 A  
HETATM    9  C   UNL     1     -10.876  15.000  68.738  1.00  0.00    -0.249 A  
ENDROOT
BRANCH   7  10
HETATM   10  C   UNL     1     -12.116  12.940  69.517  1.00  0.00    -0.274 A  
HETATM   11  C   UNL     1     -12.623  13.386  70.750  1.00  0.00    -0.369 A  
HETATM   12  C   UNL     1     -12.962  12.489  71.772  1.00  0.00    -0.419 A  
HETATM   13  C   UNL     1     -12.818  11.120  71.576  1.00  0.00    -0.542 A  
HETATM   14  C   UNL     1     -12.339  10.649  70.359  1.00  0.00    -0.428 A  
HETATM   15  C   UNL     1     -11.988  11.548  69.347  1.00  0.00    -0.392 A  
ENDBRANCH   7  10
TORSDOF 1
ENDMDL
MODEL       12
REMARK 921   NORMALIZED FREE ENERGY PREDICTED BY IDOCK:   -5.76 KCAL/MOL
REMARK 922        TOTAL FREE ENERGY PREDICTED BY IDOCK:   -6.43 KCAL/MOL
REMARK 923 INTER-LIGAND FREE ENERGY PREDICTED BY IDOCK:   -6.11 KCAL/MOL
REMARK 924 INTRA-LIGAND FREE ENERGY PREDICTED BY IDOCK:   -0.32 KCAL/MOL
REMARK 927      BINDING AFFINITY PREDICTED BY RF-SCORE:    0.00 PKD
ROOT
HETATM    1  O   UNL     1     -11.153  11.617  65.257  1.00  0.00    -0.292 OA 
HETATM    2  N   UNL     1     -11.440  12.107  66.358  1.00  0.00    -0.363 N  
HETATM    3  O   UNL     1     -11.895  11.464  67.316  1.00  0.00    -0.594 OA 
HETATM    4  C   UNL     1     -11.217  13.545  66.545  1.00  0.00    -0.306 A  
HETATM    5  C   UNL     1     -10.701  14.310  65.497  1.00  0.00    -0.339 A  
HETATM    6  C   UNL     1     -10.442  15.673  65.700  1.00  0.00    -0.402 A  
HETATM    7  C   UNL     1     -10.696  16.302  66.936  1.00  0.00    -0.217 A  
HETATM    8  C   UNL     1     -11.506  14.142  67.776  1.00  0.00    -0.352 A  
HETATM    9  C   UNL     1     -11.252  15.508  67.957  1.00  0.00    -0.332 A  
ENDROOT
BRANCH   7  10
HETATM   10  C   UNL     1     -10.345  17.728  67.160  1.00  0.00    -0.354 A  
HETATM   11  C   UNL     1     -10.189  18.259  68.453  1.00  0.00    -0.402 A  
HETATM   12  C   UNL     1      -9.920  19.618  68.660  1.00  0.00    -0.553 A  
HETATM   13  C   UNL     1      -9.783  20.476  67.575  1.00  0.00    -0.554 A  
HETATM   14  C   UNL     1      -9.911  19.976  66.285  1.00  0.00    -0.597 A  
HETATM   15  C   UNL     1     -10.194  18.621  66.082  1.00  0.00    -0.450 A  
ENDBRANCH   7  10
TORSDOF 1
ENDMDL
MODEL       13
REMARK 921   NORMALIZED FREE ENERGY PREDICTED BY IDOCK:   -5.65 KCAL/MOL
REMARK 922        TOTAL FREE ENERGY PREDICTED BY IDOCK:   -6.31 KCAL/MOL
REMARK 923 INTER-LIGAND FREE ENERGY PREDICTED BY IDOCK:   -6.01 KCAL/MOL
REMARK 924 INTRA-LIGAND FREE ENERGY PREDICTED BY IDOCK:   -0.30 KCAL/MOL
REMARK 927      BINDING AFFINITY PREDICTED BY RF-SCORE:    0.00 PKD
ROOT
HETATM    1  O   UNL     1      -9.779  17.617  65.771  1.00  0.00    -0.537 OA 
HETATM    2  N   UNL     1     -10.572  16.725  65.440  1.00  0.00    -0.285 N  
HETATM    3  O   UNL     1     -11.108  16.640  64.325  1.00  0.00    -1.029 OA 
HETATM    4  C   UNL     1     -10.893  15.692  66.432  1.00  0.00    -0.252 A  
HETATM    5  C   UNL     1     -10.309  15.742  67.700  1.00  0.00    -0.281 A  
HETATM    6  C   UNL     1     -10.579  14.724  68.624  1.00  0.00    -0.255 A  
HETATM    7  C   UNL     1     -11.435  13.647  68.315  1.00  0.00    -0.348 A  
HETATM    8  C   UNL     1     -11.767  14.653  66.100  1.00  0.00    -0.316 A  
HETATM    9  C   UNL     1     -12.035  13.651  67.041  1.00  0.00    -0.448 A  
ENDROOT
BRANCH   7  10
HETATM   10  C   UNL     1     -11.652  12.535  69.276  1.00  0.00    -0.378 A  
HETATM   11  C   UNL     1     -11.184  11.233  69.024  1.00  0.00    -0.321 A  
HETATM   12  C   UNL     1     -11.446  10.175  69.904  1.00  0.00    -0.317 A  
HETATM   13  C   UNL     1     -12.169  10.401  71.070  1.00  0.00    -0.498 A  
HETATM   14  C   UNL     1     -12.626  11.681  71.358  1.00  0.00    -0.391 A  
HETATM   15  C   UNL     1     -12.375  12.732  70.469  1.00  0.00    -0.355 A  
ENDBRANCH   7  10
TORSDOF 1
ENDMDL
MODEL       14
REMARK 921   NORMALIZED FREE ENERGY PREDICTED BY IDOCK:   -5.65 KCAL/MOL
REMARK 922        TOTAL FREE ENERGY PREDICTED BY IDOCK:   -6.31 KCAL/MOL
REMARK 923 INTER-LIGAND FREE ENERGY PREDICTED BY IDOCK:   -5.99 KCAL/MOL
REMARK 924 INTRA-LIGAND FREE ENERGY PREDICTED BY IDOCK:   -0.32 KCAL/MOL
REMARK 927      BINDING AFFINITY PREDICTED BY RF-SCORE:    0.00 PKD
ROOT
HETATM    1  O   UNL     1     -13.243  16.005  72.987  1.00  0.00    -0.510 OA 
HETATM    2  N   UNL     1     -13.038  14.825  72.673  1.00  0.00    -0.406 N  
HETATM    3  O   UNL     1     -13.235  13.855  73.422  1.00  0.00    -0.432 OA 
HETATM    4  C   UNL     1     -12.537  14.553  71.321  1.00  0.00    -0.345 A  
HETATM    5  C   UNL     1     -12.306  15.612  70.441  1.00  0.00    -0.427 A  
HETATM    6  C   UNL     1     -11.878  15.342  69.134  1.00  0.00    -0.357 A  
HETATM    7  C   UNL     1     -11.663  14.025  68.679  1.00  0.00    -0.389 A  
HETATM    8  C   UNL     1     -12.310  13.235  70.913  1.00  0.00    -0.413 A  
HETATM    9  C   UNL     1     -11.870  12.985  69.607  1.00  0.00    -0.385 A  
ENDROOT
BRANCH   7  10
HETATM   10  C   UNL     1     -11.283  13.749  67.270  1.00  0.00    -0.329 A  
HETATM   11  C   UNL     1     -10.492  14.643  66.526  1.00  0.00    -0.290 A  
HETATM   12  C   UNL     1     -10.189  14.407  65.178  1.00  0.00    -0.420 A  
HETATM   13  C   UNL     1     -10.657  13.259  64.548  1.00  0.00    -0.437 A  
HETATM   14  C   UNL     1     -11.423  12.347  65.264  1.00  0.00    -0.389 A  
HETATM   15  C   UNL     1     -11.735  12.592  66.605  1.00  0.00    -0.464 A  
ENDBRANCH   7  10
TORSDOF 1
ENDMDL
MODEL       15
REMARK 921   NORMALIZED FREE ENERGY PREDICTED BY IDOCK:   -5.64 KCAL/MOL
REMARK 922        TOTAL FREE ENERGY PREDICTED BY IDOCK:   -6.29 KCAL/MOL
REMARK 923 INTER-LIGAND FREE ENERGY PREDICTED BY IDOCK:   -5.99 KCAL/MOL
REMARK 924 INTRA-LIGAND FREE ENERGY PREDICTED BY IDOCK:   -0.30 KCAL/MOL
REMARK 927      BINDING AFFINITY PREDICTED BY RF-SCORE:    0.00 PKD
ROOT
HETATM    1  O   UNL     1     -11.616  16.281  68.128  1.00  0.00    -0.262 OA 
HETATM    2  N   UNL     1     -11.522  15.179  67.571  1.00  0.00    -0.328 N  
HETATM    3  O   UNL     1     -11.288  15.019  66.364  1.00  0.00    -0.341 OA 
HETATM    4  C   UNL     1     -11.692  13.979  68.398  1.00  0.00    -0.354 A  
HETATM    5  C   UNL     1     -11.952  14.108  69.765  1.00  0.00    -0.396 A  
HETATM    6  C   UNL     1     -12.060  12.958  70.559  1.00  0.00    -0.364 A  
HETATM    7  C   UNL     1     -11.922  11.664  70.016  1.00  0.00    -0.429 A  
HETATM    8  C   UNL     1     -11.575  12.711  67.822  1.00  0.00    -0.403 A  
HETATM    9  C   UNL     1     -11.699  11.572  68.628  1.00  0.00    -0.389 A  
ENDROOT
BRANCH   7  10
HETATM   10  C   UNL     1     -11.963  10.458  70.881  1.00  0.00    -0.478 A  
HETATM   11  C   UNL     1     -10.876   9.569  70.967  1.00  0.00    -0.423 A  
HETATM   12  C   UNL     1     -10.944   8.399  71.736  1.00  0.00    -0.359 A  
HETATM   13  C   UNL     1     -12.097   8.101  72.453  1.00  0.00    -0.406 A  
HETATM   14  C   UNL     1     -13.180   8.971  72.404  1.00  0.00    -0.507 A  
HETATM   15  C   UNL     1     -13.114  10.131  71.624  1.00  0.00    -0.550 A  
ENDBRANCH   7  10
TORSDOF 1
ENDMDL
MODEL       16
REMARK 921   NORMALIZED FREE ENERGY PREDICTED BY IDOCK:   -5.62 KCAL/MOL
REMARK 922        TOTAL FREE ENERGY PREDICTED BY IDOCK:   -6.27 KCAL/MOL
REMARK 923 INTER-LIGAND FREE ENERGY PREDICTED BY IDOCK:   -5.97 KCAL/MOL
REMARK 924 INTRA-LIGAND FREE ENERGY PREDICTED BY IDOCK:   -0.30 KCAL/MOL
REMARK 927      BINDING AFFINITY PREDICTED BY RF-SCORE:    0.00 PKD
ROOT
HETATM    1  O   UNL     1     -12.252  16.229  63.710  1.00  0.00    -0.923 OA 
HETATM    2  N   UNL     1     -11.371  16.088  64.570  1.00  0.00    -0.402 N  
HETATM    3  O   UNL     1     -10.697  17.015  65.044  1.00  0.00    -0.713 OA 
HETATM    4  C   UNL     1     -11.114  14.732  65.069  1.00  0.00    -0.405 A  
HETATM    5  C   UNL     1     -11.852  13.657  64.569  1.00  0.00    -0.445 A  
HETATM    6  C   UNL     1     -11.638  12.373  65.088  1.00  0.00    -0.408 A  
HETATM    7  C   UNL     1     -10.688  12.129  66.101  1.00  0.00    -0.307 A  
HETATM    8  C   UNL     1     -10.145  14.523  66.054  1.00  0.00    -0.336 A  
HETATM    9  C   UNL     1      -9.935  13.231  66.552  1.00  0.00    -0.280 A  
ENDROOT
BRANCH   7  10
HETATM   10  C   UNL     1     -10.525  10.777  66.694  1.00  0.00    -0.302 A  
HETATM   11  C   UNL     1     -10.915  10.495  68.016  1.00  0.00    -0.345 A  
HETATM   12  C   UNL     1     -10.702   9.236  68.591  1.00  0.00    -0.180 A  
HETATM   13  C   UNL     1     -10.107   8.221  67.849  1.00  0.00    -0.252 A  
HETATM   14  C   UNL     1      -9.730   8.463  66.534  1.00  0.00    -0.330 A  
HETATM   15  C   UNL     1      -9.932   9.727  65.968  1.00  0.00    -0.342 A  
ENDBRANCH   7  10
TORSDOF 1
ENDMDL
MODEL       17
REMARK 921   NORMALIZED FREE ENERGY PREDICTED BY IDOCK:   -5.61 KCAL/MOL
REMARK 922        TOTAL FREE ENERGY PREDICTED BY IDOCK:   -6.26 KCAL/MOL
REMARK 923 INTER-LIGAND FREE ENERGY PREDICTED BY IDOCK:   -5.94 KCAL/MOL
REMARK 924 INTRA-LIGAND FREE ENERGY PREDICTED BY IDOCK:   -0.32 KCAL/MOL
REMARK 927      BINDING AFFINITY PREDICTED BY RF-SCORE:    0.00 PKD
ROOT
HETATM    1  O   UNL     1     -12.281  11.716  69.912  1.00  0.00    -0.283 OA 
HETATM    2  N   UNL     1     -12.016  12.021  68.741  1.00  0.00    -0.291 N  
HETATM    3  O   UNL     1     -12.104  11.246  67.777  1.00  0.00    -0.631 OA 
HETATM    4  C   UNL     1     -11.576  13.395  68.475  1.00  0.00    -0.333 A  
HETATM    5  C   UNL     1     -11.467  14.306  69.529  1.00  0.00    -0.336 A  
HETATM    6  C   UNL     1     -11.098  15.631  69.260  1.00  0.00    -0.293 A  
HETATM    7  C   UNL     1     -10.822  16.075  67.950  1.00  0.00    -0.333 A  
HETATM    8  C   UNL     1     -11.285  13.794  67.167  1.00  0.00    -0.327 A  
HETATM    9  C   UNL     1     -10.905  15.119  66.919  1.00  0.00    -0.317 A  
ENDROOT
BRANCH   7  10
HETATM   10  C   UNL     1     -10.506  17.499  67.670  1.00  0.00    -0.370 A  
HETATM   11  C   UNL     1     -10.240  18.417  68.702  1.00  0.00    -0.370 A  
HETATM   12  C   UNL     1     -10.004  19.772  68.436  1.00  0.00    -0.549 A  
HETATM   13  C   UNL     1     -10.011  20.238  67.126  1.00  0.00    -0.593 A  
HETATM   14  C   UNL     1     -10.250  19.350  66.084  1.00  0.00    -0.570 A  
HETATM   15  C   UNL     1     -10.500  18.000  66.354  1.00  0.00    -0.345 A  
ENDBRANCH   7  10
TORSDOF 1
ENDMDL
MODEL       18
REMARK 921   NORMALIZED FREE ENERGY PREDICTED BY IDOCK:   -5.61 KCAL/MOL
REMARK 922        TOTAL FREE ENERGY PREDICTED BY IDOCK:   -6.26 KCAL/MOL
REMARK 923 INTER-LIGAND FREE ENERGY PREDICTED BY IDOCK:   -5.96 KCAL/MOL
REMARK 924 INTRA-LIGAND FREE ENERGY PREDICTED BY IDOCK:   -0.30 KCAL/MOL
REMARK 927      BINDING AFFINITY PREDICTED BY RF-SCORE:    0.00 PKD
ROOT
HETATM    1  O   UNL     1     -12.286  13.622  63.055  1.00  0.00    -0.672 OA 
HETATM    2  N   UNL     1     -12.332  14.208  64.146  1.00  0.00    -0.405 N  
HETATM    3  O   UNL     1     -12.647  15.399  64.291  1.00  0.00    -0.504 OA 
HETATM    4  C   UNL     1     -11.999  13.438  65.350  1.00  0.00    -0.387 A  
HETATM    5  C   UNL     1     -11.644  12.092  65.238  1.00  0.00    -0.376 A  
HETATM    6  C   UNL     1     -11.379  11.350  66.396  1.00  0.00    -0.168 A  
HETATM    7  C   UNL     1     -11.452  11.925  67.682  1.00  0.00    -0.387 A  
HETATM    8  C   UNL     1     -12.056  14.049  66.606  1.00  0.00    -0.487 A  
HETATM    9  C   UNL     1     -11.776  13.295  67.753  1.00  0.00    -0.398 A  
ENDROOT
BRANCH   7  10
HETATM   10  C   UNL     1     -11.243  11.109  68.904  1.00  0.00    -0.317 A  
HETATM   11  C   UNL     1     -10.058  10.383  69.118  1.00  0.00    -0.236 A  
HETATM   12  C   UNL     1      -9.892   9.564  70.244  1.00  0.00    -0.313 A  
HETATM   13  C   UNL     1     -10.904   9.468  71.193  1.00  0.00    -0.425 A  
HETATM   14  C   UNL     1     -12.078  10.191  71.019  1.00  0.00    -0.476 A  
HETATM   15  C   UNL     1     -12.246  10.996  69.887  1.00  0.00    -0.408 A  
ENDBRANCH   7  10
TORSDOF 1
ENDMDL
MODEL       19
REMARK 921   NORMALIZED FREE ENERGY PREDICTED BY IDOCK:   -5.60 KCAL/MOL
REMARK 922        TOTAL FREE ENERGY PREDICTED BY IDOCK:   -6.25 KCAL/MOL
REMARK 923 INTER-LIGAND FREE ENERGY PREDICTED BY IDOCK:   -5.95 KCAL/MOL
REMARK 924 INTRA-LIGAND FREE ENERGY PREDICTED BY IDOCK:   -0.30 KCAL/MOL
REMARK 927      BINDING AFFINITY PREDICTED BY RF-SCORE:    0.00 PKD
ROOT
HETATM    1  O   UNL     1     -12.227  11.855  66.608  1.00  0.00    -0.493 OA 
HETATM    2  N   UNL     1     -12.345  12.693  65.703  1.00  0.00    -0.414 N  
HETATM    3  O   UNL     1     -13.045  12.539  64.690  1.00  0.00    -0.845 OA 
HETATM    4  C   UNL     1     -11.615  13.957  65.843  1.00  0.00    -0.340 A  
HETATM    5  C   UNL     1     -10.818  14.178  66.969  1.00  0.00    -0.295 A  
HETATM    6  C   UNL     1     -10.165  15.409  67.121  1.00  0.00    -0.251 A  
HETATM    7  C   UNL     1     -10.281  16.436  66.162  1.00  0.00    -0.363 A  
HETATM    8  C   UNL     1     -11.731  14.943  64.858  1.00  0.00    -0.371 A  
HETATM    9  C   UNL     1     -11.061  16.163  65.021  1.00  0.00    -0.304 A  
ENDROOT
BRANCH   7  10
HETATM   10  C   UNL     1      -9.646  17.762  66.373  1.00  0.00    -0.293 A  
HETATM   11  C   UNL     1      -8.249  17.920  66.400  1.00  0.00    -0.287 A  
HETATM   12  C   UNL     1      -7.655  19.162  66.662  1.00  0.00    -0.255 A  
HETATM   13  C   UNL     1      -8.449  20.282  66.884  1.00  0.00    -0.354 A  
HETATM   14  C   UNL     1      -9.833  20.161  66.842  1.00  0.00    -0.593 A  
HETATM   15  C   UNL     1     -10.422  18.917  66.595  1.00  0.00    -0.496 A  
ENDBRANCH   7  10
TORSDOF 1
ENDMDL
MODEL       20
REMARK 921   NORMALIZED FREE ENERGY PREDICTED BY IDOCK:   -5.60 KCAL/MOL
REMARK 922        TOTAL FREE ENERGY PREDICTED BY IDOCK:   -6.25 KCAL/MOL
REMARK 923 INTER-LIGAND FREE ENERGY PREDICTED BY IDOCK:   -5.93 KCAL/MOL
REMARK 924 INTRA-LIGAND FREE ENERGY PREDICTED BY IDOCK:   -0.32 KCAL/MOL
REMARK 927      BINDING AFFINITY PREDICTED BY RF-SCORE:    0.00 PKD
ROOT
HETATM    1  O   UNL     1     -12.663  14.539  73.414  1.00  0.00    -0.472 OA 
HETATM    2  N   UNL     1     -12.249  15.425  72.654  1.00  0.00    -0.380 N  
HETATM    3  O   UNL     1     -11.933  16.569  73.015  1.00  0.00    -0.530 OA 
HETATM    4  C   UNL     1     -12.112  15.096  71.231  1.00  0.00    -0.342 A  
HETATM    5  C   UNL     1     -12.450  13.818  70.778  1.00  0.00    -0.441 A  
HETATM    6  C   UNL     1     -12.267  13.495  69.426  1.00  0.00    -0.278 A  
HETATM    7  C   UNL     1     -11.758  14.429  68.500  1.00  0.00    -0.370 A  
HETATM    8  C   UNL     1     -11.629  16.055  70.336  1.00  0.00    -0.364 A  
HETATM    9  C   UNL     1     -11.466  15.718  68.986  1.00  0.00    -0.394 A  
ENDROOT
BRANCH   7  10
HETATM   10  C   UNL     1     -11.498  14.050  67.088  1.00  0.00    -0.373 A  
HETATM   11  C   UNL     1     -10.708  14.846  66.239  1.00  0.00    -0.320 A  
HETATM   12  C   UNL     1     -10.518  14.516  64.891  1.00  0.00    -0.435 A  
HETATM   13  C   UNL     1     -11.101  13.369  64.364  1.00  0.00    -0.408 A  
HETATM   14  C   UNL     1     -11.869  12.552  65.184  1.00  0.00    -0.450 A  
HETATM   15  C   UNL     1     -12.069  12.892  66.526  1.00  0.00    -0.375 A  
ENDBRANCH   7  10
TORSDOF 1
ENDMDL
MODEL       21
REMARK 921   NORMALIZED FREE ENERGY PREDICTED BY IDOCK:   -5.54 KCAL/MOL
REMARK 922        TOTAL FREE ENERGY PREDICTED BY IDOCK:   -6.19 KCAL/MOL
REMARK 923 INTER-LIGAND FREE ENERGY PREDICTED BY IDOCK:   -5.89 KCAL/MOL
REMARK 924 INTRA-LIGAND FREE ENERGY PREDICTED BY IDOCK:   -0.30 KCAL/MOL
REMARK 927      BINDING AFFINITY PREDICTED BY RF-SCORE:    0.00 PKD
ROOT
HETATM    1  O   UNL     1     -12.343  16.145  71.599  1.00  0.00    -0.442 OA 
HETATM    2  N   UNL     1     -12.367  14.913  71.469  1.00  0.00    -0.319 N  
HETATM    3  O   UNL     1     -12.613  14.115  72.386  1.00  0.00    -0.278 OA 
HETATM    4  C   UNL     1     -12.096  14.360  70.138  1.00  0.00    -0.335 A  
HETATM    5  C   UNL     1     -11.819  15.220  69.072  1.00  0.00    -0.342 A  
HETATM    6  C   UNL     1     -11.613  14.689  67.792  1.00  0.00    -0.382 A  
HETATM    7  C   UNL     1     -11.667  13.301  67.545  1.00  0.00    -0.410 A  
HETATM    8  C   UNL     1     -12.131  12.978  69.935  1.00  0.00    -0.347 A  
HETATM    9  C   UNL     1     -11.910  12.463  68.651  1.00  0.00    -0.348 A  
ENDROOT
BRANCH   7  10
HETATM   10  C   UNL     1     -11.522  12.757  66.171  1.00  0.00    -0.399 A  
HETATM   11  C   UNL     1     -12.438  13.067  65.149  1.00  0.00    -0.552 A  
HETATM   12  C   UNL     1     -12.332  12.501  63.872  1.00  0.00    -0.576 A  
HETATM   13  C   UNL     1     -11.292  11.624  63.582  1.00  0.00    -0.485 A  
HETATM   14  C   UNL     1     -10.360  11.316  64.565  1.00  0.00    -0.381 A  
HETATM   15  C   UNL     1     -10.477  11.871  65.843  1.00  0.00    -0.296 A  
ENDBRANCH   7  10
TORSDOF 1
ENDMDL
MODEL       22
REMARK 921   NORMALIZED FREE ENERGY PREDICTED BY IDOCK:   -5.51 KCAL/MOL
REMARK 922        TOTAL FREE ENERGY PREDICTED BY IDOCK:   -6.16 KCAL/MOL
REMARK 923 INTER-LIGAND FREE ENERGY PREDICTED BY IDOCK:   -5.86 KCAL/MOL
REMARK 924 INTRA-LIGAND FREE ENERGY PREDICTED BY IDOCK:   -0.30 KCAL/MOL
REMARK 927      BINDING AFFINITY PREDICTED BY RF-SCORE:    0.00 PKD
ROOT
HETATM    1  O   UNL     1     -10.687  16.919  64.683  1.00  0.00    -0.756 OA 
HETATM    2  N   UNL     1     -11.520  16.029  64.465  1.00  0.00    -0.369 N  
HETATM    3  O   UNL     1     -12.517  16.162  63.739  1.00  0.00    -0.769 OA 
HETATM    4  C   UNL     1     -11.308  14.723  65.100  1.00  0.00    -0.379 A  
HETATM    5  C   UNL     1     -10.196  14.523  65.922  1.00  0.00    -0.339 A  
HETATM    6  C   UNL     1      -9.972  13.259  66.483  1.00  0.00    -0.280 A  
HETATM    7  C   UNL     1     -10.845  12.176  66.250  1.00  0.00    -0.317 A  
HETATM    8  C   UNL     1     -12.209  13.679  64.869  1.00  0.00    -0.447 A  
HETATM    9  C   UNL     1     -11.976  12.426  65.448  1.00  0.00    -0.457 A  
ENDROOT
BRANCH   7  10
HETATM   10  C   UNL     1     -10.554  10.823  66.789  1.00  0.00    -0.307 A  
HETATM   11  C   UNL     1     -10.073   9.785  65.970  1.00  0.00    -0.322 A  
HETATM   12  C   UNL     1      -9.861   8.494  66.470  1.00  0.00    -0.342 A  
HETATM   13  C   UNL     1     -10.107   8.215  67.810  1.00  0.00    -0.260 A  
HETATM   14  C   UNL     1     -10.562   9.226  68.649  1.00  0.00    -0.219 A  
HETATM   15  C   UNL     1     -10.787  10.510  68.142  1.00  0.00    -0.300 A  
ENDBRANCH   7  10
TORSDOF 1
ENDMDL
MODEL       23
REMARK 921   NORMALIZED FREE ENERGY PREDICTED BY IDOCK:   -5.50 KCAL/MOL
REMARK 922        TOTAL FREE ENERGY PREDICTED BY IDOCK:   -6.15 KCAL/MOL
REMARK 923 INTER-LIGAND FREE ENERGY PREDICTED BY IDOCK:   -5.85 KCAL/MOL
REMARK 924 INTRA-LIGAND FREE ENERGY PREDICTED BY IDOCK:   -0.30 KCAL/MOL
REMARK 927      BINDING AFFINITY PREDICTED BY RF-SCORE:    0.00 PKD
ROOT
HETATM    1  O   UNL     1     -10.582  17.320  65.030  1.00  0.00    -0.675 OA 
HETATM    2  N   UNL     1     -11.266  16.309  64.816  1.00  0.00    -0.355 N  
HETATM    3  O   UNL     1     -11.974  16.141  63.812  1.00  0.00    -0.926 OA 
HETATM    4  C   UNL     1     -11.228  15.234  65.813  1.00  0.00    -0.247 A  
HETATM    5  C   UNL     1     -10.441  15.376  66.958  1.00  0.00    -0.295 A  
HETATM    6  C   UNL     1     -10.368  14.323  67.880  1.00  0.00    -0.233 A  
HETATM    7  C   UNL     1     -11.078  13.119  67.692  1.00  0.00    -0.295 A  
HETATM    8  C   UNL     1     -11.966  14.064  65.607  1.00  0.00    -0.408 A  
HETATM    9  C   UNL     1     -11.892  13.028  66.546  1.00  0.00    -0.464 A  
ENDROOT
BRANCH   7  10
HETATM   10  C   UNL     1     -10.933  11.984  68.638  1.00  0.00    -0.281 A  
HETATM   11  C   UNL     1     -11.880  11.732  69.647  1.00  0.00    -0.407 A  
HETATM   12  C   UNL     1     -11.706  10.698  70.576  1.00  0.00    -0.451 A  
HETATM   13  C   UNL     1     -10.586   9.877  70.504  1.00  0.00    -0.359 A  
HETATM   14  C   UNL     1      -9.643  10.087  69.505  1.00  0.00    -0.249 A  
HETATM   15  C   UNL     1      -9.813  11.130  68.588  1.00  0.00    -0.207 A  
ENDBRANCH   7  10
TORSDOF 1
ENDMDL
MODEL       24
REMARK 921   NORMALIZED FREE ENERGY PREDICTED BY IDOCK:   -5.46 KCAL/MOL
REMARK 922        TOTAL FREE ENERGY PREDICTED BY IDOCK:   -6.11 KCAL/MOL
REMARK 923 INTER-LIGAND FREE ENERGY PREDICTED BY IDOCK:   -5.81 KCAL/MOL
REMARK 924 INTRA-LIGAND FREE ENERGY PREDICTED BY IDOCK:   -0.30 KCAL/MOL
REMARK 927      BINDING AFFINITY PREDICTED BY RF-SCORE:    0.00 PKD
ROOT
HETATM    1  O   UNL     1     -11.153  15.427  65.891  1.00  0.00    -0.321 OA 
HETATM    2  N   UNL     1     -11.059  14.212  65.671  1.00  0.00    -0.301 N  
HETATM    3  O   UNL     1     -10.766  13.717  64.572  1.00  0.00    -0.408 OA 
HETATM    4  C   UNL     1     -11.303  13.294  66.789  1.00  0.00    -0.327 A  
HETATM    5  C   UNL     1     -11.631  13.804  68.048  1.00  0.00    -0.368 A  
HETATM    6  C   UNL     1     -11.810  12.924  69.124  1.00  0.00    -0.353 A  
HETATM    7  C   UNL     1     -11.677  11.528  68.973  1.00  0.00    -0.400 A  
HETATM    8  C   UNL     1     -11.189  11.913  66.598  1.00  0.00    -0.384 A  
HETATM    9  C   UNL     1     -11.384  11.048  67.682  1.00  0.00    -0.355 A  
ENDROOT
BRANCH   7  10
HETATM   10  C   UNL     1     -11.794  10.613  70.137  1.00  0.00    -0.421 A  
HETATM   11  C   UNL     1     -10.694   9.883  70.621  1.00  0.00    -0.372 A  
HETATM   12  C   UNL     1     -10.825   8.974  71.679  1.00  0.00    -0.437 A  
HETATM   13  C   UNL     1     -12.060   8.788  72.291  1.00  0.00    -0.423 A  
HETATM   14  C   UNL     1     -13.160   9.512  71.849  1.00  0.00    -0.517 A  
HETATM   15  C   UNL     1     -13.029  10.408  70.783  1.00  0.00    -0.422 A  
ENDBRANCH   7  10
TORSDOF 1
ENDMDL
MODEL       25
REMARK 921   NORMALIZED FREE ENERGY PREDICTED BY IDOCK:   -5.46 KCAL/MOL
REMARK 922        TOTAL FREE ENERGY PREDICTED BY IDOCK:   -6.11 KCAL/MOL
REMARK 923 INTER-LIGAND FREE ENERGY PREDICTED BY IDOCK:   -5.79 KCAL/MOL
REMARK 924 INTRA-LIGAND FREE ENERGY PREDICTED BY IDOCK:   -0.32 KCAL/MOL
REMARK 927      BINDING AFFINITY PREDICTED BY RF-SCORE:    0.00 PKD
ROOT
HETATM    1  O   UNL     1      -9.997   7.778  68.098  1.00  0.00    -0.165 OA 
HETATM    2  N   UNL     1     -10.307   8.825  67.513  1.00  0.00    -0.252 N  
HETATM    3  O   UNL     1     -10.224   8.995  66.287  1.00  0.00    -0.284 OA 
HETATM    4  C   UNL     1     -10.814   9.937  68.324  1.00  0.00    -0.230 A  
HETATM    5  C   UNL     1     -10.930   9.791  69.708  1.00  0.00    -0.287 A  
HETATM    6  C   UNL     1     -11.465  10.838  70.470  1.00  0.00    -0.367 A  
HETATM    7  C   UNL     1     -11.885  12.048  69.880  1.00  0.00    -0.405 A  
HETATM    8  C   UNL     1     -11.197  11.133  67.708  1.00  0.00    -0.359 A  
HETATM    9  C   UNL     1     -11.717  12.173  68.487  1.00  0.00    -0.382 A  
ENDROOT
BRANCH   7  10
HETATM   10  C   UNL     1     -12.520  13.119  70.689  1.00  0.00    -0.363 A  
HETATM   11  C   UNL     1     -13.255  12.834  71.854  1.00  0.00    -0.511 A  
HETATM   12  C   UNL     1     -13.904  13.843  72.578  1.00  0.00    -0.620 A  
HETATM   13  C   UNL     1     -13.817  15.167  72.162  1.00  0.00    -0.607 A  
HETATM   14  C   UNL     1     -13.081  15.482  71.026  1.00  0.00    -0.551 A  
HETATM   15  C   UNL     1     -12.446  14.471  70.298  1.00  0.00    -0.405 A  
ENDBRANCH   7  10
TORSDOF 1
ENDMDL
MODEL       26
REMARK 921   NORMALIZED FREE ENERGY PREDICTED BY IDOCK:   -5.42 KCAL/MOL
REMARK 922        TOTAL FREE ENERGY PREDICTED BY IDOCK:   -6.06 KCAL/MOL
REMARK 923 INTER-LIGAND FREE ENERGY PREDICTED BY IDOCK:   -5.73 KCAL/MOL
REMARK 924 INTRA-LIGAND FREE ENERGY PREDICTED BY IDOCK:   -0.32 KCAL/MOL
REMARK 927      BINDING AFFINITY PREDICTED BY RF-SCORE:    0.00 PKD
ROOT
HETATM    1  O   UNL     1      -9.760   7.718  68.463  1.00  0.00    -0.154 OA 
HETATM    2  N   UNL     1     -10.352   7.810  69.547  1.00  0.00    -0.215 N  
HETATM    3  O   UNL     1     -10.454   6.889  70.372  1.00  0.00    -0.200 OA 
HETATM    4  C   UNL     1     -10.969   9.098  69.882  1.00  0.00    -0.204 A  
HETATM    5  C   UNL     1     -10.877  10.166  68.986  1.00  0.00    -0.257 A  
HETATM    6  C   UNL     1     -11.423  11.408  69.336  1.00  0.00    -0.378 A  
HETATM    7  C   UNL     1     -12.075  11.614  70.569  1.00  0.00    -0.458 A  
HETATM    8  C   UNL     1     -11.632   9.258  71.103  1.00  0.00    -0.397 A  
HETATM    9  C   UNL     1     -12.183  10.504  71.429  1.00  0.00    -0.429 A  
ENDROOT
BRANCH   7  10
HETATM   10  C   UNL     1     -12.582  12.955  70.958  1.00  0.00    -0.376 A  
HETATM   11  C   UNL     1     -13.497  13.125  72.012  1.00  0.00    -0.598 A  
HETATM   12  C   UNL     1     -14.020  14.384  72.335  1.00  0.00    -0.585 A  
HETATM   13  C   UNL     1     -13.622  15.509  71.619  1.00  0.00    -0.575 A  
HETATM   14  C   UNL     1     -12.702  15.375  70.586  1.00  0.00    -0.490 A  
HETATM   15  C   UNL     1     -12.194  14.114  70.258  1.00  0.00    -0.416 A  
ENDBRANCH   7  10
TORSDOF 1
ENDMDL
MODEL       27
REMARK 921   NORMALIZED FREE ENERGY PREDICTED BY IDOCK:   -5.41 KCAL/MOL
REMARK 922        TOTAL FREE ENERGY PREDICTED BY IDOCK:   -6.05 KCAL/MOL
REMARK 923 INTER-LIGAND FREE ENERGY PREDICTED BY IDOCK:   -5.73 KCAL/MOL
REMARK 924 INTRA-LIGAND FREE ENERGY PREDICTED BY IDOCK:   -0.32 KCAL/MOL
REMARK 927      BINDING AFFINITY PREDICTED BY RF-SCORE:    0.00 PKD
ROOT
HETATM    1  O   UNL     1     -13.321  15.636  71.683  1.00  0.00    -0.485 OA 
HETATM    2  N   UNL     1     -13.253  14.406  71.818  1.00  0.00    -0.337 N  
HETATM    3  O   UNL     1     -13.687  13.782  72.798  1.00  0.00    -0.699 OA 
HETATM    4  C   UNL     1     -12.623  13.634  70.741  1.00  0.00    -0.325 A  
HETATM    5  C   UNL     1     -12.124  14.292  69.615  1.00  0.00    -0.396 A  
HETATM    6  C   UNL     1     -11.571  13.544  68.567  1.00  0.00    -0.368 A  
HETATM    7  C   UNL     1     -11.495  12.137  68.618  1.00  0.00    -0.347 A  
HETATM    8  C   UNL     1     -12.539  12.242  70.837  1.00  0.00    -0.334 A  
HETATM    9  C   UNL     1     -11.972  11.511  69.786  1.00  0.00    -0.415 A  
ENDROOT
BRANCH   7  10
HETATM   10  C   UNL     1     -10.977  11.352  67.469  1.00  0.00    -0.312 A  
HETATM   11  C   UNL     1     -10.693   9.978  67.575  1.00  0.00    -0.339 A  
HETATM   12  C   UNL     1     -10.145   9.256  66.506  1.00  0.00    -0.343 A  
HETATM   13  C   UNL     1      -9.886   9.890  65.296  1.00  0.00    -0.373 A  
HETATM   14  C   UNL     1     -10.175  11.242  65.154  1.00  0.00    -0.344 A  
HETATM   15  C   UNL     1     -10.708  11.963  66.228  1.00  0.00    -0.309 A  
ENDBRANCH   7  10
TORSDOF 1
ENDMDL
MODEL       28
REMARK 921   NORMALIZED FREE ENERGY PREDICTED BY IDOCK:   -5.41 KCAL/MOL
REMARK 922        TOTAL FREE ENERGY PREDICTED BY IDOCK:   -6.05 KCAL/MOL
REMARK 923 INTER-LIGAND FREE ENERGY PREDICTED BY IDOCK:   -5.75 KCAL/MOL
REMARK 924 INTRA-LIGAND FREE ENERGY PREDICTED BY IDOCK:   -0.30 KCAL/MOL
REMARK 927      BINDING AFFINITY PREDICTED BY RF-SCORE:    0.00 PKD
ROOT
HETATM    1  O   UNL     1     -10.981  13.666  64.899  1.00  0.00    -0.329 OA 
HETATM    2  N   UNL     1     -11.198  14.122  66.030  1.00  0.00    -0.314 N  
HETATM    3  O   UNL     1     -11.353  15.327  66.283  1.00  0.00    -0.280 OA 
HETATM    4  C   UNL     1     -11.286  13.174  67.145  1.00  0.00    -0.316 A  
HETATM    5  C   UNL     1     -11.123  11.807  66.909  1.00  0.00    -0.361 A  
HETATM    6  C   UNL     1     -11.262  10.902  67.970  1.00  0.00    -0.378 A  
HETATM    7  C   UNL     1     -11.554  11.331  69.281  1.00  0.00    -0.390 A  
HETATM    8  C   UNL     1     -11.550  13.637  68.438  1.00  0.00    -0.377 A  
HETATM    9  C   UNL     1     -11.672  12.719  69.488  1.00  0.00    -0.383 A  
ENDROOT
BRANCH   7  10
HETATM   10  C   UNL     1     -11.772  10.357  70.380  1.00  0.00    -0.419 A  
HETATM   11  C   UNL     1     -13.040  10.162  70.958  1.00  0.00    -0.458 A  
HETATM   12  C   UNL     1     -13.228   9.288  72.037  1.00  0.00    -0.519 A  
HETATM   13  C   UNL     1     -12.152   8.572  72.551  1.00  0.00    -0.395 A  
HETATM   14  C   UNL     1     -10.892   8.727  71.986  1.00  0.00    -0.428 A  
HETATM   15  C   UNL     1     -10.705   9.612  70.919  1.00  0.00    -0.402 A  
ENDBRANCH   7  10
TORSDOF 1
ENDMDL
MODEL       29
REMARK 921   NORMALIZED FREE ENERGY PREDICTED BY IDOCK:   -5.33 KCAL/MOL
REMARK 922        TOTAL FREE ENERGY PREDICTED BY IDOCK:   -5.97 KCAL/MOL
REMARK 923 INTER-LIGAND FREE ENERGY PREDICTED BY IDOCK:   -5.65 KCAL/MOL
REMARK 924 INTRA-LIGAND FREE ENERGY PREDICTED BY IDOCK:   -0.32 KCAL/MOL
REMARK 927      BINDING AFFINITY PREDICTED BY RF-SCORE:    0.00 PKD
ROOT
HETATM    1  O   UNL     1      -9.853  10.948  65.928  1.00  0.00    -0.216 OA 
HETATM    2  N   UNL     1     -10.427  10.457  66.910  1.00  0.00    -0.243 N  
HETATM    3  O   UNL     1     -10.596   9.242  67.090  1.00  0.00    -0.258 OA 
HETATM    4  C   UNL     1     -10.934  11.376  67.935  1.00  0.00    -0.240 A  
HETATM    5  C   UNL     1     -10.762  12.754  67.779  1.00  0.00    -0.237 A  
HETATM    6  C   UNL     1     -11.201  13.622  68.788  1.00  0.00    -0.314 A  
HETATM    7  C   UNL     1     -11.823  13.146  69.960  1.00  0.00    -0.360 A  
HETATM    8  C   UNL     1     -11.570  10.871  69.073  1.00  0.00    -0.387 A  
HETATM    9  C   UNL     1     -12.014  11.755  70.064  1.00  0.00    -0.421 A  
ENDROOT
BRANCH   7  10
HETATM   10  C   UNL     1     -12.215  14.071  71.054  1.00  0.00    -0.430 A  
HETATM   11  C   UNL     1     -13.262  13.769  71.943  1.00  0.00    -0.486 A  
HETATM   12  C   UNL     1     -13.669  14.673  72.933  1.00  0.00    -0.359 A  
HETATM   13  C   UNL     1     -13.021  15.896  73.070  1.00  0.00    -0.630 A  
HETATM   14  C   UNL     1     -11.969  16.214  72.220  1.00  0.00    -0.637 A  
HETATM   15  C   UNL     1     -11.575  15.315  71.223  1.00  0.00    -0.430 A  
ENDBRANCH   7  10
TORSDOF 1
ENDMDL
MODEL       30
REMARK 921   NORMALIZED FREE ENERGY PREDICTED BY IDOCK:   -5.33 KCAL/MOL
REMARK 922        TOTAL FREE ENERGY PREDICTED BY IDOCK:   -5.96 KCAL/MOL
REMARK 923 INTER-LIGAND FREE ENERGY PREDICTED BY IDOCK:   -5.66 KCAL/MOL
REMARK 924 INTRA-LIGAND FREE ENERGY PREDICTED BY IDOCK:   -0.30 KCAL/MOL
REMARK 927      BINDING AFFINITY PREDICTED BY RF-SCORE:    0.00 PKD
ROOT
HETATM    1  O   UNL     1      -9.977  20.610  67.290  1.00  0.00    -0.448 OA 
HETATM    2  N   UNL     1     -10.126  19.615  68.013  1.00  0.00    -0.412 N  
HETATM    3  O   UNL     1     -10.109  19.638  69.253  1.00  0.00    -0.423 OA 
HETATM    4  C   UNL     1     -10.346  18.321  67.357  1.00  0.00    -0.392 A  
HETATM    5  C   UNL     1     -10.379  18.246  65.963  1.00  0.00    -0.377 A  
HETATM    6  C   UNL     1     -10.642  17.016  65.344  1.00  0.00    -0.147 A  
HETATM    7  C   UNL     1     -10.868  15.841  66.091  1.00  0.00    -0.240 A  
HETATM    8  C   UNL     1     -10.540  17.171  68.129  1.00  0.00    -0.380 A  
HETATM    9  C   UNL     1     -10.789  15.949  67.493  1.00  0.00    -0.305 A  
ENDROOT
BRANCH   7  10
HETATM   10  C   UNL     1     -11.221  14.562  65.425  1.00  0.00    -0.342 A  
HETATM   11  C   UNL     1     -12.465  13.937  65.628  1.00  0.00    -0.538 A  
HETATM   12  C   UNL     1     -12.769  12.699  65.048  1.00  0.00    -0.403 A  
HETATM   13  C   UNL     1     -11.838  12.064  64.233  1.00  0.00    -0.431 A  
HETATM   14  C   UNL     1     -10.609  12.666  63.996  1.00  0.00    -0.457 A  
HETATM   15  C   UNL     1     -10.304  13.896  64.589  1.00  0.00    -0.366 A  
ENDBRANCH   7  10
TORSDOF 1
ENDMDL
MODEL       31
REMARK 921   NORMALIZED FREE ENERGY PREDICTED BY IDOCK:   -5.32 KCAL/MOL
REMARK 922        TOTAL FREE ENERGY PREDICTED BY IDOCK:   -5.96 KCAL/MOL
REMARK 923 INTER-LIGAND FREE ENERGY PREDICTED BY IDOCK:   -5.66 KCAL/MOL
REMARK 924 INTRA-LIGAND FREE ENERGY PREDICTED BY IDOCK:   -0.30 KCAL/MOL
REMARK 927      BINDING AFFINITY PREDICTED BY RF-SCORE:    0.00 PKD
ROOT
HETATM    1  O   UNL     1      -7.883  17.758  67.114  1.00  0.00    -0.202 OA 
HETATM    2  N   UNL     1      -8.748  16.984  66.679  1.00  0.00    -0.234 N  
HETATM    3  O   UNL     1      -8.832  16.618  65.497  1.00  0.00    -0.343 OA 
HETATM    4  C   UNL     1      -9.735  16.458  67.629  1.00  0.00    -0.238 A  
HETATM    5  C   UNL     1      -9.677  16.838  68.972  1.00  0.00    -0.244 A  
HETATM    6  C   UNL     1     -10.591  16.291  69.883  1.00  0.00    -0.280 A  
HETATM    7  C   UNL     1     -11.579  15.369  69.483  1.00  0.00    -0.346 A  
HETATM    8  C   UNL     1     -10.718  15.566  67.191  1.00  0.00    -0.315 A  
HETATM    9  C   UNL     1     -11.631  15.039  68.114  1.00  0.00    -0.360 A  
ENDROOT
BRANCH   7  10
HETATM   10  C   UNL     1     -12.491  14.739  70.471  1.00  0.00    -0.411 A  
HETATM   11  C   UNL     1     -13.519  15.465  71.100  1.00  0.00    -0.565 A  
HETATM   12  C   UNL     1     -14.336  14.882  72.078  1.00  0.00    -0.651 A  
HETATM   13  C   UNL     1     -14.155  13.551  72.437  1.00  0.00    -0.563 A  
HETATM   14  C   UNL     1     -13.162  12.803  71.817  1.00  0.00    -0.471 A  
HETATM   15  C   UNL     1     -12.338  13.392  70.851  1.00  0.00    -0.436 A  
ENDBRANCH   7  10
TORSDOF 1
ENDMDL
MODEL       32
REMARK 921   NORMALIZED FREE ENERGY PREDICTED BY IDOCK:   -5.32 KCAL/MOL
REMARK 922        TOTAL FREE ENERGY PREDICTED BY IDOCK:   -5.96 KCAL/MOL
REMARK 923 INTER-LIGAND FREE ENERGY PREDICTED BY IDOCK:   -5.64 KCAL/MOL
REMARK 924 INTRA-LIGAND FREE ENERGY PREDICTED BY IDOCK:   -0.32 KCAL/MOL
REMARK 927      BINDING AFFINITY PREDICTED BY RF-SCORE:    0.00 PKD
ROOT
HETATM    1  O   UNL     1     -12.574  13.973  72.141  1.00  0.00    -0.281 OA 
HETATM    2  N   UNL     1     -12.443  14.731  71.169  1.00  0.00    -0.305 N  
HETATM    3  O   UNL     1     -12.504  15.968  71.230  1.00  0.00    -0.438 OA 
HETATM    4  C   UNL     1     -12.189  14.123  69.858  1.00  0.00    -0.359 A  
HETATM    5  C   UNL     1     -12.106  12.734  69.741  1.00  0.00    -0.305 A  
HETATM    6  C   UNL     1     -11.811  12.163  68.495  1.00  0.00    -0.365 A  
HETATM    7  C   UNL     1     -11.602  12.953  67.346  1.00  0.00    -0.414 A  
HETATM    8  C   UNL     1     -12.014  14.936  68.734  1.00  0.00    -0.284 A  
HETATM    9  C   UNL     1     -11.732  14.348  67.495  1.00  0.00    -0.416 A  
ENDROOT
BRANCH   7  10
HETATM   10  C   UNL     1     -11.216  12.340  66.050  1.00  0.00    -0.375 A  
HETATM   11  C   UNL     1     -10.476  11.146  65.985  1.00  0.00    -0.312 A  
HETATM   12  C   UNL     1     -10.060  10.605  64.760  1.00  0.00    -0.412 A  
HETATM   13  C   UNL     1     -10.392  11.240  63.569  1.00  0.00    -0.463 A  
HETATM   14  C   UNL     1     -11.141  12.410  63.600  1.00  0.00    -0.535 A  
HETATM   15  C   UNL     1     -11.542  12.954  64.825  1.00  0.00    -0.373 A  
ENDBRANCH   7  10
TORSDOF 1
ENDMDL
MODEL       33
REMARK 921   NORMALIZED FREE ENERGY PREDICTED BY IDOCK:   -5.29 KCAL/MOL
REMARK 922        TOTAL FREE ENERGY PREDICTED BY IDOCK:   -5.93 KCAL/MOL
REMARK 923 INTER-LIGAND FREE ENERGY PREDICTED BY IDOCK:   -5.62 KCAL/MOL
REMARK 924 INTRA-LIGAND FREE ENERGY PREDICTED BY IDOCK:   -0.31 KCAL/MOL
REMARK 927      BINDING AFFINITY PREDICTED BY RF-SCORE:    0.00 PKD
ROOT
HETATM    1  O   UNL     1      -9.686  18.725  68.491  1.00  0.00    -0.339 OA 
HETATM    2  N   UNL     1     -10.197  17.864  67.762  1.00  0.00    -0.350 N  
HETATM    3  O   UNL     1     -10.277  17.946  66.527  1.00  0.00    -0.347 OA 
HETATM    4  C   UNL     1     -10.736  16.659  68.402  1.00  0.00    -0.353 A  
HETATM    5  C   UNL     1     -10.664  16.519  69.790  1.00  0.00    -0.298 A  
HETATM    6  C   UNL     1     -11.133  15.342  70.390  1.00  0.00    -0.351 A  
HETATM    7  C   UNL     1     -11.688  14.291  69.632  1.00  0.00    -0.362 A  
HETATM    8  C   UNL     1     -11.304  15.648  67.622  1.00  0.00    -0.228 A  
HETATM    9  C   UNL     1     -11.780  14.485  68.240  1.00  0.00    -0.368 A  
ENDROOT
BRANCH   7  10
HETATM   10  C   UNL     1     -12.112  13.020  70.272  1.00  0.00    -0.388 A  
HETATM   11  C   UNL     1     -12.928  13.001  71.417  1.00  0.00    -0.373 A  
HETATM   12  C   UNL     1     -13.273  11.801  72.053  1.00  0.00    -0.460 A  
HETATM   13  C   UNL     1     -12.822  10.588  71.546  1.00  0.00    -0.568 A  
HETATM   14  C   UNL     1     -12.032  10.573  70.403  1.00  0.00    -0.425 A  
HETATM   15  C   UNL     1     -11.678  11.774  69.779  1.00  0.00    -0.408 A  
ENDBRANCH   7  10
TORSDOF 1
ENDMDL
MODEL       34
REMARK 921   NORMALIZED FREE ENERGY PREDICTED BY IDOCK:   -5.25 KCAL/MOL
REMARK 922        TOTAL FREE ENERGY PREDICTED BY IDOCK:   -5.88 KCAL/MOL
REMARK 923 INTER-LIGAND FREE ENERGY PREDICTED BY IDOCK:   -5.56 KCAL/MOL
REMARK 924 INTRA-LIGAND FREE ENERGY PREDICTED BY IDOCK:   -0.33 KCAL/MOL
REMARK 927      BINDING AFFINITY PREDICTED BY RF-SCORE:    0.00 PKD
ROOT
HETATM    1  O   UNL     1     -13.237  11.520  71.712  1.00  0.00    -0.457 OA 
HETATM    2  N   UNL     1     -13.377  12.744  71.837  1.00  0.00    -0.463 N  
HETATM    3  O   UNL     1     -14.032  13.288  72.740  1.00  0.00    -0.701 OA 
HETATM    4  C   UNL     1     -12.717  13.613  70.856  1.00  0.00    -0.310 A  
HETATM    5  C   UNL     1     -11.964  13.047  69.824  1.00  0.00    -0.377 A  
HETATM    6  C   UNL     1     -11.293  13.883  68.922  1.00  0.00    -0.319 A  
HETATM    7  C   UNL     1     -11.361  15.288  69.018  1.00  0.00    -0.311 A  
HETATM    8  C   UNL     1     -12.828  15.002  70.966  1.00  0.00    -0.451 A  
HETATM    9  C   UNL     1     -12.161  15.822  70.047  1.00  0.00    -0.344 A  
ENDROOT
BRANCH   7  10
HETATM   10  C   UNL     1     -10.584  16.161  68.102  1.00  0.00    -0.290 A  
HETATM   11  C   UNL     1      -9.804  15.634  67.057  1.00  0.00    -0.237 A  
HETATM   12  C   UNL     1      -9.024  16.458  66.235  1.00  0.00    -0.368 A  
HETATM   13  C   UNL     1      -9.020  17.835  66.429  1.00  0.00    -0.252 A  
HETATM   14  C   UNL     1      -9.797  18.387  67.441  1.00  0.00    -0.323 A  
HETATM   15  C   UNL     1     -10.564  17.560  68.268  1.00  0.00    -0.354 A  
ENDBRANCH   7  10
TORSDOF 1
ENDMDL
MODEL       35
REMARK 921   NORMALIZED FREE ENERGY PREDICTED BY IDOCK:   -5.23 KCAL/MOL
REMARK 922        TOTAL FREE ENERGY PREDICTED BY IDOCK:   -5.86 KCAL/MOL
REMARK 923 INTER-LIGAND FREE ENERGY PREDICTED BY IDOCK:   -5.55 KCAL/MOL
REMARK 924 INTRA-LIGAND FREE ENERGY PREDICTED BY IDOCK:   -0.31 KCAL/MOL
REMARK 927      BINDING AFFINITY PREDICTED BY RF-SCORE:    0.00 PKD
ROOT
HETATM    1  O   UNL     1     -10.014  19.549  69.276  1.00  0.00    -0.427 OA 
HETATM    2  N   UNL     1     -10.073  19.553  68.039  1.00  0.00    -0.395 N  
HETATM    3  O   UNL     1      -9.902  20.557  67.330  1.00  0.00    -0.448 OA 
HETATM    4  C   UNL     1     -10.354  18.281  67.363  1.00  0.00    -0.392 A  
HETATM    5  C   UNL     1     -10.548  17.122  68.119  1.00  0.00    -0.380 A  
HETATM    6  C   UNL     1     -10.764  15.902  67.465  1.00  0.00    -0.318 A  
HETATM    7  C   UNL     1     -10.800  15.807  66.059  1.00  0.00    -0.256 A  
HETATM    8  C   UNL     1     -10.409  18.229  65.967  1.00  0.00    -0.377 A  
HETATM    9  C   UNL     1     -10.639  17.002  65.332  1.00  0.00    -0.147 A  
ENDROOT
BRANCH   7  10
HETATM   10  C   UNL     1     -10.954  14.495  65.379  1.00  0.00    -0.346 A  
HETATM   11  C   UNL     1     -10.186  13.375  65.745  1.00  0.00    -0.300 A  
HETATM   12  C   UNL     1     -10.291  12.158  65.059  1.00  0.00    -0.320 A  
HETATM   13  C   UNL     1     -11.182  12.028  63.999  1.00  0.00    -0.468 A  
HETATM   14  C   UNL     1     -11.970  13.111  63.629  1.00  0.00    -0.580 A  
HETATM   15  C   UNL     1     -11.852  14.329  64.307  1.00  0.00    -0.401 A  
ENDBRANCH   7  10
TORSDOF 1
ENDMDL
MODEL       36
REMARK 921   NORMALIZED FREE ENERGY PREDICTED BY IDOCK:   -5.21 KCAL/MOL
REMARK 922        TOTAL FREE ENERGY PREDICTED BY IDOCK:   -5.84 KCAL/MOL
REMARK 923 INTER-LIGAND FREE ENERGY PREDICTED BY IDOCK:   -5.51 KCAL/MOL
REMARK 924 INTRA-LIGAND FREE ENERGY PREDICTED BY IDOCK:   -0.33 KCAL/MOL
REMARK 927      BINDING AFFINITY PREDICTED BY RF-SCORE:    0.00 PKD
ROOT
HETATM    1  O   UNL     1     -12.693  12.079  63.412  1.00  0.00    -0.706 OA 
HETATM    2  N   UNL     1     -11.705  12.120  64.158  1.00  0.00    -0.379 N  
HETATM    3  O   UNL     1     -11.030  11.132  64.485  1.00  0.00    -0.300 OA 
HETATM    4  C   UNL     1     -11.299  13.428  64.683  1.00  0.00    -0.350 A  
HETATM    5  C   UNL     1     -12.025  14.570  64.339  1.00  0.00    -0.467 A  
HETATM    6  C   UNL     1     -11.600  15.823  64.801  1.00  0.00    -0.173 A  
HETATM    7  C   UNL     1     -10.459  15.967  65.617  1.00  0.00    -0.416 A  
HETATM    8  C   UNL     1     -10.178  13.530  65.513  1.00  0.00    -0.308 A  
HETATM    9  C   UNL     1      -9.776  14.789  65.976  1.00  0.00    -0.350 A  
ENDROOT
BRANCH   7  10
HETATM   10  C   UNL     1      -9.977  17.307  66.038  1.00  0.00    -0.249 A  
HETATM   11  C   UNL     1     -10.738  18.471  65.823  1.00  0.00    -0.193 A  
HETATM   12  C   UNL     1     -10.251  19.740  66.165  1.00  0.00    -0.618 A  
HETATM   13  C   UNL     1      -8.995  19.871  66.748  1.00  0.00    -0.444 A  
HETATM   14  C   UNL     1      -8.229  18.738  66.992  1.00  0.00    -0.271 A  
HETATM   15  C   UNL     1      -8.713  17.474  66.636  1.00  0.00    -0.288 A  
ENDBRANCH   7  10
TORSDOF 1
ENDMDL
MODEL       37
REMARK 921   NORMALIZED FREE ENERGY PREDICTED BY IDOCK:   -5.17 KCAL/MOL
REMARK 922        TOTAL FREE ENERGY PREDICTED BY IDOCK:   -5.79 KCAL/MOL
REMARK 923 INTER-LIGAND FREE ENERGY PREDICTED BY IDOCK:   -5.49 KCAL/MOL
REMARK 924 INTRA-LIGAND FREE ENERGY PREDICTED BY IDOCK:   -0.31 KCAL/MOL
REMARK 927      BINDING AFFINITY PREDICTED BY RF-SCORE:    0.00 PKD
ROOT
HETATM    1  O   UNL     1     -13.036  11.179  72.279  1.00  0.00    -0.370 OA 
HETATM    2  N   UNL     1     -12.650  10.660  71.223  1.00  0.00    -0.394 N  
HETATM    3  O   UNL     1     -12.544   9.438  71.039  1.00  0.00    -0.294 OA 
HETATM    4  C   UNL     1     -12.301  11.551  70.111  1.00  0.00    -0.245 A  
HETATM    5  C   UNL     1     -12.409  12.935  70.269  1.00  0.00    -0.294 A  
HETATM    6  C   UNL     1     -12.125  13.777  69.186  1.00  0.00    -0.374 A  
HETATM    7  C   UNL     1     -11.723  13.269  67.934  1.00  0.00    -0.395 A  
HETATM    8  C   UNL     1     -11.880  11.013  68.891  1.00  0.00    -0.378 A  
HETATM    9  C   UNL     1     -11.588  11.871  67.823  1.00  0.00    -0.393 A  
ENDROOT
BRANCH   7  10
HETATM   10  C   UNL     1     -11.499  14.168  66.774  1.00  0.00    -0.383 A  
HETATM   11  C   UNL     1     -10.650  15.287  66.854  1.00  0.00    -0.304 A  
HETATM   12  C   UNL     1     -10.491  16.167  65.775  1.00  0.00    -0.384 A  
HETATM   13  C   UNL     1     -11.167  15.937  64.582  1.00  0.00    -0.361 A  
HETATM   14  C   UNL     1     -11.996  14.829  64.465  1.00  0.00    -0.451 A  
HETATM   15  C   UNL     1     -12.163  13.960  65.549  1.00  0.00    -0.467 A  
ENDBRANCH   7  10
TORSDOF 1
ENDMDL
MODEL       38
REMARK 921   NORMALIZED FREE ENERGY PREDICTED BY IDOCK:   -5.14 KCAL/MOL
REMARK 922        TOTAL FREE ENERGY PREDICTED BY IDOCK:   -5.76 KCAL/MOL
REMARK 923 INTER-LIGAND FREE ENERGY PREDICTED BY IDOCK:   -5.44 KCAL/MOL
REMARK 924 INTRA-LIGAND FREE ENERGY PREDICTED BY IDOCK:   -0.32 KCAL/MOL
REMARK 927      BINDING AFFINITY PREDICTED BY RF-SCORE:    0.00 PKD
ROOT
HETATM    1  O   UNL     1     -11.370   9.128  71.962  1.00  0.00    -0.366 OA 
HETATM    2  N   UNL     1     -10.860   8.734  70.904  1.00  0.00    -0.226 N  
HETATM    3  O   UNL     1     -10.276   7.648  70.767  1.00  0.00    -0.200 OA 
HETATM    4  C   UNL     1     -10.962   9.607  69.729  1.00  0.00    -0.240 A  
HETATM    5  C   UNL     1     -11.615  10.837  69.833  1.00  0.00    -0.410 A  
HETATM    6  C   UNL     1     -11.754  11.643  68.694  1.00  0.00    -0.386 A  
HETATM    7  C   UNL     1     -11.244  11.251  67.439  1.00  0.00    -0.370 A  
HETATM    8  C   UNL     1     -10.420   9.199  68.506  1.00  0.00    -0.238 A  
HETATM    9  C   UNL     1     -10.558  10.022  67.382  1.00  0.00    -0.330 A  
ENDROOT
BRANCH   7  10
HETATM   10  C   UNL     1     -11.465  12.078  66.226  1.00  0.00    -0.408 A  
HETATM   11  C   UNL     1     -12.280  13.225  66.247  1.00  0.00    -0.440 A  
HETATM   12  C   UNL     1     -12.535  13.966  65.086  1.00  0.00    -0.479 A  
HETATM   13  C   UNL     1     -11.964  13.586  63.876  1.00  0.00    -0.491 A  
HETATM   14  C   UNL     1     -11.137  12.470  63.828  1.00  0.00    -0.503 A  
HETATM   15  C   UNL     1     -10.896  11.724  64.987  1.00  0.00    -0.350 A  
ENDBRANCH   7  10
TORSDOF 1
ENDMDL
MODEL       39
REMARK 921   NORMALIZED FREE ENERGY PREDICTED BY IDOCK:   -5.12 KCAL/MOL
REMARK 922        TOTAL FREE ENERGY PREDICTED BY IDOCK:   -5.75 KCAL/MOL
REMARK 923 INTER-LIGAND FREE ENERGY PREDICTED BY IDOCK:   -5.44 KCAL/MOL
REMARK 924 INTRA-LIGAND FREE ENERGY PREDICTED BY IDOCK:   -0.31 KCAL/MOL
REMARK 927      BINDING AFFINITY PREDICTED BY RF-SCORE:    0.00 PKD
ROOT
HETATM    1  O   UNL     1     -12.511   7.872  71.439  1.00  0.00    -0.313 OA 
HETATM    2  N   UNL     1     -13.027   8.871  71.959  1.00  0.00    -0.369 N  
HETATM    3  O   UNL     1     -13.766   8.843  72.955  1.00  0.00    -0.341 OA 
HETATM    4  C   UNL     1     -12.737  10.179  71.361  1.00  0.00    -0.425 A  
HETATM    5  C   UNL     1     -11.906  10.262  70.241  1.00  0.00    -0.372 A  
HETATM    6  C   UNL     1     -11.591  11.519  69.707  1.00  0.00    -0.401 A  
HETATM    7  C   UNL     1     -12.098  12.712  70.263  1.00  0.00    -0.372 A  
HETATM    8  C   UNL     1     -13.279  11.340  71.922  1.00  0.00    -0.491 A  
HETATM    9  C   UNL     1     -12.963  12.586  71.368  1.00  0.00    -0.347 A  
ENDROOT
BRANCH   7  10
HETATM   10  C   UNL     1     -11.696  14.040  69.735  1.00  0.00    -0.375 A  
HETATM   11  C   UNL     1     -11.639  14.303  68.354  1.00  0.00    -0.354 A  
HETATM   12  C   UNL     1     -11.198  15.538  67.860  1.00  0.00    -0.325 A  
HETATM   13  C   UNL     1     -10.821  16.547  68.739  1.00  0.00    -0.342 A  
HETATM   14  C   UNL     1     -10.887  16.324  70.109  1.00  0.00    -0.299 A  
HETATM   15  C   UNL     1     -11.314  15.085  70.599  1.00  0.00    -0.312 A  
ENDBRANCH   7  10
TORSDOF 1
ENDMDL
MODEL       40
REMARK 921   NORMALIZED FREE ENERGY PREDICTED BY IDOCK:   -5.10 KCAL/MOL
REMARK 922        TOTAL FREE ENERGY PREDICTED BY IDOCK:   -5.72 KCAL/MOL
REMARK 923 INTER-LIGAND FREE ENERGY PREDICTED BY IDOCK:   -5.42 KCAL/MOL
REMARK 924 INTRA-LIGAND FREE ENERGY PREDICTED BY IDOCK:   -0.30 KCAL/MOL
REMARK 927      BINDING AFFINITY PREDICTED BY RF-SCORE:    0.00 PKD
ROOT
HETATM    1  O   UNL     1     -11.176   8.504  70.260  1.00  0.00    -0.248 OA 
HETATM    2  N   UNL     1     -11.506   9.645  70.615  1.00  0.00    -0.286 N  
HETATM    3  O   UNL     1     -11.793   9.963  71.779  1.00  0.00    -0.362 OA 
HETATM    4  C   UNL     1     -11.550  10.694  69.590  1.00  0.00    -0.296 A  
HETATM    5  C   UNL     1     -11.229  10.385  68.266  1.00  0.00    -0.330 A  
HETATM    6  C   UNL     1     -11.222  11.402  67.302  1.00  0.00    -0.370 A  
HETATM    7  C   UNL     1     -11.539  12.737  67.627  1.00  0.00    -0.412 A  
HETATM    8  C   UNL     1     -11.895  12.002  69.943  1.00  0.00    -0.405 A  
HETATM    9  C   UNL     1     -11.895  13.003  68.964  1.00  0.00    -0.362 A  
ENDROOT
BRANCH   7  10
HETATM   10  C   UNL     1     -11.454  13.818  66.613  1.00  0.00    -0.362 A  
HETATM   11  C   UNL     1     -12.189  13.771  65.415  1.00  0.00    -0.465 A  
HETATM   12  C   UNL     1     -12.057  14.763  64.434  1.00  0.00    -0.457 A  
HETATM   13  C   UNL     1     -11.197  15.837  64.638  1.00  0.00    -0.373 A  
HETATM   14  C   UNL     1     -10.474  15.922  65.822  1.00  0.00    -0.386 A  
HETATM   15  C   UNL     1     -10.598  14.922  66.793  1.00  0.00    -0.305 A  
ENDBRANCH   7  10
TORSDOF 1
ENDMDL
MODEL       41
REMARK 921   NORMALIZED FREE ENERGY PREDICTED BY IDOCK:   -5.06 KCAL/MOL
REMARK 922        TOTAL FREE ENERGY PREDICTED BY IDOCK:   -5.68 KCAL/MOL
REMARK 923 INTER-LIGAND FREE ENERGY PREDICTED BY IDOCK:   -5.36 KCAL/MOL
REMARK 924 INTRA-LIGAND FREE ENERGY PREDICTED BY IDOCK:   -0.32 KCAL/MOL
REMARK 927      BINDING AFFINITY PREDICTED BY RF-SCORE:    0.00 PKD
ROOT
HETATM    1  O   UNL     1      -9.742  11.513  63.064  1.00  0.00    -0.382 OA 
HETATM    2  N   UNL     1      -9.629  10.648  63.943  1.00  0.00    -0.279 N  
HETATM    3  O   UNL     1      -9.021   9.576  63.800  1.00  0.00    -0.229 OA 
HETATM    4  C   UNL     1     -10.249  10.911  65.247  1.00  0.00    -0.288 A  
HETATM    5  C   UNL     1     -10.940  12.107  65.458  1.00  0.00    -0.343 A  
HETATM    6  C   UNL     1     -11.485  12.375  66.721  1.00  0.00    -0.423 A  
HETATM    7  C   UNL     1     -11.364  11.465  67.791  1.00  0.00    -0.354 A  
HETATM    8  C   UNL     1     -10.132   9.975  66.278  1.00  0.00    -0.310 A  
HETATM    9  C   UNL     1     -10.694  10.254  67.530  1.00  0.00    -0.348 A  
ENDROOT
BRANCH   7  10
HETATM   10  C   UNL     1     -11.879  11.795  69.144  1.00  0.00    -0.389 A  
HETATM   11  C   UNL     1     -12.222  10.795  70.072  1.00  0.00    -0.409 A  
HETATM   12  C   UNL     1     -12.767  11.111  71.324  1.00  0.00    -0.531 A  
HETATM   13  C   UNL     1     -12.964  12.440  71.684  1.00  0.00    -0.409 A  
HETATM   14  C   UNL     1     -12.614  13.450  70.797  1.00  0.00    -0.369 A  
HETATM   15  C   UNL     1     -12.084  13.131  69.543  1.00  0.00    -0.296 A  
ENDBRANCH   7  10
TORSDOF 1
ENDMDL
MODEL       42
REMARK 921   NORMALIZED FREE ENERGY PREDICTED BY IDOCK:   -5.04 KCAL/MOL
REMARK 922        TOTAL FREE ENERGY PREDICTED BY IDOCK:   -5.66 KCAL/MOL
REMARK 923 INTER-LIGAND FREE ENERGY PREDICTED BY IDOCK:   -5.34 KCAL/MOL
REMARK 924 INTRA-LIGAND FREE ENERGY PREDICTED BY IDOCK:   -0.32 KCAL/MOL
REMARK 927      BINDING AFFINITY PREDICTED BY RF-SCORE:    0.00 PKD
ROOT
HETATM    1  O   UNL     1     -12.989  11.423  71.826  1.00  0.00    -0.459 OA 
HETATM    2  N   UNL     1     -12.281  10.535  71.331  1.00  0.00    -0.350 N  
HETATM    3  O   UNL     1     -11.965   9.485  71.911  1.00  0.00    -0.370 OA 
HETATM    4  C   UNL     1     -11.791  10.734  69.963  1.00  0.00    -0.344 A  
HETATM    5  C   UNL     1     -12.126  11.898  69.268  1.00  0.00    -0.270 A  
HETATM    6  C   UNL     1     -11.698  12.058  67.943  1.00  0.00    -0.393 A  
HETATM    7  C   UNL     1     -10.927  11.076  67.287  1.00  0.00    -0.356 A  
HETATM    8  C   UNL     1     -11.006   9.751  69.353  1.00  0.00    -0.241 A  
HETATM    9  C   UNL     1     -10.576   9.933  68.032  1.00  0.00    -0.288 A  
ENDROOT
BRANCH   7  10
HETATM   10  C   UNL     1     -10.545  11.223  65.859  1.00  0.00    -0.309 A  
HETATM   11  C   UNL     1     -10.987  12.308  65.081  1.00  0.00    -0.344 A  
HETATM   12  C   UNL     1     -10.675  12.409  63.718  1.00  0.00    -0.492 A  
HETATM   13  C   UNL     1      -9.896  11.433  63.106  1.00  0.00    -0.413 A  
HETATM   14  C   UNL     1      -9.427  10.361  63.855  1.00  0.00    -0.354 A  
HETATM   15  C   UNL     1      -9.752  10.256  65.212  1.00  0.00    -0.354 A  
ENDBRANCH   7  10
TORSDOF 1
ENDMDL
MODEL       43
REMARK 921   NORMALIZED FREE ENERGY PREDICTED BY IDOCK:   -5.04 KCAL/MOL
REMARK 922        TOTAL FREE ENERGY PREDICTED BY IDOCK:   -5.66 KCAL/MOL
REMARK 923 INTER-LIGAND FREE ENERGY PREDICTED BY IDOCK:   -5.34 KCAL/MOL
REMARK 924 INTRA-LIGAND FREE ENERGY PREDICTED BY IDOCK:   -0.32 KCAL/MOL
REMARK 927      BINDING AFFINITY PREDICTED BY RF-SCORE:    0.00 PKD
ROOT
HETATM    1  O   UNL     1      -6.578  20.098  68.862  1.00  0.00    -0.309 OA 
HETATM    2  N   UNL     1      -7.390  20.283  67.945  1.00  0.00    -0.293 N  
HETATM    3  O   UNL     1      -7.508  21.344  67.314  1.00  0.00    -0.451 OA 
HETATM    4  C   UNL     1      -8.268  19.167  67.574  1.00  0.00    -0.281 A  
HETATM    5  C   UNL     1      -8.169  17.951  68.253  1.00  0.00    -0.292 A  
HETATM    6  C   UNL     1      -8.974  16.873  67.859  1.00  0.00    -0.225 A  
HETATM    7  C   UNL     1      -9.894  16.982  66.796  1.00  0.00    -0.283 A  
HETATM    8  C   UNL     1      -9.188  19.319  66.533  1.00  0.00    -0.388 A  
HETATM    9  C   UNL     1      -9.994  18.235  66.161  1.00  0.00    -0.313 A  
ENDROOT
BRANCH   7  10
HETATM   10  C   UNL     1     -10.685  15.811  66.339  1.00  0.00    -0.277 A  
HETATM   11  C   UNL     1     -11.026  15.627  64.987  1.00  0.00    -0.445 A  
HETATM   12  C   UNL     1     -11.825  14.554  64.571  1.00  0.00    -0.459 A  
HETATM   13  C   UNL     1     -12.289  13.628  65.499  1.00  0.00    -0.519 A  
HETATM   14  C   UNL     1     -11.951  13.772  66.839  1.00  0.00    -0.460 A  
HETATM   15  C   UNL     1     -11.165  14.852  67.253  1.00  0.00    -0.348 A  
ENDBRANCH   7  10
TORSDOF 1
ENDMDL
MODEL       44
REMARK 921   NORMALIZED FREE ENERGY PREDICTED BY IDOCK:   -4.99 KCAL/MOL
REMARK 922        TOTAL FREE ENERGY PREDICTED BY IDOCK:   -5.60 KCAL/MOL
REMARK 923 INTER-LIGAND FREE ENERGY PREDICTED BY IDOCK:   -5.30 KCAL/MOL
REMARK 924 INTRA-LIGAND FREE ENERGY PREDICTED BY IDOCK:   -0.30 KCAL/MOL
REMARK 927      BINDING AFFINITY PREDICTED BY RF-SCORE:    0.00 PKD
ROOT
HETATM    1  O   UNL     1      -9.304   7.658  72.399  1.00  0.00    -0.144 OA 
HETATM    2  N   UNL     1     -10.430   8.173  72.405  1.00  0.00    -0.293 N  
HETATM    3  O   UNL     1     -11.302   7.946  73.259  1.00  0.00    -0.312 OA 
HETATM    4  C   UNL     1     -10.754   9.124  71.336  1.00  0.00    -0.343 A  
HETATM    5  C   UNL     1      -9.803   9.416  70.355  1.00  0.00    -0.313 A  
HETATM    6  C   UNL     1     -10.100  10.364  69.367  1.00  0.00    -0.251 A  
HETATM    7  C   UNL     1     -11.341  11.032  69.326  1.00  0.00    -0.350 A  
HETATM    8  C   UNL     1     -12.005   9.748  71.311  1.00  0.00    -0.471 A  
HETATM    9  C   UNL     1     -12.289  10.683  70.308  1.00  0.00    -0.406 A  
ENDROOT
BRANCH   7  10
HETATM   10  C   UNL     1     -11.614  12.089  68.320  1.00  0.00    -0.394 A  
HETATM   11  C   UNL     1     -11.636  11.813  66.940  1.00  0.00    -0.310 A  
HETATM   12  C   UNL     1     -11.832  12.826  65.992  1.00  0.00    -0.495 A  
HETATM   13  C   UNL     1     -12.029  14.140  66.405  1.00  0.00    -0.457 A  
HETATM   14  C   UNL     1     -12.033  14.439  67.761  1.00  0.00    -0.368 A  
HETATM   15  C   UNL     1     -11.823  13.428  68.705  1.00  0.00    -0.397 A  
ENDBRANCH   7  10
TORSDOF 1
ENDMDL
MODEL       45
REMARK 921   NORMALIZED FREE ENERGY PREDICTED BY IDOCK:   -4.91 KCAL/MOL
REMARK 922        TOTAL FREE ENERGY PREDICTED BY IDOCK:   -5.52 KCAL/MOL
REMARK 923 INTER-LIGAND FREE ENERGY PREDICTED BY IDOCK:   -5.19 KCAL/MOL
REMARK 924 INTRA-LIGAND FREE ENERGY PREDICTED BY IDOCK:   -0.32 KCAL/MOL
REMARK 927      BINDING AFFINITY PREDICTED BY RF-SCORE:    0.00 PKD
ROOT
HETATM    1  O   UNL     1      -9.902  10.860  63.131  1.00  0.00    -0.313 OA 
HETATM    2  N   UNL     1     -10.540  11.600  63.893  1.00  0.00    -0.351 N  
HETATM    3  O   UNL     1     -11.102  12.650  63.544  1.00  0.00    -0.448 OA 
HETATM    4  C   UNL     1     -10.647  11.204  65.301  1.00  0.00    -0.238 A  
HETATM    5  C   UNL     1     -10.035  10.027  65.740  1.00  0.00    -0.346 A  
HETATM    6  C   UNL     1     -10.186   9.627  67.074  1.00  0.00    -0.308 A  
HETATM    7  C   UNL     1     -10.934  10.386  67.998  1.00  0.00    -0.347 A  
HETATM    8  C   UNL     1     -11.374  11.994  66.196  1.00  0.00    -0.407 A  
HETATM    9  C   UNL     1     -11.503  11.586  67.529  1.00  0.00    -0.355 A  
ENDROOT
BRANCH   7  10
HETATM   10  C   UNL     1     -11.148   9.912  69.389  1.00  0.00    -0.237 A  
HETATM   11  C   UNL     1     -10.404   8.851  69.935  1.00  0.00    -0.215 A  
HETATM   12  C   UNL     1     -10.654   8.367  71.226  1.00  0.00    -0.279 A  
HETATM   13  C   UNL     1     -11.644   8.948  72.010  1.00  0.00    -0.435 A  
HETATM   14  C   UNL     1     -12.382  10.013  71.506  1.00  0.00    -0.513 A  
HETATM   15  C   UNL     1     -12.139  10.484  70.211  1.00  0.00    -0.402 A  
ENDBRANCH   7  10
TORSDOF 1
ENDMDL
MODEL       46
REMARK 921   NORMALIZED FREE ENERGY PREDICTED BY IDOCK:   -4.89 KCAL/MOL
REMARK 922        TOTAL FREE ENERGY PREDICTED BY IDOCK:   -5.50 KCAL/MOL
REMARK 923 INTER-LIGAND FREE ENERGY PREDICTED BY IDOCK:   -5.18 KCAL/MOL
REMARK 924 INTRA-LIGAND FREE ENERGY PREDICTED BY IDOCK:   -0.32 KCAL/MOL
REMARK 927      BINDING AFFINITY PREDICTED BY RF-SCORE:    0.00 PKD
ROOT
HETATM    1  O   UNL     1      -8.117  19.151  67.831  1.00  0.00    -0.274 OA 
HETATM    2  N   UNL     1      -9.117  18.562  68.266  1.00  0.00    -0.308 N  
HETATM    3  O   UNL     1      -9.769  18.925  69.257  1.00  0.00    -0.254 OA 
HETATM    4  C   UNL     1      -9.565  17.360  67.556  1.00  0.00    -0.257 A  
HETATM    5  C   UNL     1      -8.865  16.915  66.432  1.00  0.00    -0.322 A  
HETATM    6  C   UNL     1      -9.330  15.796  65.728  1.00  0.00    -0.298 A  
HETATM    7  C   UNL     1     -10.486  15.094  66.126  1.00  0.00    -0.320 A  
HETATM    8  C   UNL     1     -10.701  16.672  67.996  1.00  0.00    -0.350 A  
HETATM    9  C   UNL     1     -11.143  15.548  67.287  1.00  0.00    -0.271 A  
ENDROOT
BRANCH   7  10
HETATM   10  C   UNL     1     -11.011  13.957  65.328  1.00  0.00    -0.331 A  
HETATM   11  C   UNL     1     -10.221  13.296  64.370  1.00  0.00    -0.300 A  
HETATM   12  C   UNL     1     -10.740  12.265  63.575  1.00  0.00    -0.497 A  
HETATM   13  C   UNL     1     -12.060  11.859  63.734  1.00  0.00    -0.547 A  
HETATM   14  C   UNL     1     -12.859  12.479  64.687  1.00  0.00    -0.325 A  
HETATM   15  C   UNL     1     -12.341  13.518  65.469  1.00  0.00    -0.524 A  
ENDBRANCH   7  10
TORSDOF 1
ENDMDL
MODEL       47
REMARK 921   NORMALIZED FREE ENERGY PREDICTED BY IDOCK:   -4.88 KCAL/MOL
REMARK 922        TOTAL FREE ENERGY PREDICTED BY IDOCK:   -5.49 KCAL/MOL
REMARK 923 INTER-LIGAND FREE ENERGY PREDICTED BY IDOCK:   -5.17 KCAL/MOL
REMARK 924 INTRA-LIGAND FREE ENERGY PREDICTED BY IDOCK:   -0.32 KCAL/MOL
REMARK 927      BINDING AFFINITY PREDICTED BY RF-SCORE:    0.00 PKD
ROOT
HETATM    1  O   UNL     1     -12.281   9.544  70.716  1.00  0.00    -0.273 OA 
HETATM    2  N   UNL     1     -12.573  10.673  71.135  1.00  0.00    -0.385 N  
HETATM    3  O   UNL     1     -13.105  10.899  72.232  1.00  0.00    -0.376 OA 
HETATM    4  C   UNL     1     -12.259  11.822  70.278  1.00  0.00    -0.299 A  
HETATM    5  C   UNL     1     -11.653  11.617  69.036  1.00  0.00    -0.379 A  
HETATM    6  C   UNL     1     -11.308  12.722  68.246  1.00  0.00    -0.335 A  
HETATM    7  C   UNL     1     -11.562  14.044  68.665  1.00  0.00    -0.360 A  
HETATM    8  C   UNL     1     -12.549  13.118  70.714  1.00  0.00    -0.338 A  
HETATM    9  C   UNL     1     -12.209  14.210  69.906  1.00  0.00    -0.416 A  
ENDROOT
BRANCH   7  10
HETATM   10  C   UNL     1     -11.123  15.207  67.854  1.00  0.00    -0.322 A  
HETATM   11  C   UNL     1     -11.077  16.509  68.385  1.00  0.00    -0.333 A  
HETATM   12  C   UNL     1     -10.722  17.612  67.597  1.00  0.00    -0.318 A  
HETATM   13  C   UNL     1     -10.386  17.434  66.259  1.00  0.00    -0.330 A  
HETATM   14  C   UNL     1     -10.401  16.157  65.712  1.00  0.00    -0.398 A  
HETATM   15  C   UNL     1     -10.770  15.060  66.498  1.00  0.00    -0.312 A  
ENDBRANCH   7  10
TORSDOF 1
ENDMDL
MODEL       48
REMARK 921   NORMALIZED FREE ENERGY PREDICTED BY IDOCK:   -4.87 KCAL/MOL
REMARK 922        TOTAL FREE ENERGY PREDICTED BY IDOCK:   -5.48 KCAL/MOL
REMARK 923 INTER-LIGAND FREE ENERGY PREDICTED BY IDOCK:   -5.16 KCAL/MOL
REMARK 924 INTRA-LIGAND FREE ENERGY PREDICTED BY IDOCK:   -0.32 KCAL/MOL
REMARK 927      BINDING AFFINITY PREDICTED BY RF-SCORE:    0.00 PKD
ROOT
HETATM    1  O   UNL     1     -10.031   7.429  70.641  1.00  0.00    -0.186 OA 
HETATM    2  N   UNL     1     -10.584   8.516  70.862  1.00  0.00    -0.201 N  
HETATM    3  O   UNL     1     -10.913   8.920  71.987  1.00  0.00    -0.352 OA 
HETATM    4  C   UNL     1     -10.860   9.389  69.715  1.00  0.00    -0.232 A  
HETATM    5  C   UNL     1     -10.503   8.978  68.428  1.00  0.00    -0.234 A  
HETATM    6  C   UNL     1     -10.722   9.839  67.345  1.00  0.00    -0.314 A  
HETATM    7  C   UNL     1     -11.303  11.113  67.512  1.00  0.00    -0.351 A  
HETATM    8  C   UNL     1     -11.463  10.634  69.915  1.00  0.00    -0.393 A  
HETATM    9  C   UNL     1     -11.686  11.476  68.818  1.00  0.00    -0.397 A  
ENDROOT
BRANCH   7  10
HETATM   10  C   UNL     1     -11.460  12.045  66.366  1.00  0.00    -0.417 A  
HETATM   11  C   UNL     1     -10.935  11.752  65.094  1.00  0.00    -0.351 A  
HETATM   12  C   UNL     1     -11.031  12.663  64.033  1.00  0.00    -0.448 A  
HETATM   13  C   UNL     1     -11.672  13.883  64.217  1.00  0.00    -0.406 A  
HETATM   14  C   UNL     1     -12.219  14.191  65.456  1.00  0.00    -0.443 A  
HETATM   15  C   UNL     1     -12.109  13.286  66.517  1.00  0.00    -0.435 A  
ENDBRANCH   7  10
TORSDOF 1
ENDMDL
MODEL       49
REMARK 921   NORMALIZED FREE ENERGY PREDICTED BY IDOCK:   -4.79 KCAL/MOL
REMARK 922        TOTAL FREE ENERGY PREDICTED BY IDOCK:   -5.40 KCAL/MOL
REMARK 923 INTER-LIGAND FREE ENERGY PREDICTED BY IDOCK:   -5.07 KCAL/MOL
REMARK 924 INTRA-LIGAND FREE ENERGY PREDICTED BY IDOCK:   -0.33 KCAL/MOL
REMARK 927      BINDING AFFINITY PREDICTED BY RF-SCORE:    0.00 PKD
ROOT
HETATM    1  O   UNL     1     -11.306  13.444  65.426  1.00  0.00    -0.290 OA 
HETATM    2  N   UNL     1     -11.572  13.671  66.614  1.00  0.00    -0.346 N  
HETATM    3  O   UNL     1     -11.965  14.764  67.049  1.00  0.00    -0.350 OA 
HETATM    4  C   UNL     1     -11.423  12.569  67.571  1.00  0.00    -0.336 A  
HETATM    5  C   UNL     1     -10.989  11.318  67.127  1.00  0.00    -0.348 A  
HETATM    6  C   UNL     1     -10.899  10.256  68.037  1.00  0.00    -0.325 A  
HETATM    7  C   UNL     1     -11.228  10.414  69.399  1.00  0.00    -0.314 A  
HETATM    8  C   UNL     1     -11.732  12.769  68.920  1.00  0.00    -0.370 A  
HETATM    9  C   UNL     1     -11.624  11.699  69.818  1.00  0.00    -0.389 A  
ENDROOT
BRANCH   7  10
HETATM   10  C   UNL     1     -11.201   9.263  70.337  1.00  0.00    -0.290 A  
HETATM   11  C   UNL     1     -10.723   7.999  69.947  1.00  0.00    -0.242 A  
HETATM   12  C   UNL     1     -10.758   6.900  70.816  1.00  0.00    -0.262 A  
HETATM   13  C   UNL     1     -11.257   7.046  72.106  1.00  0.00    -0.291 A  
HETATM   14  C   UNL     1     -11.717   8.288  72.527  1.00  0.00    -0.451 A  
HETATM   15  C   UNL     1     -11.693   9.379  71.651  1.00  0.00    -0.468 A  
ENDBRANCH   7  10
TORSDOF 1
ENDMDL
MODEL       50
REMARK 921   NORMALIZED FREE ENERGY PREDICTED BY IDOCK:   -4.76 KCAL/MOL
REMARK 922        TOTAL FREE ENERGY PREDICTED BY IDOCK:   -5.37 KCAL/MOL
REMARK 923 INTER-LIGAND FREE ENERGY PREDICTED BY IDOCK:   -5.04 KCAL/MOL
REMARK 924 INTRA-LIGAND FREE ENERGY PREDICTED BY IDOCK:   -0.32 KCAL/MOL
REMARK 927      BINDING AFFINITY PREDICTED BY RF-SCORE:    0.00 PKD
ROOT
HETATM    1  O   UNL     1      -9.758  16.080  66.319  1.00  0.00    -0.263 OA 
HETATM    2  N   UNL     1     -10.401  16.211  67.370  1.00  0.00    -0.288 N  
HETATM    3  O   UNL     1     -10.813  17.295  67.811  1.00  0.00    -0.351 OA 
HETATM    4  C   UNL     1     -10.705  15.000  68.141  1.00  0.00    -0.256 A  
HETATM    5  C   UNL     1     -10.267  13.756  67.681  1.00  0.00    -0.242 A  
HETATM    6  C   UNL     1     -10.607  12.599  68.395  1.00  0.00    -0.258 A  
HETATM    7  C   UNL     1     -11.375  12.652  69.576  1.00  0.00    -0.227 A  
HETATM    8  C   UNL     1     -11.446  15.093  69.322  1.00  0.00    -0.327 A  
HETATM    9  C   UNL     1     -11.765  13.927  70.029  1.00  0.00    -0.338 A  
ENDROOT
BRANCH   7  10
HETATM   10  C   UNL     1     -11.791  11.412  70.280  1.00  0.00    -0.438 A  
HETATM   11  C   UNL     1     -11.190  10.169  70.013  1.00  0.00    -0.361 A  
HETATM   12  C   UNL     1     -11.629   8.993  70.635  1.00  0.00    -0.265 A  
HETATM   13  C   UNL     1     -12.671   9.037  71.555  1.00  0.00    -0.399 A  
HETATM   14  C   UNL     1     -13.271  10.254  71.855  1.00  0.00    -0.550 A  
HETATM   15  C   UNL     1     -12.839  11.424  71.221  1.00  0.00    -0.481 A  
ENDBRANCH   7  10
TORSDOF 1
ENDMDL
MODEL       51
REMARK 921   NORMALIZED FREE ENERGY PREDICTED BY IDOCK:   -4.76 KCAL/MOL
REMARK 922        TOTAL FREE ENERGY PREDICTED BY IDOCK:   -5.36 KCAL/MOL
REMARK 923 INTER-LIGAND FREE ENERGY PREDICTED BY IDOCK:   -5.04 KCAL/MOL
REMARK 924 INTRA-LIGAND FREE ENERGY PREDICTED BY IDOCK:   -0.32 KCAL/MOL
REMARK 927      BINDING AFFINITY PREDICTED BY RF-SCORE:    0.00 PKD
ROOT
HETATM    1  O   UNL     1      -9.748  20.146  68.106  1.00  0.00    -0.355 OA 
HETATM    2  N   UNL     1      -9.841  19.371  67.145  1.00  0.00    -0.322 N  
HETATM    3  O   UNL     1      -9.608  19.682  65.967  1.00  0.00    -0.380 OA 
HETATM    4  C   UNL     1     -10.243  17.987  67.418  1.00  0.00    -0.363 A  
HETATM    5  C   UNL     1     -10.510  17.588  68.730  1.00  0.00    -0.318 A  
HETATM    6  C   UNL     1     -10.843  16.251  68.990  1.00  0.00    -0.315 A  
HETATM    7  C   UNL     1     -10.926  15.291  67.960  1.00  0.00    -0.299 A  
HETATM    8  C   UNL     1     -10.341  17.068  66.369  1.00  0.00    -0.304 A  
HETATM    9  C   UNL     1     -10.688  15.740  66.646  1.00  0.00    -0.287 A  
ENDROOT
BRANCH   7  10
HETATM   10  C   UNL     1     -11.205  13.864  68.259  1.00  0.00    -0.298 A  
HETATM   11  C   UNL     1     -11.027  12.855  67.295  1.00  0.00    -0.289 A  
HETATM   12  C   UNL     1     -11.352  11.519  67.562  1.00  0.00    -0.366 A  
HETATM   13  C   UNL     1     -11.845  11.157  68.811  1.00  0.00    -0.388 A  
HETATM   14  C   UNL     1     -12.011  12.128  69.791  1.00  0.00    -0.372 A  
HETATM   15  C   UNL     1     -11.700  13.463  69.516  1.00  0.00    -0.385 A  
ENDBRANCH   7  10
TORSDOF 1
ENDMDL
MODEL       52
REMARK 921   NORMALIZED FREE ENERGY PREDICTED BY IDOCK:   -4.75 KCAL/MOL
REMARK 922        TOTAL FREE ENERGY PREDICTED BY IDOCK:   -5.35 KCAL/MOL
REMARK 923 INTER-LIGAND FREE ENERGY PREDICTED BY IDOCK:   -5.03 KCAL/MOL
REMARK 924 INTRA-LIGAND FREE ENERGY PREDICTED BY IDOCK:   -0.32 KCAL/MOL
REMARK 927      BINDING AFFINITY PREDICTED BY RF-SCORE:    0.00 PKD
ROOT
HETATM    1  O   UNL     1      -7.615  20.402  66.426  1.00  0.00    -0.251 OA 
HETATM    2  N   UNL     1      -7.722  19.216  66.082  1.00  0.00    -0.284 N  
HETATM    3  O   UNL     1      -7.125  18.707  65.121  1.00  0.00    -0.482 OA 
HETATM    4  C   UNL     1      -8.608  18.353  66.871  1.00  0.00    -0.271 A  
HETATM    5  C   UNL     1      -9.297  18.881  67.966  1.00  0.00    -0.349 A  
HETATM    6  C   UNL     1     -10.100  18.038  68.746  1.00  0.00    -0.388 A  
HETATM    7  C   UNL     1     -10.243  16.666  68.454  1.00  0.00    -0.284 A  
HETATM    8  C   UNL     1      -8.747  17.003  66.536  1.00  0.00    -0.297 A  
HETATM    9  C   UNL     1      -9.564  16.179  67.320  1.00  0.00    -0.231 A  
ENDROOT
BRANCH   7  10
HETATM   10  C   UNL     1     -11.036  15.770  69.333  1.00  0.00    -0.314 A  
HETATM   11  C   UNL     1     -11.195  16.028  70.707  1.00  0.00    -0.381 A  
HETATM   12  C   UNL     1     -11.892  15.146  71.543  1.00  0.00    -0.436 A  
HETATM   13  C   UNL     1     -12.463  13.991  71.019  1.00  0.00    -0.444 A  
HETATM   14  C   UNL     1     -12.342  13.721  69.662  1.00  0.00    -0.284 A  
HETATM   15  C   UNL     1     -11.633  14.597  68.832  1.00  0.00    -0.340 A  
ENDBRANCH   7  10
TORSDOF 1
ENDMDL
MODEL       53
REMARK 921   NORMALIZED FREE ENERGY PREDICTED BY IDOCK:   -4.73 KCAL/MOL
REMARK 922        TOTAL FREE ENERGY PREDICTED BY IDOCK:   -5.33 KCAL/MOL
REMARK 923 INTER-LIGAND FREE ENERGY PREDICTED BY IDOCK:   -5.01 KCAL/MOL
REMARK 924 INTRA-LIGAND FREE ENERGY PREDICTED BY IDOCK:   -0.32 KCAL/MOL
REMARK 927      BINDING AFFINITY PREDICTED BY RF-SCORE:    0.00 PKD
ROOT
HETATM    1  O   UNL     1     -13.329   8.741  73.041  1.00  0.00    -0.284 OA 
HETATM    2  N   UNL     1     -12.247   8.564  72.463  1.00  0.00    -0.371 N  
HETATM    3  O   UNL     1     -11.497   7.596  72.658  1.00  0.00    -0.340 OA 
HETATM    4  C   UNL     1     -11.830   9.564  71.473  1.00  0.00    -0.405 A  
HETATM    5  C   UNL     1     -12.645  10.668  71.216  1.00  0.00    -0.533 A  
HETATM    6  C   UNL     1     -12.266  11.591  70.232  1.00  0.00    -0.415 A  
HETATM    7  C   UNL     1     -11.074  11.443  69.493  1.00  0.00    -0.274 A  
HETATM    8  C   UNL     1     -10.628   9.399  70.779  1.00  0.00    -0.371 A  
HETATM    9  C   UNL     1     -10.259  10.338  69.807  1.00  0.00    -0.262 A  
ENDROOT
BRANCH   7  10
HETATM   10  C   UNL     1     -10.722  12.386  68.401  1.00  0.00    -0.254 A  
HETATM   11  C   UNL     1      -9.393  12.567  67.976  1.00  0.00    -0.205 A  
HETATM   12  C   UNL     1      -9.059  13.504  66.989  1.00  0.00    -0.248 A  
HETATM   13  C   UNL     1     -10.053  14.270  66.389  1.00  0.00    -0.295 A  
HETATM   14  C   UNL     1     -11.378  14.098  66.773  1.00  0.00    -0.353 A  
HETATM   15  C   UNL     1     -11.705  13.172  67.769  1.00  0.00    -0.401 A  
ENDBRANCH   7  10
TORSDOF 1
ENDMDL
MODEL       54
REMARK 921   NORMALIZED FREE ENERGY PREDICTED BY IDOCK:   -4.71 KCAL/MOL
REMARK 922        TOTAL FREE ENERGY PREDICTED BY IDOCK:   -5.31 KCAL/MOL
REMARK 923 INTER-LIGAND FREE ENERGY PREDICTED BY IDOCK:   -5.00 KCAL/MOL
REMARK 924 INTRA-LIGAND FREE ENERGY PREDICTED BY IDOCK:   -0.31 KCAL/MOL
REMARK 927      BINDING AFFINITY PREDICTED BY RF-SCORE:    0.00 PKD
ROOT
HETATM    1  O   UNL     1     -12.368  13.193  66.476  1.00  0.00    -0.348 OA 
HETATM    2  N   UNL     1     -11.587  12.241  66.334  1.00  0.00    -0.384 N  
HETATM    3  O   UNL     1     -11.004  11.962  65.276  1.00  0.00    -0.291 OA 
HETATM    4  C   UNL     1     -11.326  11.392  67.502  1.00  0.00    -0.292 A  
HETATM    5  C   UNL     1     -11.955  11.670  68.718  1.00  0.00    -0.326 A  
HETATM    6  C   UNL     1     -11.661  10.887  69.842  1.00  0.00    -0.418 A  
HETATM    7  C   UNL     1     -10.750   9.813  69.782  1.00  0.00    -0.283 A  
HETATM    8  C   UNL     1     -10.437  10.318  67.399  1.00  0.00    -0.303 A  
HETATM    9  C   UNL     1     -10.165   9.538  68.530  1.00  0.00    -0.223 A  
ENDROOT
BRANCH   7  10
HETATM   10  C   UNL     1     -10.390   9.039  70.997  1.00  0.00    -0.348 A  
HETATM   11  C   UNL     1     -11.370   8.490  71.845  1.00  0.00    -0.399 A  
HETATM   12  C   UNL     1     -11.025   7.815  73.023  1.00  0.00    -0.442 A  
HETATM   13  C   UNL     1      -9.689   7.657  73.373  1.00  0.00    -0.363 A  
HETATM   14  C   UNL     1      -8.698   8.171  72.544  1.00  0.00    -0.266 A  
HETATM   15  C   UNL     1      -9.046   8.857  71.376  1.00  0.00    -0.318 A  
ENDBRANCH   7  10
TORSDOF 1
ENDMDL
MODEL       55
REMARK 921   NORMALIZED FREE ENERGY PREDICTED BY IDOCK:   -4.65 KCAL/MOL
REMARK 922        TOTAL FREE ENERGY PREDICTED BY IDOCK:   -5.25 KCAL/MOL
REMARK 923 INTER-LIGAND FREE ENERGY PREDICTED BY IDOCK:   -4.94 KCAL/MOL
REMARK 924 INTRA-LIGAND FREE ENERGY PREDICTED BY IDOCK:   -0.31 KCAL/MOL
REMARK 927      BINDING AFFINITY PREDICTED BY RF-SCORE:    0.00 PKD
ROOT
HETATM    1  O   UNL     1      -9.920  20.423  66.896  1.00  0.00    -0.450 OA 
HETATM    2  N   UNL     1     -10.151  19.734  67.899  1.00  0.00    -0.405 N  
HETATM    3  O   UNL     1     -10.339  20.191  69.037  1.00  0.00    -0.350 OA 
HETATM    4  C   UNL     1     -10.214  18.278  67.728  1.00  0.00    -0.385 A  
HETATM    5  C   UNL     1     -10.014  17.718  66.464  1.00  0.00    -0.346 A  
HETATM    6  C   UNL     1     -10.129  16.331  66.299  1.00  0.00    -0.340 A  
HETATM    7  C   UNL     1     -10.433  15.476  67.378  1.00  0.00    -0.281 A  
HETATM    8  C   UNL     1     -10.492  17.458  68.826  1.00  0.00    -0.333 A  
HETATM    9  C   UNL     1     -10.590  16.073  68.644  1.00  0.00    -0.266 A  
ENDROOT
BRANCH   7  10
HETATM   10  C   UNL     1     -10.626  14.018  67.174  1.00  0.00    -0.274 A  
HETATM   11  C   UNL     1     -11.493  13.514  66.187  1.00  0.00    -0.348 A  
HETATM   12  C   UNL     1     -11.719  12.139  66.041  1.00  0.00    -0.388 A  
HETATM   13  C   UNL     1     -11.067  11.232  66.869  1.00  0.00    -0.339 A  
HETATM   14  C   UNL     1     -10.189  11.699  67.840  1.00  0.00    -0.203 A  
HETATM   15  C   UNL     1      -9.976  13.073  67.993  1.00  0.00    -0.233 A  
ENDBRANCH   7  10
TORSDOF 1
ENDMDL
MODEL       56
REMARK 921   NORMALIZED FREE ENERGY PREDICTED BY IDOCK:   -4.60 KCAL/MOL
REMARK 922        TOTAL FREE ENERGY PREDICTED BY IDOCK:   -5.19 KCAL/MOL
REMARK 923 INTER-LIGAND FREE ENERGY PREDICTED BY IDOCK:   -4.88 KCAL/MOL
REMARK 924 INTRA-LIGAND FREE ENERGY PREDICTED BY IDOCK:   -0.32 KCAL/MOL
REMARK 927      BINDING AFFINITY PREDICTED BY RF-SCORE:    0.00 PKD
ROOT
HETATM    1  O   UNL     1     -12.224  14.071  68.223  1.00  0.00    -0.328 OA 
HETATM    2  N   UNL     1     -11.738  14.579  67.203  1.00  0.00    -0.392 N  
HETATM    3  O   UNL     1     -12.063  14.278  66.045  1.00  0.00    -0.405 OA 
HETATM    4  C   UNL     1     -10.715  15.616  67.377  1.00  0.00    -0.309 A  
HETATM    5  C   UNL     1     -10.320  15.993  68.662  1.00  0.00    -0.241 A  
HETATM    6  C   UNL     1      -9.380  17.020  68.822  1.00  0.00    -0.257 A  
HETATM    7  C   UNL     1      -8.810  17.685  67.716  1.00  0.00    -0.240 A  
HETATM    8  C   UNL     1     -10.151  16.235  66.257  1.00  0.00    -0.340 A  
HETATM    9  C   UNL     1      -9.203  17.251  66.435  1.00  0.00    -0.278 A  
ENDROOT
BRANCH   7  10
HETATM   10  C   UNL     1      -7.873  18.822  67.901  1.00  0.00    -0.284 A  
HETATM   11  C   UNL     1      -7.794  19.877  66.973  1.00  0.00    -0.325 A  
HETATM   12  C   UNL     1      -6.864  20.915  67.119  1.00  0.00    -0.417 A  
HETATM   13  C   UNL     1      -6.003  20.932  68.211  1.00  0.00    -0.388 A  
HETATM   14  C   UNL     1      -6.073  19.915  69.156  1.00  0.00    -0.330 A  
HETATM   15  C   UNL     1      -6.992  18.873  68.998  1.00  0.00    -0.342 A  
ENDBRANCH   7  10
TORSDOF 1
ENDMDL
MODEL       57
REMARK 921   NORMALIZED FREE ENERGY PREDICTED BY IDOCK:   -4.60 KCAL/MOL
REMARK 922        TOTAL FREE ENERGY PREDICTED BY IDOCK:   -5.19 KCAL/MOL
REMARK 923 INTER-LIGAND FREE ENERGY PREDICTED BY IDOCK:   -4.89 KCAL/MOL
REMARK 924 INTRA-LIGAND FREE ENERGY PREDICTED BY IDOCK:   -0.30 KCAL/MOL
REMARK 927      BINDING AFFINITY PREDICTED BY RF-SCORE:    0.00 PKD
ROOT
HETATM    1  O   UNL     1     -13.240   7.346  72.103  1.00  0.00    -0.159 OA 
HETATM    2  N   UNL     1     -12.216   7.636  71.470  1.00  0.00    -0.312 N  
HETATM    3  O   UNL     1     -11.301   6.839  71.210  1.00  0.00    -0.262 OA 
HETATM    4  C   UNL     1     -12.079   9.014  70.985  1.00  0.00    -0.251 A  
HETATM    5  C   UNL     1     -13.086   9.946  71.249  1.00  0.00    -0.487 A  
HETATM    6  C   UNL     1     -12.973  11.246  70.738  1.00  0.00    -0.171 A  
HETATM    7  C   UNL     1     -11.863  11.649  69.968  1.00  0.00    -0.435 A  
HETATM    8  C   UNL     1     -10.951   9.386  70.247  1.00  0.00    -0.305 A  
HETATM    9  C   UNL     1     -10.849  10.693  69.756  1.00  0.00    -0.317 A  
ENDROOT
BRANCH   7  10
HETATM   10  C   UNL     1     -11.792  13.006  69.369  1.00  0.00    -0.380 A  
HETATM   11  C   UNL     1     -11.874  14.169  70.155  1.00  0.00    -0.382 A  
HETATM   12  C   UNL     1     -11.870  15.447  69.579  1.00  0.00    -0.370 A  
HETATM   13  C   UNL     1     -11.765  15.590  68.200  1.00  0.00    -0.241 A  
HETATM   14  C   UNL     1     -11.661  14.459  67.399  1.00  0.00    -0.424 A  
HETATM   15  C   UNL     1     -11.680  13.185  67.976  1.00  0.00    -0.394 A  
ENDBRANCH   7  10
TORSDOF 1
ENDMDL
MODEL       58
REMARK 921   NORMALIZED FREE ENERGY PREDICTED BY IDOCK:   -4.58 KCAL/MOL
REMARK 922        TOTAL FREE ENERGY PREDICTED BY IDOCK:   -5.17 KCAL/MOL
REMARK 923 INTER-LIGAND FREE ENERGY PREDICTED BY IDOCK:   -4.84 KCAL/MOL
REMARK 924 INTRA-LIGAND FREE ENERGY PREDICTED BY IDOCK:   -0.32 KCAL/MOL
REMARK 927      BINDING AFFINITY PREDICTED BY RF-SCORE:    0.00 PKD
ROOT
HETATM    1  O   UNL     1      -7.922  19.159  68.552  1.00  0.00    -0.324 OA 
HETATM    2  N   UNL     1      -7.591  17.966  68.597  1.00  0.00    -0.281 N  
HETATM    3  O   UNL     1      -6.714  17.508  69.345  1.00  0.00    -0.246 OA 
HETATM    4  C   UNL     1      -8.290  17.028  67.711  1.00  0.00    -0.196 A  
HETATM    5  C   UNL     1      -9.289  17.496  66.854  1.00  0.00    -0.275 A  
HETATM    6  C   UNL     1      -9.989  16.587  66.049  1.00  0.00    -0.359 A  
HETATM    7  C   UNL     1      -9.708  15.206  66.070  1.00  0.00    -0.361 A  
HETATM    8  C   UNL     1      -7.967  15.668  67.739  1.00  0.00    -0.157 A  
HETATM    9  C   UNL     1      -8.668  14.776  66.918  1.00  0.00    -0.264 A  
ENDROOT
BRANCH   7  10
HETATM   10  C   UNL     1     -10.508  14.245  65.269  1.00  0.00    -0.408 A  
HETATM   11  C   UNL     1     -11.592  14.662  64.475  1.00  0.00    -0.377 A  
HETATM   12  C   UNL     1     -12.381  13.743  63.770  1.00  0.00    -0.313 A  
HETATM   13  C   UNL     1     -12.092  12.384  63.829  1.00  0.00    -0.618 A  
HETATM   14  C   UNL     1     -11.014  11.945  64.588  1.00  0.00    -0.370 A  
HETATM   15  C   UNL     1     -10.237  12.863  65.302  1.00  0.00    -0.294 A  
ENDBRANCH   7  10
TORSDOF 1
ENDMDL
MODEL       59
REMARK 921   NORMALIZED FREE ENERGY PREDICTED BY IDOCK:   -4.52 KCAL/MOL
REMARK 922        TOTAL FREE ENERGY PREDICTED BY IDOCK:   -5.11 KCAL/MOL
REMARK 923 INTER-LIGAND FREE ENERGY PREDICTED BY IDOCK:   -4.80 KCAL/MOL
REMARK 924 INTRA-LIGAND FREE ENERGY PREDICTED BY IDOCK:   -0.31 KCAL/MOL
REMARK 927      BINDING AFFINITY PREDICTED BY RF-SCORE:    0.00 PKD
ROOT
HETATM    1  O   UNL     1      -7.532  18.557  66.902  1.00  0.00    -0.209 OA 
HETATM    2  N   UNL     1      -7.378  17.420  67.369  1.00  0.00    -0.165 N  
HETATM    3  O   UNL     1      -6.364  16.725  67.207  1.00  0.00    -0.145 OA 
HETATM    4  C   UNL     1      -8.466  16.862  68.179  1.00  0.00    -0.217 A  
HETATM    5  C   UNL     1      -9.626  17.610  68.396  1.00  0.00    -0.310 A  
HETATM    6  C   UNL     1     -10.639  17.091  69.214  1.00  0.00    -0.276 A  
HETATM    7  C   UNL     1     -10.528  15.825  69.823  1.00  0.00    -0.318 A  
HETATM    8  C   UNL     1      -8.333  15.591  68.747  1.00  0.00    -0.187 A  
HETATM    9  C   UNL     1      -9.361  15.083  69.551  1.00  0.00    -0.070 A  
ENDROOT
BRANCH   7  10
HETATM   10  C   UNL     1     -11.574  15.321  70.748  1.00  0.00    -0.371 A  
HETATM   11  C   UNL     1     -12.060  14.003  70.671  1.00  0.00    -0.424 A  
HETATM   12  C   UNL     1     -13.092  13.551  71.505  1.00  0.00    -0.427 A  
HETATM   13  C   UNL     1     -13.650  14.405  72.450  1.00  0.00    -0.578 A  
HETATM   14  C   UNL     1     -13.176  15.706  72.564  1.00  0.00    -0.583 A  
HETATM   15  C   UNL     1     -12.156  16.158  71.720  1.00  0.00    -0.517 A  
ENDBRANCH   7  10
TORSDOF 1
ENDMDL
MODEL       60
REMARK 921   NORMALIZED FREE ENERGY PREDICTED BY IDOCK:   -4.51 KCAL/MOL
REMARK 922        TOTAL FREE ENERGY PREDICTED BY IDOCK:   -5.10 KCAL/MOL
REMARK 923 INTER-LIGAND FREE ENERGY PREDICTED BY IDOCK:   -4.78 KCAL/MOL
REMARK 924 INTRA-LIGAND FREE ENERGY PREDICTED BY IDOCK:   -0.32 KCAL/MOL
REMARK 927      BINDING AFFINITY PREDICTED BY RF-SCORE:    0.00 PKD
ROOT
HETATM    1  O   UNL     1      -8.888   7.299  66.793  1.00  0.00    -0.123 OA 
HETATM    2  N   UNL     1      -9.339   7.138  67.935  1.00  0.00    -0.129 N  
HETATM    3  O   UNL     1      -9.197   6.105  68.607  1.00  0.00    -0.124 OA 
HETATM    4  C   UNL     1     -10.084   8.249  68.539  1.00  0.00    -0.197 A  
HETATM    5  C   UNL     1     -10.264   9.434  67.822  1.00  0.00    -0.273 A  
HETATM    6  C   UNL     1     -10.931  10.510  68.425  1.00  0.00    -0.310 A  
HETATM    7  C   UNL     1     -11.437  10.429  69.739  1.00  0.00    -0.348 A  
HETATM    8  C   UNL     1     -10.595   8.124  69.834  1.00  0.00    -0.239 A  
HETATM    9  C   UNL     1     -11.270   9.205  70.415  1.00  0.00    -0.279 A  
ENDROOT
BRANCH   7  10
HETATM   10  C   UNL     1     -12.074  11.601  70.392  1.00  0.00    -0.462 A  
HETATM   11  C   UNL     1     -11.822  12.917  69.965  1.00  0.00    -0.356 A  
HETATM   12  C   UNL     1     -12.377  14.022  70.624  1.00  0.00    -0.446 A  
HETATM   13  C   UNL     1     -13.214  13.833  71.719  1.00  0.00    -0.467 A  
HETATM   14  C   UNL     1     -13.498  12.543  72.151  1.00  0.00    -0.523 A  
HETATM   15  C   UNL     1     -12.931  11.443  71.499  1.00  0.00    -0.505 A  
ENDBRANCH   7  10
TORSDOF 1
ENDMDL
MODEL       61
REMARK 921   NORMALIZED FREE ENERGY PREDICTED BY IDOCK:   -4.44 KCAL/MOL
REMARK 922        TOTAL FREE ENERGY PREDICTED BY IDOCK:   -5.02 KCAL/MOL
REMARK 923 INTER-LIGAND FREE ENERGY PREDICTED BY IDOCK:   -4.71 KCAL/MOL
REMARK 924 INTRA-LIGAND FREE ENERGY PREDICTED BY IDOCK:   -0.32 KCAL/MOL
REMARK 927      BINDING AFFINITY PREDICTED BY RF-SCORE:    0.00 PKD
ROOT
HETATM    1  O   UNL     1      -9.368   6.523  68.589  1.00  0.00    -0.127 OA 
HETATM    2  N   UNL     1      -8.953   6.917  67.491  1.00  0.00    -0.117 N  
HETATM    3  O   UNL     1      -8.144   6.298  66.782  1.00  0.00    -0.107 OA 
HETATM    4  C   UNL     1      -9.460   8.198  66.988  1.00  0.00    -0.177 A  
HETATM    5  C   UNL     1     -10.377   8.929  67.748  1.00  0.00    -0.301 A  
HETATM    6  C   UNL     1     -10.897  10.126  67.238  1.00  0.00    -0.295 A  
HETATM    7  C   UNL     1     -10.514  10.625  65.976  1.00  0.00    -0.250 A  
HETATM    8  C   UNL     1      -9.038   8.677  65.744  1.00  0.00    -0.242 A  
HETATM    9  C   UNL     1      -9.559   9.882  65.256  1.00  0.00    -0.361 A  
ENDROOT
BRANCH   7  10
HETATM   10  C   UNL     1     -11.130  11.855  65.415  1.00  0.00    -0.360 A  
HETATM   11  C   UNL     1     -11.614  12.885  66.241  1.00  0.00    -0.424 A  
HETATM   12  C   UNL     1     -12.250  14.015  65.708  1.00  0.00    -0.475 A  
HETATM   13  C   UNL     1     -12.400  14.148  64.332  1.00  0.00    -0.410 A  
HETATM   14  C   UNL     1     -11.912  13.156  63.490  1.00  0.00    -0.580 A  
HETATM   15  C   UNL     1     -11.291  12.023  64.026  1.00  0.00    -0.478 A  
ENDBRANCH   7  10
TORSDOF 1
ENDMDL
MODEL       62
REMARK 921   NORMALIZED FREE ENERGY PREDICTED BY IDOCK:   -4.44 KCAL/MOL
REMARK 922        TOTAL FREE ENERGY PREDICTED BY IDOCK:   -5.02 KCAL/MOL
REMARK 923 INTER-LIGAND FREE ENERGY PREDICTED BY IDOCK:   -4.70 KCAL/MOL
REMARK 924 INTRA-LIGAND FREE ENERGY PREDICTED BY IDOCK:   -0.32 KCAL/MOL
REMARK 927      BINDING AFFINITY PREDICTED BY RF-SCORE:    0.00 PKD
ROOT
HETATM    1  O   UNL     1      -7.577  19.290  65.357  1.00  0.00    -0.403 OA 
HETATM    2  N   UNL     1      -8.197  19.564  66.394  1.00  0.00    -0.319 N  
HETATM    3  O   UNL     1      -8.338  20.711  66.845  1.00  0.00    -0.240 OA 
HETATM    4  C   UNL     1      -8.815  18.458  67.134  1.00  0.00    -0.264 A  
HETATM    5  C   UNL     1      -8.688  17.150  66.661  1.00  0.00    -0.281 A  
HETATM    6  C   UNL     1      -9.325  16.105  67.345  1.00  0.00    -0.220 A  
HETATM    7  C   UNL     1     -10.088  16.333  68.508  1.00  0.00    -0.239 A  
HETATM    8  C   UNL     1      -9.542  18.718  68.299  1.00  0.00    -0.395 A  
HETATM    9  C   UNL     1     -10.161  17.660  68.976  1.00  0.00    -0.314 A  
ENDROOT
BRANCH   7  10
HETATM   10  C   UNL     1     -10.820  15.229  69.178  1.00  0.00    -0.250 A  
HETATM   11  C   UNL     1     -10.887  13.938  68.623  1.00  0.00    -0.278 A  
HETATM   12  C   UNL     1     -11.631  12.916  69.228  1.00  0.00    -0.368 A  
HETATM   13  C   UNL     1     -12.312  13.158  70.416  1.00  0.00    -0.351 A  
HETATM   14  C   UNL     1     -12.247  14.418  70.999  1.00  0.00    -0.422 A  
HETATM   15  C   UNL     1     -11.515  15.439  70.385  1.00  0.00    -0.355 A  
ENDBRANCH   7  10
TORSDOF 1
ENDMDL
MODEL       63
REMARK 921   NORMALIZED FREE ENERGY PREDICTED BY IDOCK:   -4.42 KCAL/MOL
REMARK 922        TOTAL FREE ENERGY PREDICTED BY IDOCK:   -5.00 KCAL/MOL
REMARK 923 INTER-LIGAND FREE ENERGY PREDICTED BY IDOCK:   -4.68 KCAL/MOL
REMARK 924 INTRA-LIGAND FREE ENERGY PREDICTED BY IDOCK:   -0.32 KCAL/MOL
REMARK 927      BINDING AFFINITY PREDICTED BY RF-SCORE:    0.00 PKD
ROOT
HETATM    1  O   UNL     1     -10.558   3.876  72.506  1.00  0.00    -0.147 OA 
HETATM    2  N   UNL     1     -10.692   4.941  73.125  1.00  0.00    -0.229 N  
HETATM    3  O   UNL     1     -10.666   5.042  74.361  1.00  0.00    -0.328 OA 
HETATM    4  C   UNL     1     -10.888   6.167  72.343  1.00  0.00    -0.243 A  
HETATM    5  C   UNL     1     -10.919   6.103  70.948  1.00  0.00    -0.359 A  
HETATM    6  C   UNL     1     -11.053   7.285  70.207  1.00  0.00    -0.289 A  
HETATM    7  C   UNL     1     -11.166   8.545  70.829  1.00  0.00    -0.289 A  
HETATM    8  C   UNL     1     -11.024   7.396  72.995  1.00  0.00    -0.422 A  
HETATM    9  C   UNL     1     -11.169   8.565  72.238  1.00  0.00    -0.432 A  
ENDROOT
BRANCH   7  10
HETATM   10  C   UNL     1     -11.231   9.795  70.031  1.00  0.00    -0.297 A  
HETATM   11  C   UNL     1     -10.617   9.904  68.770  1.00  0.00    -0.246 A  
HETATM   12  C   UNL     1     -10.628  11.105  68.049  1.00  0.00    -0.233 A  
HETATM   13  C   UNL     1     -11.272  12.224  68.567  1.00  0.00    -0.316 A  
HETATM   14  C   UNL     1     -11.905  12.141  69.801  1.00  0.00    -0.397 A  
HETATM   15  C   UNL     1     -11.880  10.944  70.524  1.00  0.00    -0.457 A  
ENDBRANCH   7  10
TORSDOF 1
ENDMDL
MODEL       64
REMARK 921   NORMALIZED FREE ENERGY PREDICTED BY IDOCK:   -4.42 KCAL/MOL
REMARK 922        TOTAL FREE ENERGY PREDICTED BY IDOCK:   -5.00 KCAL/MOL
REMARK 923 INTER-LIGAND FREE ENERGY PREDICTED BY IDOCK:   -4.68 KCAL/MOL
REMARK 924 INTRA-LIGAND FREE ENERGY PREDICTED BY IDOCK:   -0.32 KCAL/MOL
REMARK 927      BINDING AFFINITY PREDICTED BY RF-SCORE:    0.00 PKD
ROOT
HETATM    1  O   UNL     1     -10.148   2.822  72.754  1.00  0.00    -0.132 OA 
HETATM    2  N   UNL     1     -10.002   3.373  71.654  1.00  0.00    -0.148 N  
HETATM    3  O   UNL     1      -9.560   2.812  70.640  1.00  0.00    -0.153 OA 
HETATM    4  C   UNL     1     -10.385   4.785  71.541  1.00  0.00    -0.133 A  
HETATM    5  C   UNL     1     -10.893   5.458  72.655  1.00  0.00    -0.307 A  
HETATM    6  C   UNL     1     -11.306   6.791  72.525  1.00  0.00    -0.292 A  
HETATM    7  C   UNL     1     -11.218   7.482  71.299  1.00  0.00    -0.274 A  
HETATM    8  C   UNL     1     -10.259   5.446  70.316  1.00  0.00    -0.338 A  
HETATM    9  C   UNL     1     -10.665   6.782  70.208  1.00  0.00    -0.284 A  
ENDROOT
BRANCH   7  10
HETATM   10  C   UNL     1     -11.730   8.868  71.158  1.00  0.00    -0.356 A  
HETATM   11  C   UNL     1     -11.245   9.741  70.167  1.00  0.00    -0.324 A  
HETATM   12  C   UNL     1     -11.687  11.068  70.078  1.00  0.00    -0.437 A  
HETATM   13  C   UNL     1     -12.640  11.548  70.969  1.00  0.00    -0.457 A  
HETATM   14  C   UNL     1     -13.153  10.703  71.946  1.00  0.00    -0.563 A  
HETATM   15  C   UNL     1     -12.699   9.383  72.041  1.00  0.00    -0.483 A  
ENDBRANCH   7  10
TORSDOF 1
ENDMDL
MODEL       65
REMARK 921   NORMALIZED FREE ENERGY PREDICTED BY IDOCK:   -4.40 KCAL/MOL
REMARK 922        TOTAL FREE ENERGY PREDICTED BY IDOCK:   -4.98 KCAL/MOL
REMARK 923 INTER-LIGAND FREE ENERGY PREDICTED BY IDOCK:   -4.66 KCAL/MOL
REMARK 924 INTRA-LIGAND FREE ENERGY PREDICTED BY IDOCK:   -0.33 KCAL/MOL
REMARK 927      BINDING AFFINITY PREDICTED BY RF-SCORE:    0.00 PKD
ROOT
HETATM    1  O   UNL     1      -8.226   6.625  68.136  1.00  0.00    -0.113 OA 
HETATM    2  N   UNL     1      -8.904   7.425  68.796  1.00  0.00    -0.131 N  
HETATM    3  O   UNL     1      -9.057   7.367  70.026  1.00  0.00    -0.148 OA 
HETATM    4  C   UNL     1      -9.565   8.519  68.077  1.00  0.00    -0.149 A  
HETATM    5  C   UNL     1      -9.417   8.628  66.692  1.00  0.00    -0.267 A  
HETATM    6  C   UNL     1     -10.007   9.707  66.018  1.00  0.00    -0.344 A  
HETATM    7  C   UNL     1     -10.758  10.688  66.698  1.00  0.00    -0.246 A  
HETATM    8  C   UNL     1     -10.324   9.459  68.780  1.00  0.00    -0.230 A  
HETATM    9  C   UNL     1     -10.917  10.523  68.088  1.00  0.00    -0.330 A  
ENDROOT
BRANCH   7  10
HETATM   10  C   UNL     1     -11.313  11.865  65.983  1.00  0.00    -0.375 A  
HETATM   11  C   UNL     1     -11.268  11.972  64.582  1.00  0.00    -0.380 A  
HETATM   12  C   UNL     1     -11.736  13.113  63.917  1.00  0.00    -0.515 A  
HETATM   13  C   UNL     1     -12.280  14.169  64.641  1.00  0.00    -0.465 A  
HETATM   14  C   UNL     1     -12.358  14.083  66.026  1.00  0.00    -0.504 A  
HETATM   15  C   UNL     1     -11.876  12.948  66.687  1.00  0.00    -0.461 A  
ENDBRANCH   7  10
TORSDOF 1
ENDMDL
MODEL       66
REMARK 921   NORMALIZED FREE ENERGY PREDICTED BY IDOCK:   -4.32 KCAL/MOL
REMARK 922        TOTAL FREE ENERGY PREDICTED BY IDOCK:   -4.89 KCAL/MOL
REMARK 923 INTER-LIGAND FREE ENERGY PREDICTED BY IDOCK:   -4.60 KCAL/MOL
REMARK 924 INTRA-LIGAND FREE ENERGY PREDICTED BY IDOCK:   -0.29 KCAL/MOL
REMARK 927      BINDING AFFINITY PREDICTED BY RF-SCORE:    0.00 PKD
ROOT
HETATM    1  O   UNL     1     -10.619  10.783  66.296  1.00  0.00    -0.246 OA 
HETATM    2  N   UNL     1     -11.244  11.071  67.325  1.00  0.00    -0.300 N  
HETATM    3  O   UNL     1     -12.105  11.961  67.399  1.00  0.00    -0.577 OA 
HETATM    4  C   UNL     1     -10.953  10.301  68.540  1.00  0.00    -0.247 A  
HETATM    5  C   UNL     1      -9.994   9.286  68.505  1.00  0.00    -0.193 A  
HETATM    6  C   UNL     1      -9.759   8.520  69.655  1.00  0.00    -0.179 A  
HETATM    7  C   UNL     1     -10.459   8.749  70.858  1.00  0.00    -0.278 A  
HETATM    8  C   UNL     1     -11.647  10.574  69.723  1.00  0.00    -0.368 A  
HETATM    9  C   UNL     1     -11.389   9.807  70.866  1.00  0.00    -0.439 A  
ENDROOT
BRANCH   7  10
HETATM   10  C   UNL     1     -10.254   7.881  72.045  1.00  0.00    -0.270 A  
HETATM   11  C   UNL     1     -11.034   6.731  72.268  1.00  0.00    -0.276 A  
HETATM   12  C   UNL     1     -10.879   5.952  73.421  1.00  0.00    -0.275 A  
HETATM   13  C   UNL     1      -9.925   6.295  74.373  1.00  0.00    -0.346 A  
HETATM   14  C   UNL     1      -9.125   7.413  74.171  1.00  0.00    -0.267 A  
HETATM   15  C   UNL     1      -9.292   8.198  73.024  1.00  0.00    -0.335 A  
ENDBRANCH   7  10
TORSDOF 1
ENDMDL
MODEL       67
REMARK 921   NORMALIZED FREE ENERGY PREDICTED BY IDOCK:   -4.27 KCAL/MOL
REMARK 922        TOTAL FREE ENERGY PREDICTED BY IDOCK:   -4.84 KCAL/MOL
REMARK 923 INTER-LIGAND FREE ENERGY PREDICTED BY IDOCK:   -4.52 KCAL/MOL
REMARK 924 INTRA-LIGAND FREE ENERGY PREDICTED BY IDOCK:   -0.32 KCAL/MOL
REMARK 927      BINDING AFFINITY PREDICTED BY RF-SCORE:    0.00 PKD
ROOT
HETATM    1  O   UNL     1     -10.087   9.051  71.810  1.00  0.00    -0.326 OA 
HETATM    2  N   UNL     1     -10.967   9.704  71.232  1.00  0.00    -0.359 N  
HETATM    3  O   UNL     1     -11.956  10.200  71.792  1.00  0.00    -0.319 OA 
HETATM    4  C   UNL     1     -10.825   9.912  69.786  1.00  0.00    -0.269 A  
HETATM    5  C   UNL     1      -9.725   9.377  69.113  1.00  0.00    -0.165 A  
HETATM    6  C   UNL     1      -9.569   9.625  67.742  1.00  0.00    -0.161 A  
HETATM    7  C   UNL     1     -10.498  10.395  67.014  1.00  0.00    -0.309 A  
HETATM    8  C   UNL     1     -11.781  10.659  69.092  1.00  0.00    -0.324 A  
HETATM    9  C   UNL     1     -11.615  10.886  67.719  1.00  0.00    -0.231 A  
ENDROOT
BRANCH   7  10
HETATM   10  C   UNL     1     -10.281  10.713  65.580  1.00  0.00    -0.319 A  
HETATM   11  C   UNL     1     -10.952  11.773  64.944  1.00  0.00    -0.358 A  
HETATM   12  C   UNL     1     -10.791  12.029  63.576  1.00  0.00    -0.509 A  
HETATM   13  C   UNL     1      -9.936  11.239  62.815  1.00  0.00    -0.197 A  
HETATM   14  C   UNL     1      -9.242  10.198  63.420  1.00  0.00    -0.324 A  
HETATM   15  C   UNL     1      -9.418   9.937  64.783  1.00  0.00    -0.356 A  
ENDBRANCH   7  10
TORSDOF 1
ENDMDL
MODEL       68
REMARK 921   NORMALIZED FREE ENERGY PREDICTED BY IDOCK:   -4.26 KCAL/MOL
REMARK 922        TOTAL FREE ENERGY PREDICTED BY IDOCK:   -4.84 KCAL/MOL
REMARK 923 INTER-LIGAND FREE ENERGY PREDICTED BY IDOCK:   -4.52 KCAL/MOL
REMARK 924 INTRA-LIGAND FREE ENERGY PREDICTED BY IDOCK:   -0.32 KCAL/MOL
REMARK 927      BINDING AFFINITY PREDICTED BY RF-SCORE:    0.00 PKD
ROOT
HETATM    1  O   UNL     1      -9.251   4.114  69.729  1.00  0.00    -0.112 OA 
HETATM    2  N   UNL     1      -9.976   4.442  70.678  1.00  0.00    -0.208 N  
HETATM    3  O   UNL     1     -10.273   3.698  71.625  1.00  0.00    -0.112 OA 
HETATM    4  C   UNL     1     -10.513   5.807  70.688  1.00  0.00    -0.264 A  
HETATM    5  C   UNL     1     -10.202   6.684  69.646  1.00  0.00    -0.213 A  
HETATM    6  C   UNL     1     -10.675   8.002  69.689  1.00  0.00    -0.207 A  
HETATM    7  C   UNL     1     -11.469   8.474  70.755  1.00  0.00    -0.281 A  
HETATM    8  C   UNL     1     -11.320   6.233  71.748  1.00  0.00    -0.346 A  
HETATM    9  C   UNL     1     -11.794   7.550  71.768  1.00  0.00    -0.327 A  
ENDROOT
BRANCH   7  10
HETATM   10  C   UNL     1     -11.900   9.893  70.826  1.00  0.00    -0.415 A  
HETATM   11  C   UNL     1     -11.464  10.849  69.891  1.00  0.00    -0.402 A  
HETATM   12  C   UNL     1     -11.823  12.199  69.999  1.00  0.00    -0.383 A  
HETATM   13  C   UNL     1     -12.645  12.621  71.038  1.00  0.00    -0.354 A  
HETATM   14  C   UNL     1     -13.109  11.696  71.965  1.00  0.00    -0.433 A  
HETATM   15  C   UNL     1     -12.736  10.351  71.862  1.00  0.00    -0.459 A  
ENDBRANCH   7  10
TORSDOF 1
ENDMDL
MODEL       69
REMARK 921   NORMALIZED FREE ENERGY PREDICTED BY IDOCK:   -4.26 KCAL/MOL
REMARK 922        TOTAL FREE ENERGY PREDICTED BY IDOCK:   -4.84 KCAL/MOL
REMARK 923 INTER-LIGAND FREE ENERGY PREDICTED BY IDOCK:   -4.51 KCAL/MOL
REMARK 924 INTRA-LIGAND FREE ENERGY PREDICTED BY IDOCK:   -0.32 KCAL/MOL
REMARK 927      BINDING AFFINITY PREDICTED BY RF-SCORE:    0.00 PKD
ROOT
HETATM    1  O   UNL     1      -6.676   6.983  63.652  1.00  0.00    -0.042 OA 
HETATM    2  N   UNL     1      -7.324   7.170  64.691  1.00  0.00    -0.073 N  
HETATM    3  O   UNL     1      -7.212   6.490  65.722  1.00  0.00    -0.067 OA 
HETATM    4  C   UNL     1      -8.285   8.279  64.706  1.00  0.00    -0.144 A  
HETATM    5  C   UNL     1      -8.443   9.077  63.571  1.00  0.00    -0.173 A  
HETATM    6  C   UNL     1      -9.324  10.166  63.610  1.00  0.00    -0.336 A  
HETATM    7  C   UNL     1     -10.068  10.480  64.766  1.00  0.00    -0.406 A  
HETATM    8  C   UNL     1      -9.027   8.544  65.861  1.00  0.00    -0.235 A  
HETATM    9  C   UNL     1      -9.912   9.630  65.878  1.00  0.00    -0.351 A  
ENDROOT
BRANCH   7  10
HETATM   10  C   UNL     1     -10.940  11.680  64.819  1.00  0.00    -0.351 A  
HETATM   11  C   UNL     1     -11.361  12.344  63.652  1.00  0.00    -0.556 A  
HETATM   12  C   UNL     1     -12.132  13.513  63.710  1.00  0.00    -0.482 A  
HETATM   13  C   UNL     1     -12.515  14.036  64.940  1.00  0.00    -0.419 A  
HETATM   14  C   UNL     1     -12.132  13.390  66.109  1.00  0.00    -0.481 A  
HETATM   15  C   UNL     1     -11.350  12.232  66.048  1.00  0.00    -0.398 A  
ENDBRANCH   7  10
TORSDOF 1
ENDMDL
MODEL       70
REMARK 921   NORMALIZED FREE ENERGY PREDICTED BY IDOCK:   -4.25 KCAL/MOL
REMARK 922        TOTAL FREE ENERGY PREDICTED BY IDOCK:   -4.83 KCAL/MOL
REMARK 923 INTER-LIGAND FREE ENERGY PREDICTED BY IDOCK:   -4.53 KCAL/MOL
REMARK 924 INTRA-LIGAND FREE ENERGY PREDICTED BY IDOCK:   -0.30 KCAL/MOL
REMARK 927      BINDING AFFINITY PREDICTED BY RF-SCORE:    0.00 PKD
ROOT
HETATM    1  O   UNL     1      -9.136  10.137  66.954  1.00  0.00    -0.141 OA 
HETATM    2  N   UNL     1     -10.204  10.665  67.293  1.00  0.00    -0.198 N  
HETATM    3  O   UNL     1     -11.192  10.045  67.714  1.00  0.00    -0.256 OA 
HETATM    4  C   UNL     1     -10.305  12.126  67.197  1.00  0.00    -0.214 A  
HETATM    5  C   UNL     1      -9.216  12.868  66.733  1.00  0.00    -0.230 A  
HETATM    6  C   UNL     1      -9.302  14.267  66.695  1.00  0.00    -0.302 A  
HETATM    7  C   UNL     1     -10.463  14.953  67.105  1.00  0.00    -0.271 A  
HETATM    8  C   UNL     1     -11.482  12.771  67.587  1.00  0.00    -0.387 A  
HETATM    9  C   UNL     1     -11.554  14.169  67.530  1.00  0.00    -0.396 A  
ENDROOT
BRANCH   7  10
HETATM   10  C   UNL     1     -10.513  16.437  67.130  1.00  0.00    -0.297 A  
HETATM   11  C   UNL     1     -10.616  17.197  65.951  1.00  0.00    -0.219 A  
HETATM   12  C   UNL     1     -10.599  18.598  65.977  1.00  0.00    -0.410 A  
HETATM   13  C   UNL     1     -10.497  19.272  67.189  1.00  0.00    -0.560 A  
HETATM   14  C   UNL     1     -10.415  18.549  68.372  1.00  0.00    -0.272 A  
HETATM   15  C   UNL     1     -10.417  17.150  68.341  1.00  0.00    -0.376 A  
ENDBRANCH   7  10
TORSDOF 1
ENDMDL
MODEL       71
REMARK 921   NORMALIZED FREE ENERGY PREDICTED BY IDOCK:   -4.25 KCAL/MOL
REMARK 922        TOTAL FREE ENERGY PREDICTED BY IDOCK:   -4.82 KCAL/MOL
REMARK 923 INTER-LIGAND FREE ENERGY PREDICTED BY IDOCK:   -4.51 KCAL/MOL
REMARK 924 INTRA-LIGAND FREE ENERGY PREDICTED BY IDOCK:   -0.32 KCAL/MOL
REMARK 927      BINDING AFFINITY PREDICTED BY RF-SCORE:    0.00 PKD
ROOT
HETATM    1  O   UNL     1     -10.708   4.474  72.636  1.00  0.00    -0.200 OA 
HETATM    2  N   UNL     1     -10.645   5.626  73.088  1.00  0.00    -0.229 N  
HETATM    3  O   UNL     1     -10.404   5.903  74.272  1.00  0.00    -0.272 OA 
HETATM    4  C   UNL     1     -10.860   6.738  72.156  1.00  0.00    -0.227 A  
HETATM    5  C   UNL     1     -11.130   6.475  70.811  1.00  0.00    -0.354 A  
HETATM    6  C   UNL     1     -11.282   7.544  69.917  1.00  0.00    -0.124 A  
HETATM    7  C   UNL     1     -11.181   8.886  70.337  1.00  0.00    -0.259 A  
HETATM    8  C   UNL     1     -10.779   8.057  72.613  1.00  0.00    -0.426 A  
HETATM    9  C   UNL     1     -10.947   9.112  71.707  1.00  0.00    -0.429 A  
ENDROOT
BRANCH   7  10
HETATM   10  C   UNL     1     -11.269  10.005  69.365  1.00  0.00    -0.235 A  
HETATM   11  C   UNL     1     -11.870  11.232  69.699  1.00  0.00    -0.430 A  
HETATM   12  C   UNL     1     -12.007  12.263  68.760  1.00  0.00    -0.281 A  
HETATM   13  C   UNL     1     -11.526  12.095  67.465  1.00  0.00    -0.410 A  
HETATM   14  C   UNL     1     -10.908  10.902  67.112  1.00  0.00    -0.337 A  
HETATM   15  C   UNL     1     -10.787   9.870  68.049  1.00  0.00    -0.294 A  
ENDBRANCH   7  10
TORSDOF 1
ENDMDL
MODEL       72
REMARK 921   NORMALIZED FREE ENERGY PREDICTED BY IDOCK:   -4.23 KCAL/MOL
REMARK 922        TOTAL FREE ENERGY PREDICTED BY IDOCK:   -4.80 KCAL/MOL
REMARK 923 INTER-LIGAND FREE ENERGY PREDICTED BY IDOCK:   -4.49 KCAL/MOL
REMARK 924 INTRA-LIGAND FREE ENERGY PREDICTED BY IDOCK:   -0.31 KCAL/MOL
REMARK 927      BINDING AFFINITY PREDICTED BY RF-SCORE:    0.00 PKD
ROOT
HETATM    1  O   UNL     1      -8.079  19.563  68.850  1.00  0.00    -0.355 OA 
HETATM    2  N   UNL     1      -9.238  19.191  68.620  1.00  0.00    -0.370 N  
HETATM    3  O   UNL     1     -10.210  19.952  68.503  1.00  0.00    -0.442 OA 
HETATM    4  C   UNL     1      -9.477  17.751  68.468  1.00  0.00    -0.304 A  
HETATM    5  C   UNL     1      -8.412  16.855  68.586  1.00  0.00    -0.260 A  
HETATM    6  C   UNL     1      -8.638  15.486  68.387  1.00  0.00    -0.168 A  
HETATM    7  C   UNL     1      -9.917  14.980  68.077  1.00  0.00    -0.219 A  
HETATM    8  C   UNL     1     -10.764  17.283  68.187  1.00  0.00    -0.363 A  
HETATM    9  C   UNL     1     -10.973  15.910  68.004  1.00  0.00    -0.336 A  
ENDROOT
BRANCH   7  10
HETATM   10  C   UNL     1     -10.127  13.538  67.794  1.00  0.00    -0.236 A  
HETATM   11  C   UNL     1      -9.272  12.816  66.942  1.00  0.00    -0.229 A  
HETATM   12  C   UNL     1      -9.512  11.471  66.629  1.00  0.00    -0.208 A  
HETATM   13  C   UNL     1     -10.605  10.811  67.178  1.00  0.00    -0.306 A  
HETATM   14  C   UNL     1     -11.456  11.492  68.041  1.00  0.00    -0.381 A  
HETATM   15  C   UNL     1     -11.222  12.838  68.339  1.00  0.00    -0.313 A  
ENDBRANCH   7  10
TORSDOF 1
ENDMDL
MODEL       73
REMARK 921   NORMALIZED FREE ENERGY PREDICTED BY IDOCK:   -4.22 KCAL/MOL
REMARK 922        TOTAL FREE ENERGY PREDICTED BY IDOCK:   -4.79 KCAL/MOL
REMARK 923 INTER-LIGAND FREE ENERGY PREDICTED BY IDOCK:   -4.50 KCAL/MOL
REMARK 924 INTRA-LIGAND FREE ENERGY PREDICTED BY IDOCK:   -0.30 KCAL/MOL
REMARK 927      BINDING AFFINITY PREDICTED BY RF-SCORE:    0.00 PKD
ROOT
HETATM    1  O   UNL     1      -8.639   2.477  68.044  1.00  0.00    -0.078 OA 
HETATM    2  N   UNL     1      -9.227   3.385  67.442  1.00  0.00    -0.181 N  
HETATM    3  O   UNL     1      -9.341   3.452  66.208  1.00  0.00    -0.167 OA 
HETATM    4  C   UNL     1      -9.841   4.451  68.242  1.00  0.00    -0.064 A  
HETATM    5  C   UNL     1      -9.744   4.416  69.635  1.00  0.00    -0.289 A  
HETATM    6  C   UNL     1     -10.377   5.408  70.396  1.00  0.00    -0.353 A  
HETATM    7  C   UNL     1     -11.107   6.454  69.794  1.00  0.00    -0.459 A  
HETATM    8  C   UNL     1     -10.534   5.487  67.611  1.00  0.00    -0.256 A  
HETATM    9  C   UNL     1     -11.150   6.478  68.387  1.00  0.00    -0.340 A  
ENDROOT
BRANCH   7  10
HETATM   10  C   UNL     1     -11.835   7.455  70.614  1.00  0.00    -0.245 A  
HETATM   11  C   UNL     1     -13.096   7.181  71.174  1.00  0.00    -0.294 A  
HETATM   12  C   UNL     1     -13.807   8.150  71.893  1.00  0.00    -0.424 A  
HETATM   13  C   UNL     1     -13.262   9.415  72.085  1.00  0.00    -0.541 A  
HETATM   14  C   UNL     1     -12.009   9.710  71.562  1.00  0.00    -0.485 A  
HETATM   15  C   UNL     1     -11.309   8.743  70.832  1.00  0.00    -0.322 A  
ENDBRANCH   7  10
TORSDOF 1
ENDMDL
MODEL       74
REMARK 921   NORMALIZED FREE ENERGY PREDICTED BY IDOCK:   -4.22 KCAL/MOL
REMARK 922        TOTAL FREE ENERGY PREDICTED BY IDOCK:   -4.79 KCAL/MOL
REMARK 923 INTER-LIGAND FREE ENERGY PREDICTED BY IDOCK:   -4.47 KCAL/MOL
REMARK 924 INTRA-LIGAND FREE ENERGY PREDICTED BY IDOCK:   -0.32 KCAL/MOL
REMARK 927      BINDING AFFINITY PREDICTED BY RF-SCORE:    0.00 PKD
ROOT
HETATM    1  O   UNL     1     -10.814  14.512  64.737  1.00  0.00    -0.399 OA 
HETATM    2  N   UNL     1     -11.225  13.956  65.765  1.00  0.00    -0.300 N  
HETATM    3  O   UNL     1     -11.939  14.500  66.620  1.00  0.00    -0.393 OA 
HETATM    4  C   UNL     1     -10.849  12.554  65.980  1.00  0.00    -0.276 A  
HETATM    5  C   UNL     1     -10.050  11.897  65.041  1.00  0.00    -0.297 A  
HETATM    6  C   UNL     1      -9.738  10.543  65.228  1.00  0.00    -0.328 A  
HETATM    7  C   UNL     1     -10.202   9.820  66.346  1.00  0.00    -0.288 A  
HETATM    8  C   UNL     1     -11.304  11.875  67.115  1.00  0.00    -0.393 A  
HETATM    9  C   UNL     1     -10.972  10.526  67.291  1.00  0.00    -0.325 A  
ENDROOT
BRANCH   7  10
HETATM   10  C   UNL     1      -9.928   8.368  66.492  1.00  0.00    -0.335 A  
HETATM   11  C   UNL     1      -8.775   7.772  65.949  1.00  0.00    -0.175 A  
HETATM   12  C   UNL     1      -8.553   6.391  66.035  1.00  0.00    -0.149 A  
HETATM   13  C   UNL     1      -9.472   5.576  66.685  1.00  0.00    -0.154 A  
HETATM   14  C   UNL     1     -10.610   6.139  67.251  1.00  0.00    -0.362 A  
HETATM   15  C   UNL     1     -10.836   7.516  67.150  1.00  0.00    -0.298 A  
ENDBRANCH   7  10
TORSDOF 1
ENDMDL
MODEL       75
REMARK 921   NORMALIZED FREE ENERGY PREDICTED BY IDOCK:   -4.22 KCAL/MOL
REMARK 922        TOTAL FREE ENERGY PREDICTED BY IDOCK:   -4.79 KCAL/MOL
REMARK 923 INTER-LIGAND FREE ENERGY PREDICTED BY IDOCK:   -4.48 KCAL/MOL
REMARK 924 INTRA-LIGAND FREE ENERGY PREDICTED BY IDOCK:   -0.31 KCAL/MOL
REMARK 927      BINDING AFFINITY PREDICTED BY RF-SCORE:    0.00 PKD
ROOT
HETATM    1  O   UNL     1     -13.069  12.471  64.670  1.00  0.00    -0.845 OA 
HETATM    2  N   UNL     1     -12.410  13.517  64.595  1.00  0.00    -0.386 N  
HETATM    3  O   UNL     1     -12.719  14.494  63.897  1.00  0.00    -0.782 OA 
HETATM    4  C   UNL     1     -11.182  13.610  65.394  1.00  0.00    -0.298 A  
HETATM    5  C   UNL     1     -10.796  12.536  66.200  1.00  0.00    -0.304 A  
HETATM    6  C   UNL     1      -9.651  12.652  67.000  1.00  0.00    -0.219 A  
HETATM    7  C   UNL     1      -8.867  13.823  67.011  1.00  0.00    -0.230 A  
HETATM    8  C   UNL     1     -10.414  14.777  65.360  1.00  0.00    -0.401 A  
HETATM    9  C   UNL     1      -9.266  14.870  66.157  1.00  0.00    -0.268 A  
ENDROOT
BRANCH   7  10
HETATM   10  C   UNL     1      -7.701  13.961  67.920  1.00  0.00    -0.161 A  
HETATM   11  C   UNL     1      -7.553  15.067  68.776  1.00  0.00    -0.137 A  
HETATM   12  C   UNL     1      -6.420  15.223  69.586  1.00  0.00    -0.162 A  
HETATM   13  C   UNL     1      -5.414  14.262  69.571  1.00  0.00    -0.091 A  
HETATM   14  C   UNL     1      -5.542  13.147  68.752  1.00  0.00    -0.073 A  
HETATM   15  C   UNL     1      -6.668  13.003  67.934  1.00  0.00    -0.129 A  
ENDBRANCH   7  10
TORSDOF 1
ENDMDL
MODEL       76
REMARK 921   NORMALIZED FREE ENERGY PREDICTED BY IDOCK:   -4.15 KCAL/MOL
REMARK 922        TOTAL FREE ENERGY PREDICTED BY IDOCK:   -4.71 KCAL/MOL
REMARK 923 INTER-LIGAND FREE ENERGY PREDICTED BY IDOCK:   -4.40 KCAL/MOL
REMARK 924 INTRA-LIGAND FREE ENERGY PREDICTED BY IDOCK:   -0.31 KCAL/MOL
REMARK 927      BINDING AFFINITY PREDICTED BY RF-SCORE:    0.00 PKD
ROOT
HETATM    1  O   UNL     1     -12.397  11.775  70.715  1.00  0.00    -0.374 OA 
HETATM    2  N   UNL     1     -12.804  10.817  71.386  1.00  0.00    -0.421 N  
HETATM    3  O   UNL     1     -13.736  10.876  72.202  1.00  0.00    -0.155 OA 
HETATM    4  C   UNL     1     -12.143   9.520  71.197  1.00  0.00    -0.347 A  
HETATM    5  C   UNL     1     -11.092   9.404  70.285  1.00  0.00    -0.299 A  
HETATM    6  C   UNL     1     -10.501   8.151  70.070  1.00  0.00    -0.231 A  
HETATM    7  C   UNL     1     -10.931   6.998  70.757  1.00  0.00    -0.285 A  
HETATM    8  C   UNL     1     -12.579   8.403  71.915  1.00  0.00    -0.389 A  
HETATM    9  C   UNL     1     -11.968   7.162  71.697  1.00  0.00    -0.353 A  
ENDROOT
BRANCH   7  10
HETATM   10  C   UNL     1     -10.348   5.664  70.465  1.00  0.00    -0.327 A  
HETATM   11  C   UNL     1     -10.007   5.273  69.158  1.00  0.00    -0.275 A  
HETATM   12  C   UNL     1      -9.515   3.991  68.880  1.00  0.00    -0.237 A  
HETATM   13  C   UNL     1      -9.335   3.074  69.909  1.00  0.00    -0.221 A  
HETATM   14  C   UNL     1      -9.643   3.439  71.214  1.00  0.00    -0.232 A  
HETATM   15  C   UNL     1     -10.147   4.715  71.486  1.00  0.00    -0.255 A  
ENDBRANCH   7  10
TORSDOF 1
ENDMDL
MODEL       77
REMARK 921   NORMALIZED FREE ENERGY PREDICTED BY IDOCK:   -4.14 KCAL/MOL
REMARK 922        TOTAL FREE ENERGY PREDICTED BY IDOCK:   -4.71 KCAL/MOL
REMARK 923 INTER-LIGAND FREE ENERGY PREDICTED BY IDOCK:   -4.41 KCAL/MOL
REMARK 924 INTRA-LIGAND FREE ENERGY PREDICTED BY IDOCK:   -0.30 KCAL/MOL
REMARK 927      BINDING AFFINITY PREDICTED BY RF-SCORE:    0.00 PKD
ROOT
HETATM    1  O   UNL     1     -10.819  12.034  66.124  1.00  0.00    -0.264 OA 
HETATM    2  N   UNL     1     -10.505  10.836  66.123  1.00  0.00    -0.239 N  
HETATM    3  O   UNL     1     -10.104  10.216  65.126  1.00  0.00    -0.326 OA 
HETATM    4  C   UNL     1     -10.605  10.102  67.389  1.00  0.00    -0.272 A  
HETATM    5  C   UNL     1     -11.047  10.759  68.540  1.00  0.00    -0.317 A  
HETATM    6  C   UNL     1     -11.090  10.066  69.757  1.00  0.00    -0.319 A  
HETATM    7  C   UNL     1     -10.707   8.712  69.856  1.00  0.00    -0.227 A  
HETATM    8  C   UNL     1     -10.243   8.753  67.445  1.00  0.00    -0.318 A  
HETATM    9  C   UNL     1     -10.305   8.072  68.667  1.00  0.00    -0.224 A  
ENDROOT
BRANCH   7  10
HETATM   10  C   UNL     1     -10.685   8.012  71.165  1.00  0.00    -0.250 A  
HETATM   11  C   UNL     1      -9.789   8.375  72.187  1.00  0.00    -0.372 A  
HETATM   12  C   UNL     1      -9.731   7.670  73.396  1.00  0.00    -0.363 A  
HETATM   13  C   UNL     1     -10.582   6.594  73.619  1.00  0.00    -0.323 A  
HETATM   14  C   UNL     1     -11.493   6.224  72.636  1.00  0.00    -0.255 A  
HETATM   15  C   UNL     1     -11.539   6.922  71.424  1.00  0.00    -0.340 A  
ENDBRANCH   7  10
TORSDOF 1
ENDMDL
MODEL       78
REMARK 921   NORMALIZED FREE ENERGY PREDICTED BY IDOCK:   -4.14 KCAL/MOL
REMARK 922        TOTAL FREE ENERGY PREDICTED BY IDOCK:   -4.71 KCAL/MOL
REMARK 923 INTER-LIGAND FREE ENERGY PREDICTED BY IDOCK:   -4.38 KCAL/MOL
REMARK 924 INTRA-LIGAND FREE ENERGY PREDICTED BY IDOCK:   -0.32 KCAL/MOL
REMARK 927      BINDING AFFINITY PREDICTED BY RF-SCORE:    0.00 PKD
ROOT
HETATM    1  O   UNL     1     -11.021  15.744  66.850  1.00  0.00    -0.300 OA 
HETATM    2  N   UNL     1     -10.912  14.854  65.995  1.00  0.00    -0.329 N  
HETATM    3  O   UNL     1     -10.791  15.061  64.778  1.00  0.00    -0.394 OA 
HETATM    4  C   UNL     1     -10.917  13.461  66.454  1.00  0.00    -0.289 A  
HETATM    5  C   UNL     1     -11.045  13.179  67.816  1.00  0.00    -0.287 A  
HETATM    6  C   UNL     1     -10.996  11.848  68.252  1.00  0.00    -0.273 A  
HETATM    7  C   UNL     1     -10.829  10.775  67.352  1.00  0.00    -0.345 A  
HETATM    8  C   UNL     1     -10.776  12.421  65.530  1.00  0.00    -0.315 A  
HETATM    9  C   UNL     1     -10.742  11.096  65.983  1.00  0.00    -0.272 A  
ENDROOT
BRANCH   7  10
HETATM   10  C   UNL     1     -10.703   9.377  67.835  1.00  0.00    -0.269 A  
HETATM   11  C   UNL     1     -10.739   9.058  69.205  1.00  0.00    -0.176 A  
HETATM   12  C   UNL     1     -10.557   7.745  69.658  1.00  0.00    -0.242 A  
HETATM   13  C   UNL     1     -10.352   6.714  68.747  1.00  0.00    -0.214 A  
HETATM   14  C   UNL     1     -10.332   6.995  67.386  1.00  0.00    -0.313 A  
HETATM   15  C   UNL     1     -10.500   8.310  66.938  1.00  0.00    -0.365 A  
ENDBRANCH   7  10
TORSDOF 1
ENDMDL
MODEL       79
REMARK 921   NORMALIZED FREE ENERGY PREDICTED BY IDOCK:   -4.12 KCAL/MOL
REMARK 922        TOTAL FREE ENERGY PREDICTED BY IDOCK:   -4.69 KCAL/MOL
REMARK 923 INTER-LIGAND FREE ENERGY PREDICTED BY IDOCK:   -4.37 KCAL/MOL
REMARK 924 INTRA-LIGAND FREE ENERGY PREDICTED BY IDOCK:   -0.31 KCAL/MOL
REMARK 927      BINDING AFFINITY PREDICTED BY RF-SCORE:    0.00 PKD
ROOT
HETATM    1  O   UNL     1     -10.955   5.236  72.961  1.00  0.00    -0.251 OA 
HETATM    2  N   UNL     1     -10.696   6.447  72.987  1.00  0.00    -0.247 N  
HETATM    3  O   UNL     1     -10.447   7.090  74.018  1.00  0.00    -0.366 OA 
HETATM    4  C   UNL     1     -10.674   7.169  71.710  1.00  0.00    -0.215 A  
HETATM    5  C   UNL     1     -10.943   6.486  70.521  1.00  0.00    -0.348 A  
HETATM    6  C   UNL     1     -10.868   7.170  69.301  1.00  0.00    -0.204 A  
HETATM    7  C   UNL     1     -10.535   8.538  69.234  1.00  0.00    -0.224 A  
HETATM    8  C   UNL     1     -10.366   8.532  71.684  1.00  0.00    -0.333 A  
HETATM    9  C   UNL     1     -10.308   9.203  70.455  1.00  0.00    -0.288 A  
ENDROOT
BRANCH   7  10
HETATM   10  C   UNL     1     -10.385   9.232  67.929  1.00  0.00    -0.279 A  
HETATM   11  C   UNL     1      -9.775   8.610  66.824  1.00  0.00    -0.298 A  
HETATM   12  C   UNL     1      -9.580   9.291  65.615  1.00  0.00    -0.324 A  
HETATM   13  C   UNL     1     -10.008  10.607  65.478  1.00  0.00    -0.333 A  
HETATM   14  C   UNL     1     -10.633  11.240  66.545  1.00  0.00    -0.315 A  
HETATM   15  C   UNL     1     -10.813  10.562  67.756  1.00  0.00    -0.347 A  
ENDBRANCH   7  10
TORSDOF 1
ENDMDL
MODEL       80
REMARK 921   NORMALIZED FREE ENERGY PREDICTED BY IDOCK:   -4.10 KCAL/MOL
REMARK 922        TOTAL FREE ENERGY PREDICTED BY IDOCK:   -4.67 KCAL/MOL
REMARK 923 INTER-LIGAND FREE ENERGY PREDICTED BY IDOCK:   -4.36 KCAL/MOL
REMARK 924 INTRA-LIGAND FREE ENERGY PREDICTED BY IDOCK:   -0.30 KCAL/MOL
REMARK 927      BINDING AFFINITY PREDICTED BY RF-SCORE:    0.00 PKD
ROOT
HETATM    1  O   UNL     1     -11.132  17.407  64.691  1.00  0.00    -1.029 OA 
HETATM    2  N   UNL     1     -11.328  16.207  64.456  1.00  0.00    -0.396 N  
HETATM    3  O   UNL     1     -12.048  15.778  63.542  1.00  0.00    -0.340 OA 
HETATM    4  C   UNL     1     -10.655  15.224  65.312  1.00  0.00    -0.417 A  
HETATM    5  C   UNL     1      -9.829  15.659  66.352  1.00  0.00    -0.295 A  
HETATM    6  C   UNL     1      -9.147  14.715  67.132  1.00  0.00    -0.236 A  
HETATM    7  C   UNL     1      -9.277  13.329  66.905  1.00  0.00    -0.242 A  
HETATM    8  C   UNL     1     -10.827  13.857  65.075  1.00  0.00    -0.389 A  
HETATM    9  C   UNL     1     -10.148  12.928  65.873  1.00  0.00    -0.295 A  
ENDROOT
BRANCH   7  10
HETATM   10  C   UNL     1      -8.491  12.343  67.689  1.00  0.00    -0.169 A  
HETATM   11  C   UNL     1      -7.087  12.403  67.763  1.00  0.00    -0.120 A  
HETATM   12  C   UNL     1      -6.347  11.434  68.453  1.00  0.00    -0.046 A  
HETATM   13  C   UNL     1      -6.997  10.390  69.102  1.00  0.00    -0.071 A  
HETATM   14  C   UNL     1      -8.384  10.317  69.065  1.00  0.00    -0.148 A  
HETATM   15  C   UNL     1      -9.119  11.278  68.363  1.00  0.00    -0.170 A  
ENDBRANCH   7  10
TORSDOF 1
ENDMDL
MODEL       81
REMARK 921   NORMALIZED FREE ENERGY PREDICTED BY IDOCK:   -4.07 KCAL/MOL
REMARK 922        TOTAL FREE ENERGY PREDICTED BY IDOCK:   -4.64 KCAL/MOL
REMARK 923 INTER-LIGAND FREE ENERGY PREDICTED BY IDOCK:   -4.34 KCAL/MOL
REMARK 924 INTRA-LIGAND FREE ENERGY PREDICTED BY IDOCK:   -0.30 KCAL/MOL
REMARK 927      BINDING AFFINITY PREDICTED BY RF-SCORE:    0.00 PKD
ROOT
HETATM    1  O   UNL     1      -9.742   3.696  64.553  1.00  0.00    -0.157 OA 
HETATM    2  N   UNL     1      -9.374   3.422  65.704  1.00  0.00    -0.158 N  
HETATM    3  O   UNL     1      -8.647   2.462  65.999  1.00  0.00    -0.099 OA 
HETATM    4  C   UNL     1      -9.821   4.299  66.792  1.00  0.00    -0.205 A  
HETATM    5  C   UNL     1     -10.637   5.397  66.508  1.00  0.00    -0.353 A  
HETATM    6  C   UNL     1     -11.016   6.261  67.544  1.00  0.00    -0.444 A  
HETATM    7  C   UNL     1     -10.605   6.050  68.876  1.00  0.00    -0.356 A  
HETATM    8  C   UNL     1      -9.416   4.045  68.105  1.00  0.00    -0.215 A  
HETATM    9  C   UNL     1      -9.815   4.911  69.130  1.00  0.00    -0.263 A  
ENDROOT
BRANCH   7  10
HETATM   10  C   UNL     1     -10.951   7.014  69.951  1.00  0.00    -0.296 A  
HETATM   11  C   UNL     1     -10.243   8.217  70.126  1.00  0.00    -0.199 A  
HETATM   12  C   UNL     1     -10.534   9.093  71.180  1.00  0.00    -0.385 A  
HETATM   13  C   UNL     1     -11.555   8.794  72.075  1.00  0.00    -0.436 A  
HETATM   14  C   UNL     1     -12.286   7.623  71.915  1.00  0.00    -0.337 A  
HETATM   15  C   UNL     1     -11.984   6.744  70.870  1.00  0.00    -0.437 A  
ENDBRANCH   7  10
TORSDOF 1
ENDMDL
MODEL       82
REMARK 921   NORMALIZED FREE ENERGY PREDICTED BY IDOCK:   -4.03 KCAL/MOL
REMARK 922        TOTAL FREE ENERGY PREDICTED BY IDOCK:   -4.59 KCAL/MOL
REMARK 923 INTER-LIGAND FREE ENERGY PREDICTED BY IDOCK:   -4.28 KCAL/MOL
REMARK 924 INTRA-LIGAND FREE ENERGY PREDICTED BY IDOCK:   -0.32 KCAL/MOL
REMARK 927      BINDING AFFINITY PREDICTED BY RF-SCORE:    0.00 PKD
ROOT
HETATM    1  O   UNL     1     -10.187   7.336  69.889  1.00  0.00    -0.197 OA 
HETATM    2  N   UNL     1     -11.081   8.047  70.368  1.00  0.00    -0.250 N  
HETATM    3  O   UNL     1     -11.931   7.653  71.181  1.00  0.00    -0.296 OA 
HETATM    4  C   UNL     1     -11.132   9.453  69.955  1.00  0.00    -0.200 A  
HETATM    5  C   UNL     1     -10.192   9.944  69.045  1.00  0.00    -0.213 A  
HETATM    6  C   UNL     1     -10.215  11.301  68.695  1.00  0.00    -0.214 A  
HETATM    7  C   UNL     1     -11.169  12.191  69.229  1.00  0.00    -0.288 A  
HETATM    8  C   UNL     1     -12.109  10.302  70.484  1.00  0.00    -0.401 A  
HETATM    9  C   UNL     1     -12.124  11.652  70.112  1.00  0.00    -0.414 A  
ENDROOT
BRANCH   7  10
HETATM   10  C   UNL     1     -11.134  13.641  68.908  1.00  0.00    -0.292 A  
HETATM   11  C   UNL     1     -11.508  14.619  69.848  1.00  0.00    -0.320 A  
HETATM   12  C   UNL     1     -11.533  15.980  69.519  1.00  0.00    -0.326 A  
HETATM   13  C   UNL     1     -11.167  16.398  68.245  1.00  0.00    -0.300 A  
HETATM   14  C   UNL     1     -10.772  15.457  67.301  1.00  0.00    -0.307 A  
HETATM   15  C   UNL     1     -10.762  14.097  67.628  1.00  0.00    -0.260 A  
ENDBRANCH   7  10
TORSDOF 1
ENDMDL
MODEL       83
REMARK 921   NORMALIZED FREE ENERGY PREDICTED BY IDOCK:   -4.03 KCAL/MOL
REMARK 922        TOTAL FREE ENERGY PREDICTED BY IDOCK:   -4.59 KCAL/MOL
REMARK 923 INTER-LIGAND FREE ENERGY PREDICTED BY IDOCK:   -4.27 KCAL/MOL
REMARK 924 INTRA-LIGAND FREE ENERGY PREDICTED BY IDOCK:   -0.32 KCAL/MOL
REMARK 927      BINDING AFFINITY PREDICTED BY RF-SCORE:    0.00 PKD
ROOT
HETATM    1  O   UNL     1      -8.995  14.258  66.753  1.00  0.00    -0.251 OA 
HETATM    2  N   UNL     1      -8.475  13.228  67.203  1.00  0.00    -0.198 N  
HETATM    3  O   UNL     1      -7.298  12.890  67.005  1.00  0.00    -0.043 OA 
HETATM    4  C   UNL     1      -9.306  12.351  68.037  1.00  0.00    -0.204 A  
HETATM    5  C   UNL     1     -10.636  12.693  68.293  1.00  0.00    -0.250 A  
HETATM    6  C   UNL     1     -11.408  11.878  69.133  1.00  0.00    -0.338 A  
HETATM    7  C   UNL     1     -10.883  10.711  69.725  1.00  0.00    -0.317 A  
HETATM    8  C   UNL     1      -8.760  11.187  68.586  1.00  0.00    -0.153 A  
HETATM    9  C   UNL     1      -9.550  10.378  69.412  1.00  0.00    -0.213 A  
ENDROOT
BRANCH   7  10
HETATM   10  C   UNL     1     -11.688   9.899  70.672  1.00  0.00    -0.404 A  
HETATM   11  C   UNL     1     -12.866  10.395  71.260  1.00  0.00    -0.533 A  
HETATM   12  C   UNL     1     -13.587   9.648  72.201  1.00  0.00    -0.471 A  
HETATM   13  C   UNL     1     -13.155   8.377  72.562  1.00  0.00    -0.209 A  
HETATM   14  C   UNL     1     -12.006   7.852  71.983  1.00  0.00    -0.364 A  
HETATM   15  C   UNL     1     -11.281   8.606  71.054  1.00  0.00    -0.321 A  
ENDBRANCH   7  10
TORSDOF 1
ENDMDL
MODEL       84
REMARK 921   NORMALIZED FREE ENERGY PREDICTED BY IDOCK:   -3.98 KCAL/MOL
REMARK 922        TOTAL FREE ENERGY PREDICTED BY IDOCK:   -4.54 KCAL/MOL
REMARK 923 INTER-LIGAND FREE ENERGY PREDICTED BY IDOCK:   -4.25 KCAL/MOL
REMARK 924 INTRA-LIGAND FREE ENERGY PREDICTED BY IDOCK:   -0.29 KCAL/MOL
REMARK 927      BINDING AFFINITY PREDICTED BY RF-SCORE:    0.00 PKD
ROOT
HETATM    1  O   UNL     1      -5.964  14.446  69.876  1.00  0.00    -0.112 OA 
HETATM    2  N   UNL     1      -6.478  15.260  69.096  1.00  0.00    -0.115 N  
HETATM    3  O   UNL     1      -6.139  16.449  68.997  1.00  0.00    -0.139 OA 
HETATM    4  C   UNL     1      -7.556  14.782  68.223  1.00  0.00    -0.115 A  
HETATM    5  C   UNL     1      -7.969  13.450  68.294  1.00  0.00    -0.147 A  
HETATM    6  C   UNL     1      -8.963  12.988  67.421  1.00  0.00    -0.204 A  
HETATM    7  C   UNL     1      -9.570  13.834  66.470  1.00  0.00    -0.295 A  
HETATM    8  C   UNL     1      -8.155  15.656  67.310  1.00  0.00    -0.224 A  
HETATM    9  C   UNL     1      -9.155  15.180  66.453  1.00  0.00    -0.331 A  
ENDROOT
BRANCH   7  10
HETATM   10  C   UNL     1     -10.566  13.313  65.500  1.00  0.00    -0.295 A  
HETATM   11  C   UNL     1     -11.939  13.256  65.804  1.00  0.00    -0.463 A  
HETATM   12  C   UNL     1     -12.866  12.706  64.909  1.00  0.00    -0.312 A  
HETATM   13  C   UNL     1     -12.443  12.215  63.679  1.00  0.00    -0.658 A  
HETATM   14  C   UNL     1     -11.096  12.277  63.342  1.00  0.00    -0.487 A  
HETATM   15  C   UNL     1     -10.171  12.814  64.243  1.00  0.00    -0.352 A  
ENDBRANCH   7  10
TORSDOF 1
ENDMDL
MODEL       85
REMARK 921   NORMALIZED FREE ENERGY PREDICTED BY IDOCK:   -3.98 KCAL/MOL
REMARK 922        TOTAL FREE ENERGY PREDICTED BY IDOCK:   -4.54 KCAL/MOL
REMARK 923 INTER-LIGAND FREE ENERGY PREDICTED BY IDOCK:   -4.24 KCAL/MOL
REMARK 924 INTRA-LIGAND FREE ENERGY PREDICTED BY IDOCK:   -0.30 KCAL/MOL
REMARK 927      BINDING AFFINITY PREDICTED BY RF-SCORE:    0.00 PKD
ROOT
HETATM    1  O   UNL     1      -5.820  17.721  66.231  1.00  0.00    -0.166 OA 
HETATM    2  N   UNL     1      -7.036  17.733  65.994  1.00  0.00    -0.308 N  
HETATM    3  O   UNL     1      -7.623  18.638  65.382  1.00  0.00    -0.433 OA 
HETATM    4  C   UNL     1      -7.835  16.594  66.459  1.00  0.00    -0.307 A  
HETATM    5  C   UNL     1      -7.217  15.547  67.148  1.00  0.00    -0.208 A  
HETATM    6  C   UNL     1      -7.977  14.438  67.543  1.00  0.00    -0.208 A  
HETATM    7  C   UNL     1      -9.358  14.348  67.274  1.00  0.00    -0.211 A  
HETATM    8  C   UNL     1      -9.208  16.551  66.198  1.00  0.00    -0.338 A  
HETATM    9  C   UNL     1      -9.954  15.440  66.612  1.00  0.00    -0.271 A  
ENDROOT
BRANCH   7  10
HETATM   10  C   UNL     1     -10.135  13.135  67.631  1.00  0.00    -0.221 A  
HETATM   11  C   UNL     1     -10.918  13.071  68.798  1.00  0.00    -0.295 A  
HETATM   12  C   UNL     1     -11.599  11.902  69.162  1.00  0.00    -0.373 A  
HETATM   13  C   UNL     1     -11.527  10.772  68.355  1.00  0.00    -0.358 A  
HETATM   14  C   UNL     1     -10.778  10.811  67.185  1.00  0.00    -0.324 A  
HETATM   15  C   UNL     1     -10.088  11.976  66.832  1.00  0.00    -0.224 A  
ENDBRANCH   7  10
TORSDOF 1
ENDMDL
MODEL       86
REMARK 921   NORMALIZED FREE ENERGY PREDICTED BY IDOCK:   -3.93 KCAL/MOL
REMARK 922        TOTAL FREE ENERGY PREDICTED BY IDOCK:   -4.48 KCAL/MOL
REMARK 923 INTER-LIGAND FREE ENERGY PREDICTED BY IDOCK:   -4.16 KCAL/MOL
REMARK 924 INTRA-LIGAND FREE ENERGY PREDICTED BY IDOCK:   -0.32 KCAL/MOL
REMARK 927      BINDING AFFINITY PREDICTED BY RF-SCORE:    0.00 PKD
ROOT
HETATM    1  O   UNL     1      -9.795   4.386  69.772  1.00  0.00    -0.210 OA 
HETATM    2  N   UNL     1      -9.813   4.804  68.606  1.00  0.00    -0.157 N  
HETATM    3  O   UNL     1      -9.661   4.092  67.602  1.00  0.00    -0.173 OA 
HETATM    4  C   UNL     1     -10.037   6.239  68.398  1.00  0.00    -0.157 A  
HETATM    5  C   UNL     1     -10.218   7.080  69.498  1.00  0.00    -0.208 A  
HETATM    6  C   UNL     1     -10.485   8.440  69.290  1.00  0.00    -0.223 A  
HETATM    7  C   UNL     1     -10.568   8.992  67.995  1.00  0.00    -0.242 A  
HETATM    8  C   UNL     1     -10.087   6.757  67.100  1.00  0.00    -0.249 A  
HETATM    9  C   UNL     1     -10.342   8.121  66.912  1.00  0.00    -0.401 A  
ENDROOT
BRANCH   7  10
HETATM   10  C   UNL     1     -10.926  10.418  67.787  1.00  0.00    -0.369 A  
HETATM   11  C   UNL     1     -11.494  11.198  68.811  1.00  0.00    -0.366 A  
HETATM   12  C   UNL     1     -11.887  12.525  68.591  1.00  0.00    -0.340 A  
HETATM   13  C   UNL     1     -11.705  13.109  67.342  1.00  0.00    -0.419 A  
HETATM   14  C   UNL     1     -11.127  12.370  66.317  1.00  0.00    -0.344 A  
HETATM   15  C   UNL     1     -10.748  11.041  66.537  1.00  0.00    -0.298 A  
ENDBRANCH   7  10
TORSDOF 1
ENDMDL
MODEL       87
REMARK 921   NORMALIZED FREE ENERGY PREDICTED BY IDOCK:   -3.92 KCAL/MOL
REMARK 922        TOTAL FREE ENERGY PREDICTED BY IDOCK:   -4.47 KCAL/MOL
REMARK 923 INTER-LIGAND FREE ENERGY PREDICTED BY IDOCK:   -4.15 KCAL/MOL
REMARK 924 INTRA-LIGAND FREE ENERGY PREDICTED BY IDOCK:   -0.32 KCAL/MOL
REMARK 927      BINDING AFFINITY PREDICTED BY RF-SCORE:    0.00 PKD
ROOT
HETATM    1  O   UNL     1     -10.716  11.627  67.965  1.00  0.00    -0.193 OA 
HETATM    2  N   UNL     1     -11.210  11.487  69.092  1.00  0.00    -0.254 N  
HETATM    3  O   UNL     1     -11.821  12.374  69.707  1.00  0.00    -0.317 OA 
HETATM    4  C   UNL     1     -11.072  10.178  69.741  1.00  0.00    -0.279 A  
HETATM    5  C   UNL     1     -10.397   9.145  69.085  1.00  0.00    -0.223 A  
HETATM    6  C   UNL     1     -10.315   7.883  69.687  1.00  0.00    -0.216 A  
HETATM    7  C   UNL     1     -10.889   7.622  70.949  1.00  0.00    -0.250 A  
HETATM    8  C   UNL     1     -11.631   9.962  71.004  1.00  0.00    -0.470 A  
HETATM    9  C   UNL     1     -11.528   8.697  71.597  1.00  0.00    -0.375 A  
ENDROOT
BRANCH   7  10
HETATM   10  C   UNL     1     -10.861   6.261  71.541  1.00  0.00    -0.303 A  
HETATM   11  C   UNL     1     -11.588   5.941  72.702  1.00  0.00    -0.289 A  
HETATM   12  C   UNL     1     -11.508   4.672  73.292  1.00  0.00    -0.346 A  
HETATM   13  C   UNL     1     -10.710   3.686  72.722  1.00  0.00    -0.139 A  
HETATM   14  C   UNL     1      -9.996   3.966  71.563  1.00  0.00    -0.209 A  
HETATM   15  C   UNL     1     -10.067   5.238  70.985  1.00  0.00    -0.289 A  
ENDBRANCH   7  10
TORSDOF 1
ENDMDL
MODEL       88
REMARK 921   NORMALIZED FREE ENERGY PREDICTED BY IDOCK:   -3.89 KCAL/MOL
REMARK 922        TOTAL FREE ENERGY PREDICTED BY IDOCK:   -4.44 KCAL/MOL
REMARK 923 INTER-LIGAND FREE ENERGY PREDICTED BY IDOCK:   -4.14 KCAL/MOL
REMARK 924 INTRA-LIGAND FREE ENERGY PREDICTED BY IDOCK:   -0.30 KCAL/MOL
REMARK 927      BINDING AFFINITY PREDICTED BY RF-SCORE:    0.00 PKD
ROOT
HETATM    1  O   UNL     1     -10.076  15.770  68.353  1.00  0.00    -0.217 OA 
HETATM    2  N   UNL     1     -11.037  15.125  68.797  1.00  0.00    -0.253 N  
HETATM    3  O   UNL     1     -12.078  15.632  69.240  1.00  0.00    -0.347 OA 
HETATM    4  C   UNL     1     -10.940  13.661  68.788  1.00  0.00    -0.264 A  
HETATM    5  C   UNL     1      -9.789  13.044  68.293  1.00  0.00    -0.225 A  
HETATM    6  C   UNL     1      -9.726  11.645  68.239  1.00  0.00    -0.197 A  
HETATM    7  C   UNL     1     -10.791  10.834  68.680  1.00  0.00    -0.260 A  
HETATM    8  C   UNL     1     -12.006  12.888  69.258  1.00  0.00    -0.313 A  
HETATM    9  C   UNL     1     -11.920  11.491  69.208  1.00  0.00    -0.397 A  
ENDROOT
BRANCH   7  10
HETATM   10  C   UNL     1     -10.741   9.356  68.547  1.00  0.00    -0.203 A  
HETATM   11  C   UNL     1     -10.594   8.728  67.297  1.00  0.00    -0.303 A  
HETATM   12  C   UNL     1     -10.611   7.333  67.170  1.00  0.00    -0.416 A  
HETATM   13  C   UNL     1     -10.756   6.531  68.297  1.00  0.00    -0.341 A  
HETATM   14  C   UNL     1     -10.882   7.123  69.548  1.00  0.00    -0.244 A  
HETATM   15  C   UNL     1     -10.879   8.516  69.669  1.00  0.00    -0.157 A  
ENDBRANCH   7  10
TORSDOF 1
ENDMDL
MODEL       89
REMARK 921   NORMALIZED FREE ENERGY PREDICTED BY IDOCK:   -3.88 KCAL/MOL
REMARK 922        TOTAL FREE ENERGY PREDICTED BY IDOCK:   -4.43 KCAL/MOL
REMARK 923 INTER-LIGAND FREE ENERGY PREDICTED BY IDOCK:   -4.13 KCAL/MOL
REMARK 924 INTRA-LIGAND FREE ENERGY PREDICTED BY IDOCK:   -0.30 KCAL/MOL
REMARK 927      BINDING AFFINITY PREDICTED BY RF-SCORE:    0.00 PKD
ROOT
HETATM    1  O   UNL     1      -8.822  17.109  65.833  1.00  0.00    -0.520 OA 
HETATM    2  N   UNL     1      -9.836  16.808  66.478  1.00  0.00    -0.275 N  
HETATM    3  O   UNL     1     -10.760  17.593  66.741  1.00  0.00    -0.262 OA 
HETATM    4  C   UNL     1      -9.958  15.427  66.957  1.00  0.00    -0.238 A  
HETATM    5  C   UNL     1      -8.946  14.505  66.680  1.00  0.00    -0.247 A  
HETATM    6  C   UNL     1      -9.093  13.174  67.095  1.00  0.00    -0.230 A  
HETATM    7  C   UNL     1     -10.235  12.735  67.795  1.00  0.00    -0.223 A  
HETATM    8  C   UNL     1     -11.093  15.032  67.671  1.00  0.00    -0.317 A  
HETATM    9  C   UNL     1     -11.217  13.701  68.089  1.00  0.00    -0.303 A  
ENDROOT
BRANCH   7  10
HETATM   10  C   UNL     1     -10.413  11.307  68.161  1.00  0.00    -0.215 A  
HETATM   11  C   UNL     1     -10.550  10.895  69.499  1.00  0.00    -0.217 A  
HETATM   12  C   UNL     1     -10.654   9.541  69.843  1.00  0.00    -0.269 A  
HETATM   13  C   UNL     1     -10.642   8.566  68.852  1.00  0.00    -0.166 A  
HETATM   14  C   UNL     1     -10.530   8.943  67.519  1.00  0.00    -0.337 A  
HETATM   15  C   UNL     1     -10.411  10.295  67.180  1.00  0.00    -0.311 A  
ENDBRANCH   7  10
TORSDOF 1
ENDMDL
MODEL       90
REMARK 921   NORMALIZED FREE ENERGY PREDICTED BY IDOCK:   -3.85 KCAL/MOL
REMARK 922        TOTAL FREE ENERGY PREDICTED BY IDOCK:   -4.40 KCAL/MOL
REMARK 923 INTER-LIGAND FREE ENERGY PREDICTED BY IDOCK:   -4.08 KCAL/MOL
REMARK 924 INTRA-LIGAND FREE ENERGY PREDICTED BY IDOCK:   -0.32 KCAL/MOL
REMARK 927      BINDING AFFINITY PREDICTED BY RF-SCORE:    0.00 PKD
ROOT
HETATM    1  O   UNL     1     -10.235   8.097  68.112  1.00  0.00    -0.196 OA 
HETATM    2  N   UNL     1     -10.761   8.945  68.845  1.00  0.00    -0.160 N  
HETATM    3  O   UNL     1     -11.257   8.704  69.956  1.00  0.00    -0.209 OA 
HETATM    4  C   UNL     1     -10.793  10.333  68.370  1.00  0.00    -0.245 A  
HETATM    5  C   UNL     1     -10.243  10.655  67.127  1.00  0.00    -0.261 A  
HETATM    6  C   UNL     1     -10.230  11.991  66.704  1.00  0.00    -0.229 A  
HETATM    7  C   UNL     1     -10.767  13.027  67.495  1.00  0.00    -0.248 A  
HETATM    8  C   UNL     1     -11.358  11.332  69.169  1.00  0.00    -0.349 A  
HETATM    9  C   UNL     1     -11.348  12.659  68.724  1.00  0.00    -0.333 A  
ENDROOT
BRANCH   7  10
HETATM   10  C   UNL     1     -10.678  14.447  67.068  1.00  0.00    -0.285 A  
HETATM   11  C   UNL     1     -10.431  14.806  65.730  1.00  0.00    -0.348 A  
HETATM   12  C   UNL     1     -10.286  16.145  65.345  1.00  0.00    -0.294 A  
HETATM   13  C   UNL     1     -10.404  17.160  66.288  1.00  0.00    -0.315 A  
HETATM   14  C   UNL     1     -10.669  16.837  67.614  1.00  0.00    -0.305 A  
HETATM   15  C   UNL     1     -10.799  15.498  67.998  1.00  0.00    -0.300 A  
ENDBRANCH   7  10
TORSDOF 1
ENDMDL
MODEL       91
REMARK 921   NORMALIZED FREE ENERGY PREDICTED BY IDOCK:   -3.83 KCAL/MOL
REMARK 922        TOTAL FREE ENERGY PREDICTED BY IDOCK:   -4.38 KCAL/MOL
REMARK 923 INTER-LIGAND FREE ENERGY PREDICTED BY IDOCK:   -4.09 KCAL/MOL
REMARK 924 INTRA-LIGAND FREE ENERGY PREDICTED BY IDOCK:   -0.29 KCAL/MOL
REMARK 927      BINDING AFFINITY PREDICTED BY RF-SCORE:    0.00 PKD
ROOT
HETATM    1  O   UNL     1      -5.812  12.721  70.171  1.00  0.00    -0.135 OA 
HETATM    2  N   UNL     1      -6.516  11.728  69.938  1.00  0.00    -0.108 N  
HETATM    3  O   UNL     1      -6.498  10.683  70.605  1.00  0.00    -0.310 OA 
HETATM    4  C   UNL     1      -7.441  11.797  68.801  1.00  0.00    -0.109 A  
HETATM    5  C   UNL     1      -7.500  12.957  68.024  1.00  0.00    -0.125 A  
HETATM    6  C   UNL     1      -8.423  13.035  66.972  1.00  0.00    -0.142 A  
HETATM    7  C   UNL     1      -9.295  11.970  66.666  1.00  0.00    -0.221 A  
HETATM    8  C   UNL     1      -8.272  10.711  68.510  1.00  0.00    -0.128 A  
HETATM    9  C   UNL     1      -9.179  10.803  67.447  1.00  0.00    -0.156 A  
ENDROOT
BRANCH   7  10
HETATM   10  C   UNL     1     -10.319  12.096  65.598  1.00  0.00    -0.289 A  
HETATM   11  C   UNL     1     -11.620  12.558  65.868  1.00  0.00    -0.454 A  
HETATM   12  C   UNL     1     -12.601  12.615  64.869  1.00  0.00    -0.525 A  
HETATM   13  C   UNL     1     -12.296  12.227  63.569  1.00  0.00    -0.670 A  
HETATM   14  C   UNL     1     -11.013  11.786  63.267  1.00  0.00    -0.387 A  
HETATM   15  C   UNL     1     -10.040  11.717  64.271  1.00  0.00    -0.328 A  
ENDBRANCH   7  10
TORSDOF 1
ENDMDL
MODEL       92
REMARK 921   NORMALIZED FREE ENERGY PREDICTED BY IDOCK:   -3.83 KCAL/MOL
REMARK 922        TOTAL FREE ENERGY PREDICTED BY IDOCK:   -4.38 KCAL/MOL
REMARK 923 INTER-LIGAND FREE ENERGY PREDICTED BY IDOCK:   -4.05 KCAL/MOL
REMARK 924 INTRA-LIGAND FREE ENERGY PREDICTED BY IDOCK:   -0.33 KCAL/MOL
REMARK 927      BINDING AFFINITY PREDICTED BY RF-SCORE:    0.00 PKD
ROOT
HETATM    1  O   UNL     1      -8.955   6.306  66.309  1.00  0.00    -0.148 OA 
HETATM    2  N   UNL     1      -9.306   6.569  67.468  1.00  0.00    -0.122 N  
HETATM    3  O   UNL     1      -9.227   5.781  68.422  1.00  0.00    -0.117 OA 
HETATM    4  C   UNL     1      -9.845   7.908  67.732  1.00  0.00    -0.163 A  
HETATM    5  C   UNL     1      -9.949   8.832  66.690  1.00  0.00    -0.355 A  
HETATM    6  C   UNL     1     -10.416  10.126  66.959  1.00  0.00    -0.302 A  
HETATM    7  C   UNL     1     -10.794  10.525  68.258  1.00  0.00    -0.293 A  
HETATM    8  C   UNL     1     -10.237   8.260  69.027  1.00  0.00    -0.226 A  
HETATM    9  C   UNL     1     -10.712   9.554  69.275  1.00  0.00    -0.240 A  
ENDROOT
BRANCH   7  10
HETATM   10  C   UNL     1     -11.214  11.920  68.543  1.00  0.00    -0.308 A  
HETATM   11  C   UNL     1     -11.685  12.309  69.811  1.00  0.00    -0.368 A  
HETATM   12  C   UNL     1     -12.138  13.612  70.057  1.00  0.00    -0.417 A  
HETATM   13  C   UNL     1     -12.114  14.563  69.043  1.00  0.00    -0.286 A  
HETATM   14  C   UNL     1     -11.634  14.214  67.786  1.00  0.00    -0.379 A  
HETATM   15  C   UNL     1     -11.196  12.908  67.540  1.00  0.00    -0.329 A  
ENDBRANCH   7  10
TORSDOF 1
ENDMDL
MODEL       93
REMARK 921   NORMALIZED FREE ENERGY PREDICTED BY IDOCK:   -3.81 KCAL/MOL
REMARK 922        TOTAL FREE ENERGY PREDICTED BY IDOCK:   -4.36 KCAL/MOL
REMARK 923 INTER-LIGAND FREE ENERGY PREDICTED BY IDOCK:   -4.06 KCAL/MOL
REMARK 924 INTRA-LIGAND FREE ENERGY PREDICTED BY IDOCK:   -0.30 KCAL/MOL
REMARK 927      BINDING AFFINITY PREDICTED BY RF-SCORE:    0.00 PKD
ROOT
HETATM    1  O   UNL     1      -8.256   2.892  69.442  1.00  0.00    -0.050 OA 
HETATM    2  N   UNL     1      -7.876   3.747  70.253  1.00  0.00    -0.047 N  
HETATM    3  O   UNL     1      -6.768   3.743  70.811  1.00  0.00    -0.031 OA 
HETATM    4  C   UNL     1      -8.796   4.845  70.571  1.00  0.00    -0.115 A  
HETATM    5  C   UNL     1     -10.053   4.895  69.964  1.00  0.00    -0.337 A  
HETATM    6  C   UNL     1     -10.906   5.975  70.232  1.00  0.00    -0.398 A  
HETATM    7  C   UNL     1     -10.535   7.016  71.107  1.00  0.00    -0.229 A  
HETATM    8  C   UNL     1      -8.406   5.846  71.465  1.00  0.00    -0.127 A  
HETATM    9  C   UNL     1      -9.276   6.911  71.730  1.00  0.00    -0.143 A  
ENDROOT
BRANCH   7  10
HETATM   10  C   UNL     1     -11.417   8.191  71.323  1.00  0.00    -0.299 A  
HETATM   11  C   UNL     1     -12.673   8.073  71.944  1.00  0.00    -0.354 A  
HETATM   12  C   UNL     1     -13.527   9.175  72.089  1.00  0.00    -0.530 A  
HETATM   13  C   UNL     1     -13.134  10.427  71.629  1.00  0.00    -0.553 A  
HETATM   14  C   UNL     1     -11.890  10.579  71.030  1.00  0.00    -0.438 A  
HETATM   15  C   UNL     1     -11.046   9.474  70.875  1.00  0.00    -0.406 A  
ENDBRANCH   7  10
TORSDOF 1
ENDMDL
MODEL       94
REMARK 921   NORMALIZED FREE ENERGY PREDICTED BY IDOCK:   -3.81 KCAL/MOL
REMARK 922        TOTAL FREE ENERGY PREDICTED BY IDOCK:   -4.35 KCAL/MOL
REMARK 923 INTER-LIGAND FREE ENERGY PREDICTED BY IDOCK:   -4.04 KCAL/MOL
REMARK 924 INTRA-LIGAND FREE ENERGY PREDICTED BY IDOCK:   -0.31 KCAL/MOL
REMARK 927      BINDING AFFINITY PREDICTED BY RF-SCORE:    0.00 PKD
ROOT
HETATM    1  O   UNL     1      -7.488   3.900  68.566  1.00  0.00    -0.055 OA 
HETATM    2  N   UNL     1      -7.603   5.127  68.437  1.00  0.00    -0.078 N  
HETATM    3  O   UNL     1      -6.865   5.831  67.732  1.00  0.00    -0.057 OA 
HETATM    4  C   UNL     1      -8.692   5.791  69.162  1.00  0.00    -0.113 A  
HETATM    5  C   UNL     1      -9.552   5.039  69.965  1.00  0.00    -0.258 A  
HETATM    6  C   UNL     1     -10.622   5.672  70.612  1.00  0.00    -0.347 A  
HETATM    7  C   UNL     1     -10.854   7.057  70.483  1.00  0.00    -0.279 A  
HETATM    8  C   UNL     1      -8.877   7.171  69.032  1.00  0.00    -0.131 A  
HETATM    9  C   UNL     1      -9.944   7.789  69.697  1.00  0.00    -0.190 A  
ENDROOT
BRANCH   7  10
HETATM   10  C   UNL     1     -12.035   7.702  71.112  1.00  0.00    -0.319 A  
HETATM   11  C   UNL     1     -11.968   8.992  71.669  1.00  0.00    -0.426 A  
HETATM   12  C   UNL     1     -13.068   9.570  72.316  1.00  0.00    -0.492 A  
HETATM   13  C   UNL     1     -14.269   8.875  72.406  1.00  0.00    -0.452 A  
HETATM   14  C   UNL     1     -14.372   7.608  71.847  1.00  0.00    -0.536 A  
HETATM   15  C   UNL     1     -13.268   7.028  71.214  1.00  0.00    -0.304 A  
ENDBRANCH   7  10
TORSDOF 1
ENDMDL
MODEL       95
REMARK 921   NORMALIZED FREE ENERGY PREDICTED BY IDOCK:   -3.80 KCAL/MOL
REMARK 922        TOTAL FREE ENERGY PREDICTED BY IDOCK:   -4.35 KCAL/MOL
REMARK 923 INTER-LIGAND FREE ENERGY PREDICTED BY IDOCK:   -4.03 KCAL/MOL
REMARK 924 INTRA-LIGAND FREE ENERGY PREDICTED BY IDOCK:   -0.32 KCAL/MOL
REMARK 927      BINDING AFFINITY PREDICTED BY RF-SCORE:    0.00 PKD
ROOT
HETATM    1  O   UNL     1      -9.523  10.063  64.273  1.00  0.00    -0.280 OA 
HETATM    2  N   UNL     1      -9.900  10.639  65.303  1.00  0.00    -0.254 N  
HETATM    3  O   UNL     1     -10.156  11.850  65.377  1.00  0.00    -0.240 OA 
HETATM    4  C   UNL     1     -10.065   9.830  66.516  1.00  0.00    -0.239 A  
HETATM    5  C   UNL     1      -9.794   8.460  66.480  1.00  0.00    -0.338 A  
HETATM    6  C   UNL     1     -10.005   7.685  67.628  1.00  0.00    -0.225 A  
HETATM    7  C   UNL     1     -10.476   8.250  68.831  1.00  0.00    -0.209 A  
HETATM    8  C   UNL     1     -10.509  10.429  67.699  1.00  0.00    -0.277 A  
HETATM    9  C   UNL     1     -10.701   9.641  68.841  1.00  0.00    -0.230 A  
ENDROOT
BRANCH   7  10
HETATM   10  C   UNL     1     -10.767   7.405  70.017  1.00  0.00    -0.258 A  
HETATM   11  C   UNL     1     -10.093   6.192  70.248  1.00  0.00    -0.237 A  
HETATM   12  C   UNL     1     -10.415   5.369  71.334  1.00  0.00    -0.294 A  
HETATM   13  C   UNL     1     -11.410   5.750  72.229  1.00  0.00    -0.334 A  
HETATM   14  C   UNL     1     -12.078   6.953  72.039  1.00  0.00    -0.331 A  
HETATM   15  C   UNL     1     -11.764   7.766  70.945  1.00  0.00    -0.281 A  
ENDBRANCH   7  10
TORSDOF 1
ENDMDL
MODEL       96
REMARK 921   NORMALIZED FREE ENERGY PREDICTED BY IDOCK:   -3.78 KCAL/MOL
REMARK 922        TOTAL FREE ENERGY PREDICTED BY IDOCK:   -4.33 KCAL/MOL
REMARK 923 INTER-LIGAND FREE ENERGY PREDICTED BY IDOCK:   -4.00 KCAL/MOL
REMARK 924 INTRA-LIGAND FREE ENERGY PREDICTED BY IDOCK:   -0.33 KCAL/MOL
REMARK 927      BINDING AFFINITY PREDICTED BY RF-SCORE:    0.00 PKD
ROOT
HETATM    1  O   UNL     1     -13.286  12.325  64.447  1.00  0.00    -0.786 OA 
HETATM    2  N   UNL     1     -12.361  13.139  64.572  1.00  0.00    -0.393 N  
HETATM    3  O   UNL     1     -12.300  14.229  63.984  1.00  0.00    -0.641 OA 
HETATM    4  C   UNL     1     -11.266  12.794  65.486  1.00  0.00    -0.294 A  
HETATM    5  C   UNL     1     -11.293  11.579  66.176  1.00  0.00    -0.200 A  
HETATM    6  C   UNL     1     -10.271  11.280  67.087  1.00  0.00    -0.235 A  
HETATM    7  C   UNL     1      -9.203  12.170  67.325  1.00  0.00    -0.185 A  
HETATM    8  C   UNL     1     -10.209  13.689  65.678  1.00  0.00    -0.316 A  
HETATM    9  C   UNL     1      -9.189  13.367  66.583  1.00  0.00    -0.223 A  
ENDROOT
BRANCH   7  10
HETATM   10  C   UNL     1      -8.168  11.874  68.348  1.00  0.00    -0.160 A  
HETATM   11  C   UNL     1      -8.131  10.646  69.034  1.00  0.00    -0.148 A  
HETATM   12  C   UNL     1      -7.191  10.397  70.042  1.00  0.00    -0.143 A  
HETATM   13  C   UNL     1      -6.252  11.366  70.376  1.00  0.00    -0.048 A  
HETATM   14  C   UNL     1      -6.250  12.581  69.701  1.00  0.00    -0.126 A  
HETATM   15  C   UNL     1      -7.199  12.832  68.705  1.00  0.00    -0.104 A  
ENDBRANCH   7  10
TORSDOF 1
ENDMDL
MODEL       97
REMARK 921   NORMALIZED FREE ENERGY PREDICTED BY IDOCK:   -3.78 KCAL/MOL
REMARK 922        TOTAL FREE ENERGY PREDICTED BY IDOCK:   -4.32 KCAL/MOL
REMARK 923 INTER-LIGAND FREE ENERGY PREDICTED BY IDOCK:   -4.02 KCAL/MOL
REMARK 924 INTRA-LIGAND FREE ENERGY PREDICTED BY IDOCK:   -0.30 KCAL/MOL
REMARK 927      BINDING AFFINITY PREDICTED BY RF-SCORE:    0.00 PKD
ROOT
HETATM    1  O   UNL     1      -5.648  12.847  70.139  1.00  0.00    -0.110 OA 
HETATM    2  N   UNL     1      -6.289  13.811  69.700  1.00  0.00    -0.120 N  
HETATM    3  O   UNL     1      -6.069  14.995  69.998  1.00  0.00    -0.132 OA 
HETATM    4  C   UNL     1      -7.377  13.536  68.754  1.00  0.00    -0.086 A  
HETATM    5  C   UNL     1      -7.659  12.219  68.384  1.00  0.00    -0.128 A  
HETATM    6  C   UNL     1      -8.664  11.967  67.441  1.00  0.00    -0.170 A  
HETATM    7  C   UNL     1      -9.412  13.009  66.856  1.00  0.00    -0.242 A  
HETATM    8  C   UNL     1      -8.116  14.592  68.214  1.00  0.00    -0.143 A  
HETATM    9  C   UNL     1      -9.126  14.321  67.282  1.00  0.00    -0.221 A  
ENDROOT
BRANCH   7  10
HETATM   10  C   UNL     1     -10.422  12.735  65.802  1.00  0.00    -0.294 A  
HETATM   11  C   UNL     1     -10.054  12.301  64.515  1.00  0.00    -0.280 A  
HETATM   12  C   UNL     1     -11.006  12.104  63.507  1.00  0.00    -0.521 A  
HETATM   13  C   UNL     1     -12.355  12.319  63.768  1.00  0.00    -0.637 A  
HETATM   14  C   UNL     1     -12.751  12.727  65.036  1.00  0.00    -0.455 A  
HETATM   15  C   UNL     1     -11.796  12.937  66.037  1.00  0.00    -0.485 A  
ENDBRANCH   7  10
TORSDOF 1
ENDMDL
MODEL       98
REMARK 921   NORMALIZED FREE ENERGY PREDICTED BY IDOCK:   -3.77 KCAL/MOL
REMARK 922        TOTAL FREE ENERGY PREDICTED BY IDOCK:   -4.31 KCAL/MOL
REMARK 923 INTER-LIGAND FREE ENERGY PREDICTED BY IDOCK:   -4.01 KCAL/MOL
REMARK 924 INTRA-LIGAND FREE ENERGY PREDICTED BY IDOCK:   -0.31 KCAL/MOL
REMARK 927      BINDING AFFINITY PREDICTED BY RF-SCORE:    0.00 PKD
ROOT
HETATM    1  O   UNL     1     -13.335  10.460  72.070  1.00  0.00    -0.433 OA 
HETATM    2  N   UNL     1     -13.457   9.227  72.078  1.00  0.00    -0.421 N  
HETATM    3  O   UNL     1     -14.405   8.618  72.596  1.00  0.00    -0.533 OA 
HETATM    4  C   UNL     1     -12.413   8.433  71.420  1.00  0.00    -0.288 A  
HETATM    5  C   UNL     1     -11.328   9.075  70.818  1.00  0.00    -0.329 A  
HETATM    6  C   UNL     1     -10.362   8.314  70.146  1.00  0.00    -0.212 A  
HETATM    7  C   UNL     1     -10.446   6.909  70.066  1.00  0.00    -0.231 A  
HETATM    8  C   UNL     1     -12.514   7.039  71.383  1.00  0.00    -0.426 A  
HETATM    9  C   UNL     1     -11.533   6.294  70.719  1.00  0.00    -0.383 A  
ENDROOT
BRANCH   7  10
HETATM   10  C   UNL     1      -9.457   6.121  69.287  1.00  0.00    -0.147 A  
HETATM   11  C   UNL     1      -9.854   5.178  68.322  1.00  0.00    -0.212 A  
HETATM   12  C   UNL     1      -8.919   4.393  67.635  1.00  0.00    -0.134 A  
HETATM   13  C   UNL     1      -7.560   4.547  67.885  1.00  0.00    -0.077 A  
HETATM   14  C   UNL     1      -7.136   5.486  68.818  1.00  0.00    -0.065 A  
HETATM   15  C   UNL     1      -8.074   6.258  69.513  1.00  0.00    -0.117 A  
ENDBRANCH   7  10
TORSDOF 1
ENDMDL
MODEL       99
REMARK 921   NORMALIZED FREE ENERGY PREDICTED BY IDOCK:   -3.76 KCAL/MOL
REMARK 922        TOTAL FREE ENERGY PREDICTED BY IDOCK:   -4.31 KCAL/MOL
REMARK 923 INTER-LIGAND FREE ENERGY PREDICTED BY IDOCK:   -4.00 KCAL/MOL
REMARK 924 INTRA-LIGAND FREE ENERGY PREDICTED BY IDOCK:   -0.30 KCAL/MOL
REMARK 927      BINDING AFFINITY PREDICTED BY RF-SCORE:    0.00 PKD
ROOT
HETATM    1  O   UNL     1      -6.812  10.315  64.336  1.00  0.00    -0.122 OA 
HETATM    2  N   UNL     1      -7.728   9.511  64.559  1.00  0.00    -0.113 N  
HETATM    3  O   UNL     1      -7.962   8.504  63.873  1.00  0.00    -0.146 OA 
HETATM    4  C   UNL     1      -8.590   9.761  65.720  1.00  0.00    -0.135 A  
HETATM    5  C   UNL     1      -8.362  10.879  66.526  1.00  0.00    -0.155 A  
HETATM    6  C   UNL     1      -9.155  11.083  67.663  1.00  0.00    -0.145 A  
HETATM    7  C   UNL     1     -10.190  10.194  68.017  1.00  0.00    -0.205 A  
HETATM    8  C   UNL     1      -9.624   8.872  66.026  1.00  0.00    -0.320 A  
HETATM    9  C   UNL     1     -10.415   9.099  67.160  1.00  0.00    -0.325 A  
ENDROOT
BRANCH   7  10
HETATM   10  C   UNL     1     -10.973  10.381  69.265  1.00  0.00    -0.287 A  
HETATM   11  C   UNL     1     -11.022   9.393  70.266  1.00  0.00    -0.305 A  
HETATM   12  C   UNL     1     -11.812   9.549  71.413  1.00  0.00    -0.464 A  
HETATM   13  C   UNL     1     -12.559  10.707  71.594  1.00  0.00    -0.482 A  
HETATM   14  C   UNL     1     -12.514  11.710  70.632  1.00  0.00    -0.386 A  
HETATM   15  C   UNL     1     -11.735  11.545  69.482  1.00  0.00    -0.413 A  
ENDBRANCH   7  10
TORSDOF 1
ENDMDL
MODEL      100
REMARK 921   NORMALIZED FREE ENERGY PREDICTED BY IDOCK:   -3.73 KCAL/MOL
REMARK 922        TOTAL FREE ENERGY PREDICTED BY IDOCK:   -4.27 KCAL/MOL
REMARK 923 INTER-LIGAND FREE ENERGY PREDICTED BY IDOCK:   -3.97 KCAL/MOL
REMARK 924 INTRA-LIGAND FREE ENERGY PREDICTED BY IDOCK:   -0.30 KCAL/MOL
REMARK 927      BINDING AFFINITY PREDICTED BY RF-SCORE:    0.00 PKD
ROOT
HETATM    1  O   UNL     1      -6.151   4.724  72.289  1.00  0.00    -0.019 OA 
HETATM    2  N   UNL     1      -6.723   5.346  73.195  1.00  0.00    -0.074 N  
HETATM    3  O   UNL     1      -6.386   5.318  74.388  1.00  0.00    -0.061 OA 
HETATM    4  C   UNL     1      -7.873   6.181  72.831  1.00  0.00    -0.105 A  
HETATM    5  C   UNL     1      -8.288   6.249  71.499  1.00  0.00    -0.126 A  
HETATM    6  C   UNL     1      -9.354   7.089  71.150  1.00  0.00    -0.158 A  
HETATM    7  C   UNL     1     -10.032   7.867  72.110  1.00  0.00    -0.266 A  
HETATM    8  C   UNL     1      -8.540   6.919  73.814  1.00  0.00    -0.165 A  
HETATM    9  C   UNL     1      -9.611   7.743  73.448  1.00  0.00    -0.352 A  
ENDROOT
BRANCH   7  10
HETATM   10  C   UNL     1     -11.109   8.810  71.715  1.00  0.00    -0.417 A  
HETATM   11  C   UNL     1     -10.900   9.817  70.756  1.00  0.00    -0.403 A  
HETATM   12  C   UNL     1     -11.901  10.743  70.433  1.00  0.00    -0.450 A  
HETATM   13  C   UNL     1     -13.144  10.671  71.052  1.00  0.00    -0.376 A  
HETATM   14  C   UNL     1     -13.388   9.674  71.988  1.00  0.00    -0.547 A  
HETATM   15  C   UNL     1     -12.381   8.760  72.319  1.00  0.00    -0.448 A  
ENDBRANCH   7  10
TORSDOF 1
ENDMDL
MODEL      101
REMARK 921   NORMALIZED FREE ENERGY PREDICTED BY IDOCK:   -3.72 KCAL/MOL
REMARK 922        TOTAL FREE ENERGY PREDICTED BY IDOCK:   -4.26 KCAL/MOL
REMARK 923 INTER-LIGAND FREE ENERGY PREDICTED BY IDOCK:   -3.94 KCAL/MOL
REMARK 924 INTRA-LIGAND FREE ENERGY PREDICTED BY IDOCK:   -0.33 KCAL/MOL
REMARK 927      BINDING AFFINITY PREDICTED BY RF-SCORE:    0.00 PKD
ROOT
HETATM    1  O   UNL     1      -8.050   7.877  63.306  1.00  0.00    -0.149 OA 
HETATM    2  N   UNL     1      -8.339   7.743  64.503  1.00  0.00    -0.056 N  
HETATM    3  O   UNL     1      -8.074   6.739  65.181  1.00  0.00    -0.126 OA 
HETATM    4  C   UNL     1      -9.033   8.852  65.167  1.00  0.00    -0.137 A  
HETATM    5  C   UNL     1      -9.348  10.005  64.446  1.00  0.00    -0.348 A  
HETATM    6  C   UNL     1      -9.964  11.081  65.100  1.00  0.00    -0.333 A  
HETATM    7  C   UNL     1     -10.286  11.032  66.471  1.00  0.00    -0.295 A  
HETATM    8  C   UNL     1      -9.362   8.758  66.523  1.00  0.00    -0.260 A  
HETATM    9  C   UNL     1      -9.989   9.838  67.157  1.00  0.00    -0.252 A  
ENDROOT
BRANCH   7  10
HETATM   10  C   UNL     1     -10.869  12.206  67.168  1.00  0.00    -0.286 A  
HETATM   11  C   UNL     1     -11.245  12.155  68.523  1.00  0.00    -0.307 A  
HETATM   12  C   UNL     1     -11.853  13.246  69.158  1.00  0.00    -0.378 A  
HETATM   13  C   UNL     1     -12.081  14.424  68.456  1.00  0.00    -0.278 A  
HETATM   14  C   UNL     1     -11.701  14.512  67.122  1.00  0.00    -0.420 A  
HETATM   15  C   UNL     1     -11.108  13.416  66.487  1.00  0.00    -0.312 A  
ENDBRANCH   7  10
TORSDOF 1
ENDMDL
MODEL      102
REMARK 921   NORMALIZED FREE ENERGY PREDICTED BY IDOCK:   -3.69 KCAL/MOL
REMARK 922        TOTAL FREE ENERGY PREDICTED BY IDOCK:   -4.24 KCAL/MOL
REMARK 923 INTER-LIGAND FREE ENERGY PREDICTED BY IDOCK:   -3.93 KCAL/MOL
REMARK 924 INTRA-LIGAND FREE ENERGY PREDICTED BY IDOCK:   -0.30 KCAL/MOL
REMARK 927      BINDING AFFINITY PREDICTED BY RF-SCORE:    0.00 PKD
ROOT
HETATM    1  O   UNL     1     -13.152  14.166  64.980  1.00  0.00    -0.728 OA 
HETATM    2  N   UNL     1     -11.946  14.390  65.159  1.00  0.00    -0.381 N  
HETATM    3  O   UNL     1     -11.366  15.429  64.807  1.00  0.00    -0.412 OA 
HETATM    4  C   UNL     1     -11.153  13.362  65.841  1.00  0.00    -0.280 A  
HETATM    5  C   UNL     1     -11.764  12.178  66.260  1.00  0.00    -0.389 A  
HETATM    6  C   UNL     1     -11.012  11.223  66.957  1.00  0.00    -0.352 A  
HETATM    7  C   UNL     1      -9.645  11.417  67.244  1.00  0.00    -0.187 A  
HETATM    8  C   UNL     1      -9.793  13.577  66.084  1.00  0.00    -0.292 A  
HETATM    9  C   UNL     1      -9.054  12.606  66.771  1.00  0.00    -0.214 A  
ENDROOT
BRANCH   7  10
HETATM   10  C   UNL     1      -8.879  10.432  68.049  1.00  0.00    -0.130 A  
HETATM   11  C   UNL     1      -8.232  10.794  69.245  1.00  0.00    -0.087 A  
HETATM   12  C   UNL     1      -7.459   9.875  69.968  1.00  0.00    -0.173 A  
HETATM   13  C   UNL     1      -7.331   8.565  69.519  1.00  0.00    -0.065 A  
HETATM   14  C   UNL     1      -7.976   8.173  68.352  1.00  0.00    -0.123 A  
HETATM   15  C   UNL     1      -8.735   9.097  67.626  1.00  0.00    -0.120 A  
ENDBRANCH   7  10
TORSDOF 1
ENDMDL
MODEL      103
REMARK 921   NORMALIZED FREE ENERGY PREDICTED BY IDOCK:   -3.63 KCAL/MOL
REMARK 922        TOTAL FREE ENERGY PREDICTED BY IDOCK:   -4.17 KCAL/MOL
REMARK 923 INTER-LIGAND FREE ENERGY PREDICTED BY IDOCK:   -3.84 KCAL/MOL
REMARK 924 INTRA-LIGAND FREE ENERGY PREDICTED BY IDOCK:   -0.32 KCAL/MOL
REMARK 927      BINDING AFFINITY PREDICTED BY RF-SCORE:    0.00 PKD
ROOT
HETATM    1  O   UNL     1      -8.013   5.376  67.586  1.00  0.00    -0.099 OA 
HETATM    2  N   UNL     1      -8.092   6.547  67.189  1.00  0.00    -0.112 N  
HETATM    3  O   UNL     1      -7.543   6.980  66.165  1.00  0.00    -0.090 OA 
HETATM    4  C   UNL     1      -8.897   7.484  67.980  1.00  0.00    -0.127 A  
HETATM    5  C   UNL     1      -9.539   7.042  69.140  1.00  0.00    -0.149 A  
HETATM    6  C   UNL     1     -10.349   7.929  69.861  1.00  0.00    -0.224 A  
HETATM    7  C   UNL     1     -10.531   9.267  69.456  1.00  0.00    -0.229 A  
HETATM    8  C   UNL     1      -9.034   8.812  67.564  1.00  0.00    -0.142 A  
HETATM    9  C   UNL     1      -9.838   9.688  68.305  1.00  0.00    -0.169 A  
ENDROOT
BRANCH   7  10
HETATM   10  C   UNL     1     -11.452  10.174  70.187  1.00  0.00    -0.368 A  
HETATM   11  C   UNL     1     -11.473  11.560  69.949  1.00  0.00    -0.340 A  
HETATM   12  C   UNL     1     -12.299  12.419  70.685  1.00  0.00    -0.367 A  
HETATM   13  C   UNL     1     -13.139  11.907  71.668  1.00  0.00    -0.433 A  
HETATM   14  C   UNL     1     -13.156  10.539  71.912  1.00  0.00    -0.567 A  
HETATM   15  C   UNL     1     -12.319   9.686  71.184  1.00  0.00    -0.427 A  
ENDBRANCH   7  10
TORSDOF 1
ENDMDL
MODEL      104
REMARK 921   NORMALIZED FREE ENERGY PREDICTED BY IDOCK:   -3.63 KCAL/MOL
REMARK 922        TOTAL FREE ENERGY PREDICTED BY IDOCK:   -4.16 KCAL/MOL
REMARK 923 INTER-LIGAND FREE ENERGY PREDICTED BY IDOCK:   -3.84 KCAL/MOL
REMARK 924 INTRA-LIGAND FREE ENERGY PREDICTED BY IDOCK:   -0.32 KCAL/MOL
REMARK 927      BINDING AFFINITY PREDICTED BY RF-SCORE:    0.00 PKD
ROOT
HETATM    1  O   UNL     1     -10.821  10.835  67.636  1.00  0.00    -0.236 OA 
HETATM    2  N   UNL     1     -10.550   9.686  67.260  1.00  0.00    -0.260 N  
HETATM    3  O   UNL     1     -10.215   9.385  66.104  1.00  0.00    -0.279 OA 
HETATM    4  C   UNL     1     -10.622   8.608  68.252  1.00  0.00    -0.128 A  
HETATM    5  C   UNL     1     -10.989   8.898  69.568  1.00  0.00    -0.097 A  
HETATM    6  C   UNL     1     -11.004   7.872  70.523  1.00  0.00    -0.250 A  
HETATM    7  C   UNL     1     -10.666   6.544  70.192  1.00  0.00    -0.305 A  
HETATM    8  C   UNL     1     -10.306   7.297  67.883  1.00  0.00    -0.253 A  
HETATM    9  C   UNL     1     -10.339   6.282  68.847  1.00  0.00    -0.246 A  
ENDROOT
BRANCH   7  10
HETATM   10  C   UNL     1     -10.613   5.482  71.229  1.00  0.00    -0.304 A  
HETATM   11  C   UNL     1      -9.966   4.254  71.001  1.00  0.00    -0.223 A  
HETATM   12  C   UNL     1      -9.973   3.232  71.959  1.00  0.00    -0.222 A  
HETATM   13  C   UNL     1     -10.613   3.422  73.179  1.00  0.00    -0.270 A  
HETATM   14  C   UNL     1     -11.243   4.633  73.441  1.00  0.00    -0.423 A  
HETATM   15  C   UNL     1     -11.247   5.646  72.476  1.00  0.00    -0.346 A  
ENDBRANCH   7  10
TORSDOF 1
ENDMDL
MODEL      105
REMARK 921   NORMALIZED FREE ENERGY PREDICTED BY IDOCK:   -3.61 KCAL/MOL
REMARK 922        TOTAL FREE ENERGY PREDICTED BY IDOCK:   -4.15 KCAL/MOL
REMARK 923 INTER-LIGAND FREE ENERGY PREDICTED BY IDOCK:   -3.82 KCAL/MOL
REMARK 924 INTRA-LIGAND FREE ENERGY PREDICTED BY IDOCK:   -0.33 KCAL/MOL
REMARK 927      BINDING AFFINITY PREDICTED BY RF-SCORE:    0.00 PKD
ROOT
HETATM    1  O   UNL     1      -8.514   6.905  67.804  1.00  0.00    -0.122 OA 
HETATM    2  N   UNL     1      -8.541   8.082  67.421  1.00  0.00    -0.125 N  
HETATM    3  O   UNL     1      -7.955   8.507  66.414  1.00  0.00    -0.096 OA 
HETATM    4  C   UNL     1      -9.328   9.039  68.207  1.00  0.00    -0.139 A  
HETATM    5  C   UNL     1     -10.010   8.606  69.347  1.00  0.00    -0.197 A  
HETATM    6  C   UNL     1     -10.802   9.514  70.063  1.00  0.00    -0.286 A  
HETATM    7  C   UNL     1     -10.927  10.863  69.671  1.00  0.00    -0.311 A  
HETATM    8  C   UNL     1      -9.407  10.375  67.805  1.00  0.00    -0.155 A  
HETATM    9  C   UNL     1     -10.193  11.271  68.540  1.00  0.00    -0.214 A  
ENDROOT
BRANCH   7  10
HETATM   10  C   UNL     1     -11.829  11.795  70.394  1.00  0.00    -0.362 A  
HETATM   11  C   UNL     1     -12.548  11.396  71.535  1.00  0.00    -0.393 A  
HETATM   12  C   UNL     1     -13.445  12.261  72.176  1.00  0.00    -0.431 A  
HETATM   13  C   UNL     1     -13.630  13.554  71.700  1.00  0.00    -0.342 A  
HETATM   14  C   UNL     1     -12.917  13.983  70.587  1.00  0.00    -0.261 A  
HETATM   15  C   UNL     1     -12.033  13.113  69.941  1.00  0.00    -0.387 A  
ENDBRANCH   7  10
TORSDOF 1
ENDMDL
MODEL      106
REMARK 921   NORMALIZED FREE ENERGY PREDICTED BY IDOCK:   -3.59 KCAL/MOL
REMARK 922        TOTAL FREE ENERGY PREDICTED BY IDOCK:   -4.12 KCAL/MOL
REMARK 923 INTER-LIGAND FREE ENERGY PREDICTED BY IDOCK:   -3.79 KCAL/MOL
REMARK 924 INTRA-LIGAND FREE ENERGY PREDICTED BY IDOCK:   -0.33 KCAL/MOL
REMARK 927      BINDING AFFINITY PREDICTED BY RF-SCORE:    0.00 PKD
ROOT
HETATM    1  O   UNL     1     -12.804  10.278  72.026  1.00  0.00    -0.417 OA 
HETATM    2  N   UNL     1     -12.180   9.243  71.752  1.00  0.00    -0.363 N  
HETATM    3  O   UNL     1     -12.160   8.226  72.462  1.00  0.00    -0.385 OA 
HETATM    4  C   UNL     1     -11.422   9.214  70.497  1.00  0.00    -0.229 A  
HETATM    5  C   UNL     1     -11.419  10.334  69.661  1.00  0.00    -0.297 A  
HETATM    6  C   UNL     1     -10.735  10.280  68.439  1.00  0.00    -0.263 A  
HETATM    7  C   UNL     1     -10.037   9.126  68.026  1.00  0.00    -0.238 A  
HETATM    8  C   UNL     1     -10.719   8.062  70.132  1.00  0.00    -0.244 A  
HETATM    9  C   UNL     1     -10.030   8.031  68.913  1.00  0.00    -0.199 A  
ENDROOT
BRANCH   7  10
HETATM   10  C   UNL     1      -9.382   9.057  66.696  1.00  0.00    -0.229 A  
HETATM   11  C   UNL     1      -9.348  10.162  65.826  1.00  0.00    -0.239 A  
HETATM   12  C   UNL     1      -8.783  10.073  64.547  1.00  0.00    -0.214 A  
HETATM   13  C   UNL     1      -8.220   8.877  64.115  1.00  0.00    -0.167 A  
HETATM   14  C   UNL     1      -8.219   7.774  64.960  1.00  0.00    -0.123 A  
HETATM   15  C   UNL     1      -8.797   7.863  66.231  1.00  0.00    -0.188 A  
ENDBRANCH   7  10
TORSDOF 1
ENDMDL
MODEL      107
REMARK 921   NORMALIZED FREE ENERGY PREDICTED BY IDOCK:   -3.58 KCAL/MOL
REMARK 922        TOTAL FREE ENERGY PREDICTED BY IDOCK:   -4.12 KCAL/MOL
REMARK 923 INTER-LIGAND FREE ENERGY PREDICTED BY IDOCK:   -3.81 KCAL/MOL
REMARK 924 INTRA-LIGAND FREE ENERGY PREDICTED BY IDOCK:   -0.31 KCAL/MOL
REMARK 927      BINDING AFFINITY PREDICTED BY RF-SCORE:    0.00 PKD
ROOT
HETATM    1  O   UNL     1      -9.248   5.717  65.652  1.00  0.00    -0.142 OA 
HETATM    2  N   UNL     1      -8.726   6.817  65.423  1.00  0.00    -0.048 N  
HETATM    3  O   UNL     1      -7.778   6.995  64.644  1.00  0.00    -0.102 OA 
HETATM    4  C   UNL     1      -9.273   7.990  66.113  1.00  0.00    -0.163 A  
HETATM    5  C   UNL     1     -10.345   7.840  66.996  1.00  0.00    -0.405 A  
HETATM    6  C   UNL     1     -10.896   8.972  67.611  1.00  0.00    -0.133 A  
HETATM    7  C   UNL     1     -10.393  10.268  67.372  1.00  0.00    -0.282 A  
HETATM    8  C   UNL     1      -8.732   9.257  65.872  1.00  0.00    -0.179 A  
HETATM    9  C   UNL     1      -9.287  10.376  66.506  1.00  0.00    -0.193 A  
ENDROOT
BRANCH   7  10
HETATM   10  C   UNL     1     -11.034  11.465  67.971  1.00  0.00    -0.290 A  
HETATM   11  C   UNL     1     -11.289  12.626  67.218  1.00  0.00    -0.372 A  
HETATM   12  C   UNL     1     -11.837  13.775  67.803  1.00  0.00    -0.404 A  
HETATM   13  C   UNL     1     -12.160  13.783  69.156  1.00  0.00    -0.374 A  
HETATM   14  C   UNL     1     -11.940  12.644  69.921  1.00  0.00    -0.365 A  
HETATM   15  C   UNL     1     -11.379  11.504  69.336  1.00  0.00    -0.355 A  
ENDBRANCH   7  10
TORSDOF 1
ENDMDL
MODEL      108
REMARK 921   NORMALIZED FREE ENERGY PREDICTED BY IDOCK:   -3.42 KCAL/MOL
REMARK 922        TOTAL FREE ENERGY PREDICTED BY IDOCK:   -3.95 KCAL/MOL
REMARK 923 INTER-LIGAND FREE ENERGY PREDICTED BY IDOCK:   -3.62 KCAL/MOL
REMARK 924 INTRA-LIGAND FREE ENERGY PREDICTED BY IDOCK:   -0.32 KCAL/MOL
REMARK 927      BINDING AFFINITY PREDICTED BY RF-SCORE:    0.00 PKD
ROOT
HETATM    1  O   UNL     1      -9.603  14.310  67.867  1.00  0.00    -0.210 OA 
HETATM    2  N   UNL     1      -9.955  13.559  66.946  1.00  0.00    -0.250 N  
HETATM    3  O   UNL     1     -10.198  13.933  65.789  1.00  0.00    -0.298 OA 
HETATM    4  C   UNL     1     -10.084  12.128  67.242  1.00  0.00    -0.202 A  
HETATM    5  C   UNL     1      -9.816  11.658  68.530  1.00  0.00    -0.196 A  
HETATM    6  C   UNL     1      -9.890  10.284  68.793  1.00  0.00    -0.184 A  
HETATM    7  C   UNL     1     -10.238   9.353  67.792  1.00  0.00    -0.273 A  
HETATM    8  C   UNL     1     -10.457  11.237  66.232  1.00  0.00    -0.308 A  
HETATM    9  C   UNL     1     -10.539   9.868  66.516  1.00  0.00    -0.156 A  
ENDROOT
BRANCH   7  10
HETATM   10  C   UNL     1     -10.238   7.894  68.064  1.00  0.00    -0.256 A  
HETATM   11  C   UNL     1      -9.898   7.373  69.326  1.00  0.00    -0.168 A  
HETATM   12  C   UNL     1      -9.839   5.993  69.560  1.00  0.00    -0.202 A  
HETATM   13  C   UNL     1     -10.139   5.099  68.538  1.00  0.00    -0.214 A  
HETATM   14  C   UNL     1     -10.500   5.583  67.286  1.00  0.00    -0.300 A  
HETATM   15  C   UNL     1     -10.543   6.962  67.053  1.00  0.00    -0.403 A  
ENDBRANCH   7  10
TORSDOF 1
ENDMDL
MODEL      109
REMARK 921   NORMALIZED FREE ENERGY PREDICTED BY IDOCK:   -3.36 KCAL/MOL
REMARK 922        TOTAL FREE ENERGY PREDICTED BY IDOCK:   -3.89 KCAL/MOL
REMARK 923 INTER-LIGAND FREE ENERGY PREDICTED BY IDOCK:   -3.56 KCAL/MOL
REMARK 924 INTRA-LIGAND FREE ENERGY PREDICTED BY IDOCK:   -0.32 KCAL/MOL
REMARK 927      BINDING AFFINITY PREDICTED BY RF-SCORE:    0.00 PKD
ROOT
HETATM    1  O   UNL     1     -10.992  12.711  65.696  1.00  0.00    -0.270 OA 
HETATM    2  N   UNL     1     -11.128  12.435  66.896  1.00  0.00    -0.272 N  
HETATM    3  O   UNL     1     -11.571  13.218  67.750  1.00  0.00    -0.300 OA 
HETATM    4  C   UNL     1     -10.748  11.088  67.335  1.00  0.00    -0.257 A  
HETATM    5  C   UNL     1     -10.250  10.170  66.408  1.00  0.00    -0.288 A  
HETATM    6  C   UNL     1      -9.939   8.869  66.824  1.00  0.00    -0.338 A  
HETATM    7  C   UNL     1     -10.106   8.456  68.162  1.00  0.00    -0.239 A  
HETATM    8  C   UNL     1     -10.903  10.721  68.675  1.00  0.00    -0.260 A  
HETATM    9  C   UNL     1     -10.574   9.420  69.076  1.00  0.00    -0.233 A  
ENDROOT
BRANCH   7  10
HETATM   10  C   UNL     1      -9.845   7.053  68.573  1.00  0.00    -0.147 A  
HETATM   11  C   UNL     1      -9.778   6.005  67.638  1.00  0.00    -0.120 A  
HETATM   12  C   UNL     1      -9.594   4.675  68.038  1.00  0.00    -0.207 A  
HETATM   13  C   UNL     1      -9.453   4.364  69.386  1.00  0.00    -0.251 A  
HETATM   14  C   UNL     1      -9.493   5.381  70.332  1.00  0.00    -0.215 A  
HETATM   15  C   UNL     1      -9.692   6.706  69.930  1.00  0.00    -0.167 A  
ENDBRANCH   7  10
TORSDOF 1
ENDMDL
MODEL      110
REMARK 921   NORMALIZED FREE ENERGY PREDICTED BY IDOCK:   -3.36 KCAL/MOL
REMARK 922        TOTAL FREE ENERGY PREDICTED BY IDOCK:   -3.88 KCAL/MOL
REMARK 923 INTER-LIGAND FREE ENERGY PREDICTED BY IDOCK:   -3.58 KCAL/MOL
REMARK 924 INTRA-LIGAND FREE ENERGY PREDICTED BY IDOCK:   -0.30 KCAL/MOL
REMARK 927      BINDING AFFINITY PREDICTED BY RF-SCORE:    0.00 PKD
ROOT
HETATM    1  O   UNL     1      -9.444   3.076  66.442  1.00  0.00    -0.119 OA 
HETATM    2  N   UNL     1      -8.838   3.705  67.320  1.00  0.00    -0.116 N  
HETATM    3  O   UNL     1      -7.840   3.283  67.924  1.00  0.00    -0.070 OA 
HETATM    4  C   UNL     1      -9.328   5.044  67.664  1.00  0.00    -0.126 A  
HETATM    5  C   UNL     1     -10.446   5.564  67.008  1.00  0.00    -0.336 A  
HETATM    6  C   UNL     1     -10.877   6.864  67.304  1.00  0.00    -0.426 A  
HETATM    7  C   UNL     1     -10.218   7.667  68.258  1.00  0.00    -0.229 A  
HETATM    8  C   UNL     1      -8.666   5.802  68.635  1.00  0.00    -0.108 A  
HETATM    9  C   UNL     1      -9.119   7.095  68.927  1.00  0.00    -0.131 A  
ENDROOT
BRANCH   7  10
HETATM   10  C   UNL     1     -10.639   9.069  68.507  1.00  0.00    -0.196 A  
HETATM   11  C   UNL     1     -10.955   9.531  69.797  1.00  0.00    -0.245 A  
HETATM   12  C   UNL     1     -11.412  10.838  70.017  1.00  0.00    -0.412 A  
HETATM   13  C   UNL     1     -11.545  11.720  68.951  1.00  0.00    -0.370 A  
HETATM   14  C   UNL     1     -11.220  11.298  67.667  1.00  0.00    -0.357 A  
HETATM   15  C   UNL     1     -10.778   9.989  67.449  1.00  0.00    -0.336 A  
ENDBRANCH   7  10
TORSDOF 1
ENDMDL
MODEL      111
REMARK 921   NORMALIZED FREE ENERGY PREDICTED BY IDOCK:   -3.34 KCAL/MOL
REMARK 922        TOTAL FREE ENERGY PREDICTED BY IDOCK:   -3.86 KCAL/MOL
REMARK 923 INTER-LIGAND FREE ENERGY PREDICTED BY IDOCK:   -3.54 KCAL/MOL
REMARK 924 INTRA-LIGAND FREE ENERGY PREDICTED BY IDOCK:   -0.32 KCAL/MOL
REMARK 927      BINDING AFFINITY PREDICTED BY RF-SCORE:    0.00 PKD
ROOT
HETATM    1  O   UNL     1     -11.021   9.100  71.711  1.00  0.00    -0.353 OA 
HETATM    2  N   UNL     1     -10.833   7.901  71.959  1.00  0.00    -0.240 N  
HETATM    3  O   UNL     1     -10.921   7.395  73.088  1.00  0.00    -0.357 OA 
HETATM    4  C   UNL     1     -10.493   7.016  70.839  1.00  0.00    -0.214 A  
HETATM    5  C   UNL     1     -10.388   7.539  69.548  1.00  0.00    -0.216 A  
HETATM    6  C   UNL     1     -10.114   6.680  68.476  1.00  0.00    -0.166 A  
HETATM    7  C   UNL     1      -9.931   5.294  68.661  1.00  0.00    -0.234 A  
HETATM    8  C   UNL     1     -10.291   5.651  71.064  1.00  0.00    -0.297 A  
HETATM    9  C   UNL     1     -10.006   4.809  69.981  1.00  0.00    -0.314 A  
ENDROOT
BRANCH   7  10
HETATM   10  C   UNL     1      -9.718   4.384  67.507  1.00  0.00    -0.211 A  
HETATM   11  C   UNL     1      -9.191   3.090  67.670  1.00  0.00    -0.240 A  
HETATM   12  C   UNL     1      -8.932   2.259  66.571  1.00  0.00    -0.123 A  
HETATM   13  C   UNL     1      -9.214   2.699  65.282  1.00  0.00    -0.124 A  
HETATM   14  C   UNL     1      -9.756   3.964  65.092  1.00  0.00    -0.191 A  
HETATM   15  C   UNL     1      -9.998   4.797  66.190  1.00  0.00    -0.261 A  
ENDBRANCH   7  10
TORSDOF 1
ENDMDL
MODEL      112
REMARK 921   NORMALIZED FREE ENERGY PREDICTED BY IDOCK:   -3.30 KCAL/MOL
REMARK 922        TOTAL FREE ENERGY PREDICTED BY IDOCK:   -3.82 KCAL/MOL
REMARK 923 INTER-LIGAND FREE ENERGY PREDICTED BY IDOCK:   -3.51 KCAL/MOL
REMARK 924 INTRA-LIGAND FREE ENERGY PREDICTED BY IDOCK:   -0.30 KCAL/MOL
REMARK 927      BINDING AFFINITY PREDICTED BY RF-SCORE:    0.00 PKD
ROOT
HETATM    1  O   UNL     1      -8.868  10.377  69.420  1.00  0.00    -0.167 OA 
HETATM    2  N   UNL     1      -9.984   9.922  69.705  1.00  0.00    -0.231 N  
HETATM    3  O   UNL     1     -11.058  10.495  69.467  1.00  0.00    -0.231 OA 
HETATM    4  C   UNL     1     -10.041   8.611  70.361  1.00  0.00    -0.188 A  
HETATM    5  C   UNL     1      -8.857   7.924  70.644  1.00  0.00    -0.140 A  
HETATM    6  C   UNL     1      -8.921   6.649  71.222  1.00  0.00    -0.144 A  
HETATM    7  C   UNL     1     -10.151   6.036  71.537  1.00  0.00    -0.232 A  
HETATM    8  C   UNL     1     -11.277   8.044  70.684  1.00  0.00    -0.266 A  
HETATM    9  C   UNL     1     -11.321   6.775  71.273  1.00  0.00    -0.333 A  
ENDROOT
BRANCH   7  10
HETATM   10  C   UNL     1     -10.206   4.655  72.079  1.00  0.00    -0.258 A  
HETATM   11  C   UNL     1      -9.670   3.560  71.377  1.00  0.00    -0.236 A  
HETATM   12  C   UNL     1      -9.781   2.251  71.864  1.00  0.00    -0.212 A  
HETATM   13  C   UNL     1     -10.417   2.008  73.076  1.00  0.00    -0.229 A  
HETATM   14  C   UNL     1     -10.938   3.072  73.803  1.00  0.00    -0.313 A  
HETATM   15  C   UNL     1     -10.838   4.376  73.307  1.00  0.00    -0.336 A  
ENDBRANCH   7  10
TORSDOF 1
ENDMDL
MODEL      113
REMARK 921   NORMALIZED FREE ENERGY PREDICTED BY IDOCK:   -3.21 KCAL/MOL
REMARK 922        TOTAL FREE ENERGY PREDICTED BY IDOCK:   -3.73 KCAL/MOL
REMARK 923 INTER-LIGAND FREE ENERGY PREDICTED BY IDOCK:   -3.43 KCAL/MOL
REMARK 924 INTRA-LIGAND FREE ENERGY PREDICTED BY IDOCK:   -0.29 KCAL/MOL
REMARK 927      BINDING AFFINITY PREDICTED BY RF-SCORE:    0.00 PKD
ROOT
HETATM    1  O   UNL     1      -9.356  19.685  65.838  1.00  0.00    -0.383 OA 
HETATM    2  N   UNL     1      -9.914  19.090  66.769  1.00  0.00    -0.336 N  
HETATM    3  O   UNL     1     -11.006  19.418  67.258  1.00  0.00    -0.491 OA 
HETATM    4  C   UNL     1      -9.244  17.911  67.328  1.00  0.00    -0.254 A  
HETATM    5  C   UNL     1      -8.015  17.499  66.806  1.00  0.00    -0.273 A  
HETATM    6  C   UNL     1      -7.405  16.341  67.309  1.00  0.00    -0.216 A  
HETATM    7  C   UNL     1      -7.994  15.578  68.338  1.00  0.00    -0.127 A  
HETATM    8  C   UNL     1      -9.843  17.192  68.367  1.00  0.00    -0.296 A  
HETATM    9  C   UNL     1      -9.213  16.045  68.865  1.00  0.00    -0.233 A  
ENDROOT
BRANCH   7  10
HETATM   10  C   UNL     1      -7.375  14.312  68.808  1.00  0.00    -0.131 A  
HETATM   11  C   UNL     1      -7.792  13.058  68.327  1.00  0.00    -0.143 A  
HETATM   12  C   UNL     1      -7.248  11.865  68.820  1.00  0.00    -0.112 A  
HETATM   13  C   UNL     1      -6.258  11.900  69.795  1.00  0.00    -0.137 A  
HETATM   14  C   UNL     1      -5.810  13.124  70.275  1.00  0.00    -0.156 A  
HETATM   15  C   UNL     1      -6.366  14.314  69.791  1.00  0.00    -0.144 A  
ENDBRANCH   7  10
TORSDOF 1
ENDMDL
MODEL      114
REMARK 921   NORMALIZED FREE ENERGY PREDICTED BY IDOCK:   -3.20 KCAL/MOL
REMARK 922        TOTAL FREE ENERGY PREDICTED BY IDOCK:   -3.71 KCAL/MOL
REMARK 923 INTER-LIGAND FREE ENERGY PREDICTED BY IDOCK:   -3.41 KCAL/MOL
REMARK 924 INTRA-LIGAND FREE ENERGY PREDICTED BY IDOCK:   -0.30 KCAL/MOL
REMARK 927      BINDING AFFINITY PREDICTED BY RF-SCORE:    0.00 PKD
ROOT
HETATM    1  O   UNL     1      -7.223   4.314  71.526  1.00  0.00    -0.047 OA 
HETATM    2  N   UNL     1      -7.469   5.231  72.321  1.00  0.00    -0.093 N  
HETATM    3  O   UNL     1      -7.063   5.272  73.493  1.00  0.00    -0.082 OA 
HETATM    4  C   UNL     1      -8.288   6.350  71.843  1.00  0.00    -0.116 A  
HETATM    5  C   UNL     1      -8.764   6.351  70.530  1.00  0.00    -0.144 A  
HETATM    6  C   UNL     1      -9.502   7.448  70.064  1.00  0.00    -0.161 A  
HETATM    7  C   UNL     1      -9.788   8.555  70.888  1.00  0.00    -0.234 A  
HETATM    8  C   UNL     1      -8.576   7.419  72.697  1.00  0.00    -0.141 A  
HETATM    9  C   UNL     1      -9.326   8.501  72.218  1.00  0.00    -0.363 A  
ENDROOT
BRANCH   7  10
HETATM   10  C   UNL     1     -10.505   9.743  70.360  1.00  0.00    -0.358 A  
HETATM   11  C   UNL     1     -11.771  10.122  70.843  1.00  0.00    -0.468 A  
HETATM   12  C   UNL     1     -12.470  11.207  70.297  1.00  0.00    -0.354 A  
HETATM   13  C   UNL     1     -11.909  11.951  69.265  1.00  0.00    -0.379 A  
HETATM   14  C   UNL     1     -10.651  11.614  68.782  1.00  0.00    -0.241 A  
HETATM   15  C   UNL     1      -9.962  10.521  69.319  1.00  0.00    -0.233 A  
ENDBRANCH   7  10
TORSDOF 1
ENDMDL
MODEL      115
REMARK 921   NORMALIZED FREE ENERGY PREDICTED BY IDOCK:   -3.20 KCAL/MOL
REMARK 922        TOTAL FREE ENERGY PREDICTED BY IDOCK:   -3.71 KCAL/MOL
REMARK 923 INTER-LIGAND FREE ENERGY PREDICTED BY IDOCK:   -3.42 KCAL/MOL
REMARK 924 INTRA-LIGAND FREE ENERGY PREDICTED BY IDOCK:   -0.29 KCAL/MOL
REMARK 927      BINDING AFFINITY PREDICTED BY RF-SCORE:    0.00 PKD
ROOT
HETATM    1  O   UNL     1     -13.138  10.461  71.508  1.00  0.00    -0.390 OA 
HETATM    2  N   UNL     1     -12.975   9.422  72.162  1.00  0.00    -0.411 N  
HETATM    3  O   UNL     1     -13.868   8.850  72.806  1.00  0.00    -0.407 OA 
HETATM    4  C   UNL     1     -11.637   8.820  72.169  1.00  0.00    -0.364 A  
HETATM    5  C   UNL     1     -10.600   9.425  71.455  1.00  0.00    -0.381 A  
HETATM    6  C   UNL     1      -9.338   8.817  71.423  1.00  0.00    -0.328 A  
HETATM    7  C   UNL     1      -9.077   7.609  72.101  1.00  0.00    -0.180 A  
HETATM    8  C   UNL     1     -11.407   7.636  72.876  1.00  0.00    -0.394 A  
HETATM    9  C   UNL     1     -10.136   7.049  72.843  1.00  0.00    -0.225 A  
ENDROOT
BRANCH   7  10
HETATM   10  C   UNL     1      -7.757   6.936  71.997  1.00  0.00    -0.094 A  
HETATM   11  C   UNL     1      -7.433   6.101  70.912  1.00  0.00    -0.095 A  
HETATM   12  C   UNL     1      -6.211   5.420  70.850  1.00  0.00    -0.030 A  
HETATM   13  C   UNL     1      -5.274   5.573  71.866  1.00  0.00    -0.012 A  
HETATM   14  C   UNL     1      -5.557   6.408  72.940  1.00  0.00    -0.038 A  
HETATM   15  C   UNL     1      -6.784   7.076  73.006  1.00  0.00    -0.069 A  
ENDBRANCH   7  10
TORSDOF 1
ENDMDL
MODEL      116
REMARK 921   NORMALIZED FREE ENERGY PREDICTED BY IDOCK:   -3.14 KCAL/MOL
REMARK 922        TOTAL FREE ENERGY PREDICTED BY IDOCK:   -3.65 KCAL/MOL
REMARK 923 INTER-LIGAND FREE ENERGY PREDICTED BY IDOCK:   -3.33 KCAL/MOL
REMARK 924 INTRA-LIGAND FREE ENERGY PREDICTED BY IDOCK:   -0.32 KCAL/MOL
REMARK 927      BINDING AFFINITY PREDICTED BY RF-SCORE:    0.00 PKD
ROOT
HETATM    1  O   UNL     1     -11.897  12.158  67.072  1.00  0.00    -0.547 OA 
HETATM    2  N   UNL     1     -11.711  11.210  67.847  1.00  0.00    -0.239 N  
HETATM    3  O   UNL     1     -12.213  11.119  68.978  1.00  0.00    -0.469 OA 
HETATM    4  C   UNL     1     -10.847  10.115  67.394  1.00  0.00    -0.261 A  
HETATM    5  C   UNL     1     -10.264  10.170  66.125  1.00  0.00    -0.285 A  
HETATM    6  C   UNL     1      -9.482   9.096  65.678  1.00  0.00    -0.309 A  
HETATM    7  C   UNL     1      -9.257   7.957  66.478  1.00  0.00    -0.238 A  
HETATM    8  C   UNL     1     -10.623   9.012  68.224  1.00  0.00    -0.213 A  
HETATM    9  C   UNL     1      -9.828   7.954  67.765  1.00  0.00    -0.204 A  
ENDROOT
BRANCH   7  10
HETATM   10  C   UNL     1      -8.490   6.794  65.962  1.00  0.00    -0.143 A  
HETATM   11  C   UNL     1      -8.736   5.484  66.413  1.00  0.00    -0.123 A  
HETATM   12  C   UNL     1      -7.967   4.399  65.970  1.00  0.00    -0.099 A  
HETATM   13  C   UNL     1      -6.944   4.599  65.049  1.00  0.00    -0.061 A  
HETATM   14  C   UNL     1      -6.691   5.878  64.570  1.00  0.00    -0.046 A  
HETATM   15  C   UNL     1      -7.451   6.961  65.026  1.00  0.00    -0.096 A  
ENDBRANCH   7  10
TORSDOF 1
ENDMDL
MODEL      117
REMARK 921   NORMALIZED FREE ENERGY PREDICTED BY IDOCK:   -3.09 KCAL/MOL
REMARK 922        TOTAL FREE ENERGY PREDICTED BY IDOCK:   -3.59 KCAL/MOL
REMARK 923 INTER-LIGAND FREE ENERGY PREDICTED BY IDOCK:   -3.27 KCAL/MOL
REMARK 924 INTRA-LIGAND FREE ENERGY PREDICTED BY IDOCK:   -0.32 KCAL/MOL
REMARK 927      BINDING AFFINITY PREDICTED BY RF-SCORE:    0.00 PKD
ROOT
HETATM    1  O   UNL     1     -13.451   9.791  72.366  1.00  0.00    -0.413 OA 
HETATM    2  N   UNL     1     -13.209   8.719  71.794  1.00  0.00    -0.348 N  
HETATM    3  O   UNL     1     -13.951   7.726  71.821  1.00  0.00    -0.373 OA 
HETATM    4  C   UNL     1     -11.963   8.619  71.026  1.00  0.00    -0.243 A  
HETATM    5  C   UNL     1     -11.097   9.714  70.962  1.00  0.00    -0.438 A  
HETATM    6  C   UNL     1      -9.935   9.629  70.183  1.00  0.00    -0.309 A  
HETATM    7  C   UNL     1      -9.605   8.463  69.463  1.00  0.00    -0.170 A  
HETATM    8  C   UNL     1     -11.654   7.437  70.346  1.00  0.00    -0.210 A  
HETATM    9  C   UNL     1     -10.482   7.367  69.583  1.00  0.00    -0.237 A  
ENDROOT
BRANCH   7  10
HETATM   10  C   UNL     1      -8.411   8.413  68.582  1.00  0.00    -0.128 A  
HETATM   11  C   UNL     1      -7.662   7.235  68.412  1.00  0.00    -0.120 A  
HETATM   12  C   UNL     1      -6.501   7.210  67.629  1.00  0.00    -0.048 A  
HETATM   13  C   UNL     1      -6.071   8.363  66.981  1.00  0.00    -0.055 A  
HETATM   14  C   UNL     1      -6.802   9.537  67.112  1.00  0.00    -0.084 A  
HETATM   15  C   UNL     1      -7.953   9.562  67.907  1.00  0.00    -0.098 A  
ENDBRANCH   7  10
TORSDOF 1
ENDMDL
MODEL      118
REMARK 921   NORMALIZED FREE ENERGY PREDICTED BY IDOCK:   -3.07 KCAL/MOL
REMARK 922        TOTAL FREE ENERGY PREDICTED BY IDOCK:   -3.57 KCAL/MOL
REMARK 923 INTER-LIGAND FREE ENERGY PREDICTED BY IDOCK:   -3.25 KCAL/MOL
REMARK 924 INTRA-LIGAND FREE ENERGY PREDICTED BY IDOCK:   -0.33 KCAL/MOL
REMARK 927      BINDING AFFINITY PREDICTED BY RF-SCORE:    0.00 PKD
ROOT
HETATM    1  O   UNL     1     -10.734   4.866  71.481  1.00  0.00    -0.114 OA 
HETATM    2  N   UNL     1      -9.847   5.416  70.815  1.00  0.00    -0.179 N  
HETATM    3  O   UNL     1      -8.823   4.848  70.405  1.00  0.00    -0.100 OA 
HETATM    4  C   UNL     1     -10.022   6.833  70.479  1.00  0.00    -0.183 A  
HETATM    5  C   UNL     1     -11.162   7.514  70.914  1.00  0.00    -0.286 A  
HETATM    6  C   UNL     1     -11.348   8.853  70.545  1.00  0.00    -0.268 A  
HETATM    7  C   UNL     1     -10.410   9.543  69.750  1.00  0.00    -0.251 A  
HETATM    8  C   UNL     1      -9.058   7.493  69.711  1.00  0.00    -0.140 A  
HETATM    9  C   UNL     1      -9.255   8.835  69.363  1.00  0.00    -0.146 A  
ENDROOT
BRANCH   7  10
HETATM   10  C   UNL     1     -10.657  10.937  69.303  1.00  0.00    -0.251 A  
HETATM   11  C   UNL     1      -9.695  11.667  68.581  1.00  0.00    -0.151 A  
HETATM   12  C   UNL     1      -9.908  13.003  68.217  1.00  0.00    -0.225 A  
HETATM   13  C   UNL     1     -11.100  13.636  68.552  1.00  0.00    -0.301 A  
HETATM   14  C   UNL     1     -12.078  12.934  69.246  1.00  0.00    -0.234 A  
HETATM   15  C   UNL     1     -11.856  11.605  69.621  1.00  0.00    -0.419 A  
ENDBRANCH   7  10
TORSDOF 1
ENDMDL
MODEL      119
REMARK 921   NORMALIZED FREE ENERGY PREDICTED BY IDOCK:   -3.07 KCAL/MOL
REMARK 922        TOTAL FREE ENERGY PREDICTED BY IDOCK:   -3.57 KCAL/MOL
REMARK 923 INTER-LIGAND FREE ENERGY PREDICTED BY IDOCK:   -3.25 KCAL/MOL
REMARK 924 INTRA-LIGAND FREE ENERGY PREDICTED BY IDOCK:   -0.33 KCAL/MOL
REMARK 927      BINDING AFFINITY PREDICTED BY RF-SCORE:    0.00 PKD
ROOT
HETATM    1  O   UNL     1      -9.658   7.852  73.332  1.00  0.00    -0.281 OA 
HETATM    2  N   UNL     1     -10.580   8.167  72.566  1.00  0.00    -0.318 N  
HETATM    3  O   UNL     1     -11.772   8.250  72.899  1.00  0.00    -0.348 OA 
HETATM    4  C   UNL     1     -10.237   8.471  71.173  1.00  0.00    -0.214 A  
HETATM    5  C   UNL     1      -8.907   8.396  70.753  1.00  0.00    -0.171 A  
HETATM    6  C   UNL     1      -8.579   8.739  69.434  1.00  0.00    -0.133 A  
HETATM    7  C   UNL     1      -9.559   9.153  68.508  1.00  0.00    -0.156 A  
HETATM    8  C   UNL     1     -11.238   8.852  70.274  1.00  0.00    -0.219 A  
HETATM    9  C   UNL     1     -10.894   9.179  68.957  1.00  0.00    -0.115 A  
ENDROOT
BRANCH   7  10
HETATM   10  C   UNL     1      -9.189   9.586  67.137  1.00  0.00    -0.158 A  
HETATM   11  C   UNL     1     -10.158   9.958  66.188  1.00  0.00    -0.315 A  
HETATM   12  C   UNL     1      -9.807  10.305  64.877  1.00  0.00    -0.404 A  
HETATM   13  C   UNL     1      -8.472  10.307  64.489  1.00  0.00    -0.183 A  
HETATM   14  C   UNL     1      -7.490   9.964  65.410  1.00  0.00    -0.132 A  
HETATM   15  C   UNL     1      -7.845   9.604  66.714  1.00  0.00    -0.102 A  
ENDBRANCH   7  10
TORSDOF 1
ENDMDL
MODEL      120
REMARK 921   NORMALIZED FREE ENERGY PREDICTED BY IDOCK:   -2.96 KCAL/MOL
REMARK 922        TOTAL FREE ENERGY PREDICTED BY IDOCK:   -3.45 KCAL/MOL
REMARK 923 INTER-LIGAND FREE ENERGY PREDICTED BY IDOCK:   -3.14 KCAL/MOL
REMARK 924 INTRA-LIGAND FREE ENERGY PREDICTED BY IDOCK:   -0.31 KCAL/MOL
REMARK 927      BINDING AFFINITY PREDICTED BY RF-SCORE:    0.00 PKD
ROOT
HETATM    1  O   UNL     1      -5.913  16.789  69.817  1.00  0.00    -0.208 OA 
HETATM    2  N   UNL     1      -6.955  16.875  69.151  1.00  0.00    -0.234 N  
HETATM    3  O   UNL     1      -7.530  17.940  68.882  1.00  0.00    -0.275 OA 
HETATM    4  C   UNL     1      -7.543  15.633  68.638  1.00  0.00    -0.143 A  
HETATM    5  C   UNL     1      -6.927  14.409  68.910  1.00  0.00    -0.105 A  
HETATM    6  C   UNL     1      -7.465  13.232  68.372  1.00  0.00    -0.124 A  
HETATM    7  C   UNL     1      -8.622  13.243  67.566  1.00  0.00    -0.200 A  
HETATM    8  C   UNL     1      -8.706  15.679  67.864  1.00  0.00    -0.166 A  
HETATM    9  C   UNL     1      -9.237  14.491  67.346  1.00  0.00    -0.202 A  
ENDROOT
BRANCH   7  10
HETATM   10  C   UNL     1      -9.137  11.998  66.941  1.00  0.00    -0.196 A  
HETATM   11  C   UNL     1      -9.086  10.758  67.603  1.00  0.00    -0.148 A  
HETATM   12  C   UNL     1      -9.516   9.577  66.984  1.00  0.00    -0.197 A  
HETATM   13  C   UNL     1     -10.025   9.613  65.691  1.00  0.00    -0.321 A  
HETATM   14  C   UNL     1     -10.108  10.826  65.019  1.00  0.00    -0.377 A  
HETATM   15  C   UNL     1      -9.665  12.001  65.635  1.00  0.00    -0.241 A  
ENDBRANCH   7  10
TORSDOF 1
ENDMDL
MODEL      121
REMARK 921   NORMALIZED FREE ENERGY PREDICTED BY IDOCK:   -2.94 KCAL/MOL
REMARK 922        TOTAL FREE ENERGY PREDICTED BY IDOCK:   -3.43 KCAL/MOL
REMARK 923 INTER-LIGAND FREE ENERGY PREDICTED BY IDOCK:   -3.11 KCAL/MOL
REMARK 924 INTRA-LIGAND FREE ENERGY PREDICTED BY IDOCK:   -0.32 KCAL/MOL
REMARK 927      BINDING AFFINITY PREDICTED BY RF-SCORE:    0.00 PKD
ROOT
HETATM    1  O   UNL     1      -9.600   5.062  67.556  1.00  0.00    -0.132 OA 
HETATM    2  N   UNL     1      -8.706   5.913  67.452  1.00  0.00    -0.109 N  
HETATM    3  O   UNL     1      -7.497   5.654  67.351  1.00  0.00    -0.082 OA 
HETATM    4  C   UNL     1      -9.105   7.325  67.435  1.00  0.00    -0.121 A  
HETATM    5  C   UNL     1     -10.456   7.666  67.539  1.00  0.00    -0.336 A  
HETATM    6  C   UNL     1     -10.834   9.014  67.470  1.00  0.00    -0.130 A  
HETATM    7  C   UNL     1      -9.887  10.045  67.306  1.00  0.00    -0.225 A  
HETATM    8  C   UNL     1      -8.136   8.323  67.298  1.00  0.00    -0.109 A  
HETATM    9  C   UNL     1      -8.531   9.666  67.243  1.00  0.00    -0.132 A  
ENDROOT
BRANCH   7  10
HETATM   10  C   UNL     1     -10.307  11.461  67.157  1.00  0.00    -0.247 A  
HETATM   11  C   UNL     1      -9.442  12.529  67.459  1.00  0.00    -0.185 A  
HETATM   12  C   UNL     1      -9.864  13.862  67.377  1.00  0.00    -0.237 A  
HETATM   13  C   UNL     1     -11.161  14.160  66.973  1.00  0.00    -0.328 A  
HETATM   14  C   UNL     1     -12.033  13.127  66.648  1.00  0.00    -0.451 A  
HETATM   15  C   UNL     1     -11.612  11.797  66.745  1.00  0.00    -0.287 A  
ENDBRANCH   7  10
TORSDOF 1
ENDMDL
MODEL      122
REMARK 921   NORMALIZED FREE ENERGY PREDICTED BY IDOCK:   -2.93 KCAL/MOL
REMARK 922        TOTAL FREE ENERGY PREDICTED BY IDOCK:   -3.43 KCAL/MOL
REMARK 923 INTER-LIGAND FREE ENERGY PREDICTED BY IDOCK:   -3.10 KCAL/MOL
REMARK 924 INTRA-LIGAND FREE ENERGY PREDICTED BY IDOCK:   -0.32 KCAL/MOL
REMARK 927      BINDING AFFINITY PREDICTED BY RF-SCORE:    0.00 PKD
ROOT
HETATM    1  O   UNL     1     -10.903   8.726  72.221  1.00  0.00    -0.352 OA 
HETATM    2  N   UNL     1     -11.343   7.702  71.680  1.00  0.00    -0.246 N  
HETATM    3  O   UNL     1     -12.248   6.994  72.148  1.00  0.00    -0.285 OA 
HETATM    4  C   UNL     1     -10.759   7.304  70.394  1.00  0.00    -0.236 A  
HETATM    5  C   UNL     1      -9.741   8.073  69.826  1.00  0.00    -0.176 A  
HETATM    6  C   UNL     1      -9.225   7.716  68.573  1.00  0.00    -0.143 A  
HETATM    7  C   UNL     1      -9.699   6.592  67.866  1.00  0.00    -0.126 A  
HETATM    8  C   UNL     1     -11.235   6.167  69.734  1.00  0.00    -0.494 A  
HETATM    9  C   UNL     1     -10.699   5.819  68.488  1.00  0.00    -0.288 A  
ENDROOT
BRANCH   7  10
HETATM   10  C   UNL     1      -9.197   6.269  66.506  1.00  0.00    -0.169 A  
HETATM   11  C   UNL     1      -8.440   7.188  65.757  1.00  0.00    -0.151 A  
HETATM   12  C   UNL     1      -8.023   6.902  64.450  1.00  0.00    -0.093 A  
HETATM   13  C   UNL     1      -8.339   5.679  63.868  1.00  0.00    -0.058 A  
HETATM   14  C   UNL     1      -9.067   4.743  64.592  1.00  0.00    -0.115 A  
HETATM   15  C   UNL     1      -9.495   5.037  65.891  1.00  0.00    -0.171 A  
ENDBRANCH   7  10
TORSDOF 1
ENDMDL
MODEL      123
REMARK 921   NORMALIZED FREE ENERGY PREDICTED BY IDOCK:   -2.88 KCAL/MOL
REMARK 922        TOTAL FREE ENERGY PREDICTED BY IDOCK:   -3.38 KCAL/MOL
REMARK 923 INTER-LIGAND FREE ENERGY PREDICTED BY IDOCK:   -3.08 KCAL/MOL
REMARK 924 INTRA-LIGAND FREE ENERGY PREDICTED BY IDOCK:   -0.30 KCAL/MOL
REMARK 927      BINDING AFFINITY PREDICTED BY RF-SCORE:    0.00 PKD
ROOT
HETATM    1  O   UNL     1      -7.007  13.628  67.797  1.00  0.00    -0.130 OA 
HETATM    2  N   UNL     1      -8.182  13.316  67.560  1.00  0.00    -0.173 N  
HETATM    3  O   UNL     1      -8.963  13.990  66.872  1.00  0.00    -0.234 OA 
HETATM    4  C   UNL     1      -8.682  12.058  68.126  1.00  0.00    -0.177 A  
HETATM    5  C   UNL     1      -7.837  11.262  68.904  1.00  0.00    -0.114 A  
HETATM    6  C   UNL     1      -8.305  10.037  69.397  1.00  0.00    -0.169 A  
HETATM    7  C   UNL     1      -9.615   9.582  69.138  1.00  0.00    -0.170 A  
HETATM    8  C   UNL     1      -9.995  11.651  67.871  1.00  0.00    -0.190 A  
HETATM    9  C   UNL     1     -10.449  10.429  68.382  1.00  0.00    -0.216 A  
ENDROOT
BRANCH   7  10
HETATM   10  C   UNL     1     -10.072   8.248  69.602  1.00  0.00    -0.199 A  
HETATM   11  C   UNL     1     -11.108   8.104  70.543  1.00  0.00    -0.257 A  
HETATM   12  C   UNL     1     -11.493   6.845  71.024  1.00  0.00    -0.358 A  
HETATM   13  C   UNL     1     -10.862   5.697  70.559  1.00  0.00    -0.315 A  
HETATM   14  C   UNL     1      -9.850   5.806  69.613  1.00  0.00    -0.230 A  
HETATM   15  C   UNL     1      -9.458   7.065  69.146  1.00  0.00    -0.143 A  
ENDBRANCH   7  10
TORSDOF 1
ENDMDL
MODEL      124
REMARK 921   NORMALIZED FREE ENERGY PREDICTED BY IDOCK:   -2.87 KCAL/MOL
REMARK 922        TOTAL FREE ENERGY PREDICTED BY IDOCK:   -3.36 KCAL/MOL
REMARK 923 INTER-LIGAND FREE ENERGY PREDICTED BY IDOCK:   -3.05 KCAL/MOL
REMARK 924 INTRA-LIGAND FREE ENERGY PREDICTED BY IDOCK:   -0.31 KCAL/MOL
REMARK 927      BINDING AFFINITY PREDICTED BY RF-SCORE:    0.00 PKD
ROOT
HETATM    1  O   UNL     1      -6.702   3.128  67.048  1.00  0.00    -0.043 OA 
HETATM    2  N   UNL     1      -6.743   4.365  66.982  1.00  0.00    -0.050 N  
HETATM    3  O   UNL     1      -6.085   5.048  66.183  1.00  0.00    -0.025 OA 
HETATM    4  C   UNL     1      -7.637   5.070  67.907  1.00  0.00    -0.083 A  
HETATM    5  C   UNL     1      -8.402   4.343  68.823  1.00  0.00    -0.091 A  
HETATM    6  C   UNL     1      -9.293   5.019  69.667  1.00  0.00    -0.184 A  
HETATM    7  C   UNL     1      -9.437   6.421  69.628  1.00  0.00    -0.154 A  
HETATM    8  C   UNL     1      -7.735   6.463  67.859  1.00  0.00    -0.104 A  
HETATM    9  C   UNL     1      -8.622   7.123  68.719  1.00  0.00    -0.125 A  
ENDROOT
BRANCH   7  10
HETATM   10  C   UNL     1     -10.440   7.116  70.474  1.00  0.00    -0.228 A  
HETATM   11  C   UNL     1     -11.698   6.552  70.751  1.00  0.00    -0.427 A  
HETATM   12  C   UNL     1     -12.663   7.240  71.498  1.00  0.00    -0.422 A  
HETATM   13  C   UNL     1     -12.383   8.505  72.003  1.00  0.00    -0.423 A  
HETATM   14  C   UNL     1     -11.141   9.080  71.764  1.00  0.00    -0.444 A  
HETATM   15  C   UNL     1     -10.185   8.396  71.005  1.00  0.00    -0.245 A  
ENDBRANCH   7  10
TORSDOF 1
ENDMDL
MODEL      125
REMARK 921   NORMALIZED FREE ENERGY PREDICTED BY IDOCK:   -2.85 KCAL/MOL
REMARK 922        TOTAL FREE ENERGY PREDICTED BY IDOCK:   -3.34 KCAL/MOL
REMARK 923 INTER-LIGAND FREE ENERGY PREDICTED BY IDOCK:   -3.04 KCAL/MOL
REMARK 924 INTRA-LIGAND FREE ENERGY PREDICTED BY IDOCK:   -0.31 KCAL/MOL
REMARK 927      BINDING AFFINITY PREDICTED BY RF-SCORE:    0.00 PKD
ROOT
HETATM    1  O   UNL     1     -11.521   6.002  71.772  1.00  0.00    -0.288 OA 
HETATM    2  N   UNL     1     -10.610   5.988  70.933  1.00  0.00    -0.238 N  
HETATM    3  O   UNL     1     -10.046   4.960  70.526  1.00  0.00    -0.229 OA 
HETATM    4  C   UNL     1     -10.173   7.273  70.376  1.00  0.00    -0.194 A  
HETATM    5  C   UNL     1     -10.782   8.456  70.800  1.00  0.00    -0.244 A  
HETATM    6  C   UNL     1     -10.396   9.675  70.225  1.00  0.00    -0.336 A  
HETATM    7  C   UNL     1      -9.399   9.745  69.230  1.00  0.00    -0.198 A  
HETATM    8  C   UNL     1      -9.162   7.308  69.411  1.00  0.00    -0.148 A  
HETATM    9  C   UNL     1      -8.781   8.536  68.856  1.00  0.00    -0.131 A  
ENDROOT
BRANCH   7  10
HETATM   10  C   UNL     1      -9.054  11.032  68.576  1.00  0.00    -0.173 A  
HETATM   11  C   UNL     1     -10.034  11.856  67.994  1.00  0.00    -0.192 A  
HETATM   12  C   UNL     1      -9.696  13.038  67.323  1.00  0.00    -0.225 A  
HETATM   13  C   UNL     1      -8.366  13.435  67.234  1.00  0.00    -0.183 A  
HETATM   14  C   UNL     1      -7.377  12.653  67.818  1.00  0.00    -0.128 A  
HETATM   15  C   UNL     1      -7.717  11.465  68.475  1.00  0.00    -0.133 A  
ENDBRANCH   7  10
TORSDOF 1
ENDMDL
MODEL      126
REMARK 921   NORMALIZED FREE ENERGY PREDICTED BY IDOCK:   -2.81 KCAL/MOL
REMARK 922        TOTAL FREE ENERGY PREDICTED BY IDOCK:   -3.30 KCAL/MOL
REMARK 923 INTER-LIGAND FREE ENERGY PREDICTED BY IDOCK:   -2.98 KCAL/MOL
REMARK 924 INTRA-LIGAND FREE ENERGY PREDICTED BY IDOCK:   -0.32 KCAL/MOL
REMARK 927      BINDING AFFINITY PREDICTED BY RF-SCORE:    0.00 PKD
ROOT
HETATM    1  O   UNL     1      -8.327   4.641  63.369  1.00  0.00    -0.096 OA 
HETATM    2  N   UNL     1      -8.522   3.763  64.221  1.00  0.00    -0.090 N  
HETATM    3  O   UNL     1      -8.334   2.551  64.036  1.00  0.00    -0.082 OA 
HETATM    4  C   UNL     1      -8.998   4.186  65.543  1.00  0.00    -0.131 A  
HETATM    5  C   UNL     1      -9.219   5.541  65.800  1.00  0.00    -0.132 A  
HETATM    6  C   UNL     1      -9.624   5.943  67.080  1.00  0.00    -0.136 A  
HETATM    7  C   UNL     1      -9.825   5.015  68.123  1.00  0.00    -0.203 A  
HETATM    8  C   UNL     1      -9.213   3.235  66.545  1.00  0.00    -0.169 A  
HETATM    9  C   UNL     1      -9.630   3.654  67.815  1.00  0.00    -0.189 A  
ENDROOT
BRANCH   7  10
HETATM   10  C   UNL     1     -10.180   5.461  69.494  1.00  0.00    -0.336 A  
HETATM   11  C   UNL     1     -10.894   6.651  69.726  1.00  0.00    -0.337 A  
HETATM   12  C   UNL     1     -11.171   7.099  71.024  1.00  0.00    -0.298 A  
HETATM   13  C   UNL     1     -10.755   6.355  72.123  1.00  0.00    -0.259 A  
HETATM   14  C   UNL     1     -10.067   5.165  71.925  1.00  0.00    -0.255 A  
HETATM   15  C   UNL     1      -9.779   4.728  70.627  1.00  0.00    -0.271 A  
ENDBRANCH   7  10
TORSDOF 1
ENDMDL
MODEL      127
REMARK 921   NORMALIZED FREE ENERGY PREDICTED BY IDOCK:   -2.71 KCAL/MOL
REMARK 922        TOTAL FREE ENERGY PREDICTED BY IDOCK:   -3.20 KCAL/MOL
REMARK 923 INTER-LIGAND FREE ENERGY PREDICTED BY IDOCK:   -2.89 KCAL/MOL
REMARK 924 INTRA-LIGAND FREE ENERGY PREDICTED BY IDOCK:   -0.30 KCAL/MOL
REMARK 927      BINDING AFFINITY PREDICTED BY RF-SCORE:    0.00 PKD
ROOT
HETATM    1  O   UNL     1      -6.514  15.058  68.248  1.00  0.00    -0.098 OA 
HETATM    2  N   UNL     1      -7.637  14.871  67.761  1.00  0.00    -0.140 N  
HETATM    3  O   UNL     1      -8.294  15.734  67.160  1.00  0.00    -0.169 OA 
HETATM    4  C   UNL     1      -8.226  13.534  67.895  1.00  0.00    -0.168 A  
HETATM    5  C   UNL     1      -7.521  12.527  68.559  1.00  0.00    -0.122 A  
HETATM    6  C   UNL     1      -8.067  11.239  68.637  1.00  0.00    -0.145 A  
HETATM    7  C   UNL     1      -9.320  10.926  68.070  1.00  0.00    -0.160 A  
HETATM    8  C   UNL     1      -9.483  13.266  67.344  1.00  0.00    -0.218 A  
HETATM    9  C   UNL     1     -10.019  11.976  67.443  1.00  0.00    -0.200 A  
ENDROOT
BRANCH   7  10
HETATM   10  C   UNL     1      -9.851   9.540  68.094  1.00  0.00    -0.177 A  
HETATM   11  C   UNL     1     -10.223   8.867  66.916  1.00  0.00    -0.347 A  
HETATM   12  C   UNL     1     -10.783   7.583  66.950  1.00  0.00    -0.299 A  
HETATM   13  C   UNL     1     -10.967   6.934  68.166  1.00  0.00    -0.220 A  
HETATM   14  C   UNL     1     -10.590   7.565  69.345  1.00  0.00    -0.225 A  
HETATM   15  C   UNL     1     -10.045   8.853  69.308  1.00  0.00    -0.205 A  
ENDBRANCH   7  10
TORSDOF 1
ENDMDL
MODEL      128
REMARK 921   NORMALIZED FREE ENERGY PREDICTED BY IDOCK:   -2.71 KCAL/MOL
REMARK 922        TOTAL FREE ENERGY PREDICTED BY IDOCK:   -3.20 KCAL/MOL
REMARK 923 INTER-LIGAND FREE ENERGY PREDICTED BY IDOCK:   -2.87 KCAL/MOL
REMARK 924 INTRA-LIGAND FREE ENERGY PREDICTED BY IDOCK:   -0.32 KCAL/MOL
REMARK 927      BINDING AFFINITY PREDICTED BY RF-SCORE:    0.00 PKD
ROOT
HETATM    1  O   UNL     1      -9.163  11.647  66.582  1.00  0.00    -0.180 OA 
HETATM    2  N   UNL     1      -8.432  10.655  66.709  1.00  0.00    -0.131 N  
HETATM    3  O   UNL     1      -7.363  10.487  66.102  1.00  0.00    -0.124 OA 
HETATM    4  C   UNL     1      -8.855   9.609  67.648  1.00  0.00    -0.125 A  
HETATM    5  C   UNL     1     -10.049   9.756  68.358  1.00  0.00    -0.189 A  
HETATM    6  C   UNL     1     -10.420   8.779  69.291  1.00  0.00    -0.228 A  
HETATM    7  C   UNL     1      -9.625   7.640  69.532  1.00  0.00    -0.163 A  
HETATM    8  C   UNL     1      -8.055   8.480  67.841  1.00  0.00    -0.115 A  
HETATM    9  C   UNL     1      -8.448   7.507  68.769  1.00  0.00    -0.129 A  
ENDROOT
BRANCH   7  10
HETATM   10  C   UNL     1      -9.992   6.651  70.578  1.00  0.00    -0.197 A  
HETATM   11  C   UNL     1     -10.851   6.980  71.642  1.00  0.00    -0.249 A  
HETATM   12  C   UNL     1     -11.144   6.063  72.660  1.00  0.00    -0.314 A  
HETATM   13  C   UNL     1     -10.596   4.785  72.626  1.00  0.00    -0.271 A  
HETATM   14  C   UNL     1      -9.761   4.424  71.576  1.00  0.00    -0.244 A  
HETATM   15  C   UNL     1      -9.459   5.347  70.569  1.00  0.00    -0.215 A  
ENDBRANCH   7  10
TORSDOF 1
ENDMDL
MODEL      129
REMARK 921   NORMALIZED FREE ENERGY PREDICTED BY IDOCK:   -2.62 KCAL/MOL
REMARK 922        TOTAL FREE ENERGY PREDICTED BY IDOCK:   -3.09 KCAL/MOL
REMARK 923 INTER-LIGAND FREE ENERGY PREDICTED BY IDOCK:   -2.80 KCAL/MOL
REMARK 924 INTRA-LIGAND FREE ENERGY PREDICTED BY IDOCK:   -0.30 KCAL/MOL
REMARK 927      BINDING AFFINITY PREDICTED BY RF-SCORE:    0.00 PKD
ROOT
HETATM    1  O   UNL     1      -9.826   3.255  71.374  1.00  0.00    -0.171 OA 
HETATM    2  N   UNL     1      -8.825   3.746  70.834  1.00  0.00    -0.078 N  
HETATM    3  O   UNL     1      -7.694   3.239  70.857  1.00  0.00    -0.043 OA 
HETATM    4  C   UNL     1      -8.991   5.011  70.109  1.00  0.00    -0.111 A  
HETATM    5  C   UNL     1     -10.248   5.618  70.051  1.00  0.00    -0.321 A  
HETATM    6  C   UNL     1     -10.411   6.798  69.313  1.00  0.00    -0.221 A  
HETATM    7  C   UNL     1      -9.336   7.402  68.628  1.00  0.00    -0.139 A  
HETATM    8  C   UNL     1      -7.897   5.596  69.464  1.00  0.00    -0.092 A  
HETATM    9  C   UNL     1      -8.076   6.782  68.742  1.00  0.00    -0.120 A  
ENDROOT
BRANCH   7  10
HETATM   10  C   UNL     1      -9.538   8.609  67.788  1.00  0.00    -0.178 A  
HETATM   11  C   UNL     1      -9.685   9.890  68.352  1.00  0.00    -0.161 A  
HETATM   12  C   UNL     1      -9.938  11.016  67.558  1.00  0.00    -0.199 A  
HETATM   13  C   UNL     1     -10.032  10.890  66.176  1.00  0.00    -0.282 A  
HETATM   14  C   UNL     1      -9.870   9.641  65.589  1.00  0.00    -0.369 A  
HETATM   15  C   UNL     1      -9.631   8.516  66.386  1.00  0.00    -0.314 A  
ENDBRANCH   7  10
TORSDOF 1
ENDMDL
MODEL      130
REMARK 921   NORMALIZED FREE ENERGY PREDICTED BY IDOCK:   -2.60 KCAL/MOL
REMARK 922        TOTAL FREE ENERGY PREDICTED BY IDOCK:   -3.07 KCAL/MOL
REMARK 923 INTER-LIGAND FREE ENERGY PREDICTED BY IDOCK:   -2.75 KCAL/MOL
REMARK 924 INTRA-LIGAND FREE ENERGY PREDICTED BY IDOCK:   -0.32 KCAL/MOL
REMARK 927      BINDING AFFINITY PREDICTED BY RF-SCORE:    0.00 PKD
ROOT
HETATM    1  O   UNL     1     -11.119  10.752  65.594  1.00  0.00     0.018 OA 
HETATM    2  N   UNL     1     -11.176  11.043  66.796  1.00  0.00    -0.181 N  
HETATM    3  O   UNL     1     -11.727  12.058  67.248  1.00  0.00    -0.481 OA 
HETATM    4  C   UNL     1     -10.556  10.120  67.753  1.00  0.00    -0.256 A  
HETATM    5  C   UNL     1      -9.928   8.960  67.292  1.00  0.00    -0.277 A  
HETATM    6  C   UNL     1      -9.385   8.056  68.215  1.00  0.00    -0.143 A  
HETATM    7  C   UNL     1      -9.445   8.286  69.605  1.00  0.00    -0.163 A  
HETATM    8  C   UNL     1     -10.612  10.393  69.123  1.00  0.00    -0.255 A  
HETATM    9  C   UNL     1     -10.052   9.484  70.030  1.00  0.00    -0.279 A  
ENDROOT
BRANCH   7  10
HETATM   10  C   UNL     1      -8.934   7.284  70.574  1.00  0.00    -0.154 A  
HETATM   11  C   UNL     1      -9.228   7.361  71.947  1.00  0.00    -0.151 A  
HETATM   12  C   UNL     1      -8.691   6.449  72.866  1.00  0.00    -0.124 A  
HETATM   13  C   UNL     1      -7.860   5.425  72.427  1.00  0.00    -0.103 A  
HETATM   14  C   UNL     1      -7.568   5.310  71.074  1.00  0.00    -0.088 A  
HETATM   15  C   UNL     1      -8.094   6.231  70.161  1.00  0.00    -0.116 A  
ENDBRANCH   7  10
TORSDOF 1
ENDMDL
MODEL      131
REMARK 921   NORMALIZED FREE ENERGY PREDICTED BY IDOCK:   -2.58 KCAL/MOL
REMARK 922        TOTAL FREE ENERGY PREDICTED BY IDOCK:   -3.05 KCAL/MOL
REMARK 923 INTER-LIGAND FREE ENERGY PREDICTED BY IDOCK:   -2.73 KCAL/MOL
REMARK 924 INTRA-LIGAND FREE ENERGY PREDICTED BY IDOCK:   -0.32 KCAL/MOL
REMARK 927      BINDING AFFINITY PREDICTED BY RF-SCORE:    0.00 PKD
ROOT
HETATM    1  O   UNL     1      -5.147  12.632  70.464  1.00  0.00    -0.092 OA 
HETATM    2  N   UNL     1      -5.943  12.755  69.524  1.00  0.00    -0.103 N  
HETATM    3  O   UNL     1      -5.980  13.729  68.757  1.00  0.00    -0.079 OA 
HETATM    4  C   UNL     1      -6.903  11.669  69.295  1.00  0.00    -0.104 A  
HETATM    5  C   UNL     1      -6.896  10.549  70.129  1.00  0.00    -0.145 A  
HETATM    6  C   UNL     1      -7.780   9.492  69.872  1.00  0.00    -0.129 A  
HETATM    7  C   UNL     1      -8.689   9.528  68.795  1.00  0.00    -0.128 A  
HETATM    8  C   UNL     1      -7.809  11.750  68.233  1.00  0.00    -0.137 A  
HETATM    9  C   UNL     1      -8.694  10.690  67.999  1.00  0.00    -0.126 A  
ENDROOT
BRANCH   7  10
HETATM   10  C   UNL     1      -9.567   8.370  68.489  1.00  0.00    -0.155 A  
HETATM   11  C   UNL     1      -9.915   7.423  69.469  1.00  0.00    -0.179 A  
HETATM   12  C   UNL     1     -10.692   6.298  69.160  1.00  0.00    -0.362 A  
HETATM   13  C   UNL     1     -11.155   6.105  67.863  1.00  0.00    -0.311 A  
HETATM   14  C   UNL     1     -10.846   7.035  66.878  1.00  0.00    -0.350 A  
HETATM   15  C   UNL     1     -10.058   8.149  67.187  1.00  0.00    -0.334 A  
ENDBRANCH   7  10
TORSDOF 1
ENDMDL
MODEL      132
REMARK 921   NORMALIZED FREE ENERGY PREDICTED BY IDOCK:   -2.50 KCAL/MOL
REMARK 922        TOTAL FREE ENERGY PREDICTED BY IDOCK:   -2.97 KCAL/MOL
REMARK 923 INTER-LIGAND FREE ENERGY PREDICTED BY IDOCK:   -2.65 KCAL/MOL
REMARK 924 INTRA-LIGAND FREE ENERGY PREDICTED BY IDOCK:   -0.32 KCAL/MOL
REMARK 927      BINDING AFFINITY PREDICTED BY RF-SCORE:    0.00 PKD
ROOT
HETATM    1  O   UNL     1     -10.276   9.412  71.278  1.00  0.00    -0.315 OA 
HETATM    2  N   UNL     1      -9.247   8.801  70.958  1.00  0.00    -0.201 N  
HETATM    3  O   UNL     1      -8.176   8.855  71.581  1.00  0.00    -0.286 OA 
HETATM    4  C   UNL     1      -9.301   7.949  69.765  1.00  0.00    -0.153 A  
HETATM    5  C   UNL     1     -10.488   7.852  69.034  1.00  0.00    -0.210 A  
HETATM    6  C   UNL     1     -10.548   6.995  67.927  1.00  0.00    -0.276 A  
HETATM    7  C   UNL     1      -9.437   6.228  67.519  1.00  0.00    -0.115 A  
HETATM    8  C   UNL     1      -8.172   7.223  69.374  1.00  0.00    -0.131 A  
HETATM    9  C   UNL     1      -8.247   6.381  68.257  1.00  0.00    -0.116 A  
ENDROOT
BRANCH   7  10
HETATM   10  C   UNL     1      -9.537   5.268  66.390  1.00  0.00    -0.171 A  
HETATM   11  C   UNL     1     -10.774   4.922  65.817  1.00  0.00    -0.194 A  
HETATM   12  C   UNL     1     -10.868   3.969  64.794  1.00  0.00    -0.093 A  
HETATM   13  C   UNL     1      -9.721   3.351  64.308  1.00  0.00    -0.166 A  
HETATM   14  C   UNL     1      -8.482   3.688  64.840  1.00  0.00    -0.104 A  
HETATM   15  C   UNL     1      -8.394   4.630  65.871  1.00  0.00    -0.115 A  
ENDBRANCH   7  10
TORSDOF 1
ENDMDL
MODEL      133
REMARK 921   NORMALIZED FREE ENERGY PREDICTED BY IDOCK:   -2.50 KCAL/MOL
REMARK 922        TOTAL FREE ENERGY PREDICTED BY IDOCK:   -2.97 KCAL/MOL
REMARK 923 INTER-LIGAND FREE ENERGY PREDICTED BY IDOCK:   -2.65 KCAL/MOL
REMARK 924 INTRA-LIGAND FREE ENERGY PREDICTED BY IDOCK:   -0.32 KCAL/MOL
REMARK 927      BINDING AFFINITY PREDICTED BY RF-SCORE:    0.00 PKD
ROOT
HETATM    1  O   UNL     1      -8.291   2.405  72.134  1.00  0.00    -0.053 OA 
HETATM    2  N   UNL     1      -8.140   2.772  70.960  1.00  0.00    -0.053 N  
HETATM    3  O   UNL     1      -7.649   2.071  70.063  1.00  0.00    -0.042 OA 
HETATM    4  C   UNL     1      -8.579   4.126  70.604  1.00  0.00    -0.075 A  
HETATM    5  C   UNL     1      -9.144   4.951  71.580  1.00  0.00    -0.169 A  
HETATM    6  C   UNL     1      -9.610   6.224  71.222  1.00  0.00    -0.189 A  
HETATM    7  C   UNL     1      -9.519   6.704  69.899  1.00  0.00    -0.159 A  
HETATM    8  C   UNL     1      -8.449   4.580  69.288  1.00  0.00    -0.092 A  
HETATM    9  C   UNL     1      -8.909   5.859  68.951  1.00  0.00    -0.115 A  
ENDROOT
BRANCH   7  10
HETATM   10  C   UNL     1     -10.085   8.023  69.518  1.00  0.00    -0.196 A  
HETATM   11  C   UNL     1     -10.084   8.474  68.186  1.00  0.00    -0.240 A  
HETATM   12  C   UNL     1     -10.563   9.745  67.841  1.00  0.00    -0.310 A  
HETATM   13  C   UNL     1     -11.071  10.589  68.822  1.00  0.00    -0.315 A  
HETATM   14  C   UNL     1     -11.105  10.162  70.144  1.00  0.00    -0.378 A  
HETATM   15  C   UNL     1     -10.613   8.898  70.487  1.00  0.00    -0.262 A  
ENDBRANCH   7  10
TORSDOF 1
ENDMDL
MODEL      134
REMARK 921   NORMALIZED FREE ENERGY PREDICTED BY IDOCK:   -2.43 KCAL/MOL
REMARK 922        TOTAL FREE ENERGY PREDICTED BY IDOCK:   -2.90 KCAL/MOL
REMARK 923 INTER-LIGAND FREE ENERGY PREDICTED BY IDOCK:   -2.60 KCAL/MOL
REMARK 924 INTRA-LIGAND FREE ENERGY PREDICTED BY IDOCK:   -0.30 KCAL/MOL
REMARK 927      BINDING AFFINITY PREDICTED BY RF-SCORE:    0.00 PKD
ROOT
HETATM    1  O   UNL     1      -7.289   8.481  73.551  1.00  0.00    -0.298 OA 
HETATM    2  N   UNL     1      -8.342   7.839  73.432  1.00  0.00    -0.159 N  
HETATM    3  O   UNL     1      -9.227   7.775  74.299  1.00  0.00    -0.144 OA 
HETATM    4  C   UNL     1      -8.563   7.114  72.176  1.00  0.00    -0.110 A  
HETATM    5  C   UNL     1      -7.597   7.161  71.168  1.00  0.00    -0.085 A  
HETATM    6  C   UNL     1      -7.839   6.509  69.951  1.00  0.00    -0.115 A  
HETATM    7  C   UNL     1      -9.030   5.794  69.713  1.00  0.00    -0.137 A  
HETATM    8  C   UNL     1      -9.745   6.392  71.985  1.00  0.00    -0.160 A  
HETATM    9  C   UNL     1      -9.963   5.736  70.767  1.00  0.00    -0.249 A  
ENDROOT
BRANCH   7  10
HETATM   10  C   UNL     1      -9.306   5.173  68.393  1.00  0.00    -0.155 A  
HETATM   11  C   UNL     1     -10.264   5.701  67.509  1.00  0.00    -0.246 A  
HETATM   12  C   UNL     1     -10.564   5.074  66.292  1.00  0.00    -0.332 A  
HETATM   13  C   UNL     1      -9.897   3.911  65.923  1.00  0.00    -0.137 A  
HETATM   14  C   UNL     1      -8.929   3.378  66.766  1.00  0.00    -0.166 A  
HETATM   15  C   UNL     1      -8.643   3.998  67.987  1.00  0.00    -0.110 A  
ENDBRANCH   7  10
TORSDOF 1
ENDMDL
MODEL      135
REMARK 921   NORMALIZED FREE ENERGY PREDICTED BY IDOCK:   -2.34 KCAL/MOL
REMARK 922        TOTAL FREE ENERGY PREDICTED BY IDOCK:   -2.80 KCAL/MOL
REMARK 923 INTER-LIGAND FREE ENERGY PREDICTED BY IDOCK:   -2.48 KCAL/MOL
REMARK 924 INTRA-LIGAND FREE ENERGY PREDICTED BY IDOCK:   -0.32 KCAL/MOL
REMARK 927      BINDING AFFINITY PREDICTED BY RF-SCORE:    0.00 PKD
ROOT
HETATM    1  O   UNL     1     -10.800   4.580  72.964  1.00  0.00    -0.218 OA 
HETATM    2  N   UNL     1     -11.179   5.258  71.998  1.00  0.00    -0.094 N  
HETATM    3  O   UNL     1     -12.072   6.117  72.051  1.00  0.00    -0.318 OA 
HETATM    4  C   UNL     1     -10.521   5.036  70.706  1.00  0.00    -0.152 A  
HETATM    5  C   UNL     1      -9.505   4.082  70.599  1.00  0.00    -0.240 A  
HETATM    6  C   UNL     1      -8.845   3.913  69.374  1.00  0.00    -0.148 A  
HETATM    7  C   UNL     1      -9.182   4.674  68.236  1.00  0.00    -0.166 A  
HETATM    8  C   UNL     1     -10.899   5.790  69.591  1.00  0.00    -0.418 A  
HETATM    9  C   UNL     1     -10.236   5.598  68.372  1.00  0.00    -0.247 A  
ENDROOT
BRANCH   7  10
HETATM   10  C   UNL     1      -8.424   4.537  66.967  1.00  0.00    -0.104 A  
HETATM   11  C   UNL     1      -7.658   3.393  66.678  1.00  0.00    -0.077 A  
HETATM   12  C   UNL     1      -6.895   3.296  65.507  1.00  0.00    -0.049 A  
HETATM   13  C   UNL     1      -6.894   4.339  64.586  1.00  0.00    -0.046 A  
HETATM   14  C   UNL     1      -7.657   5.473  64.834  1.00  0.00    -0.078 A  
HETATM   15  C   UNL     1      -8.407   5.572  66.011  1.00  0.00    -0.122 A  
ENDBRANCH   7  10
TORSDOF 1
ENDMDL
MODEL      136
REMARK 921   NORMALIZED FREE ENERGY PREDICTED BY IDOCK:   -2.29 KCAL/MOL
REMARK 922        TOTAL FREE ENERGY PREDICTED BY IDOCK:   -2.74 KCAL/MOL
REMARK 923 INTER-LIGAND FREE ENERGY PREDICTED BY IDOCK:   -2.43 KCAL/MOL
REMARK 924 INTRA-LIGAND FREE ENERGY PREDICTED BY IDOCK:   -0.31 KCAL/MOL
REMARK 927      BINDING AFFINITY PREDICTED BY RF-SCORE:    0.00 PKD
ROOT
HETATM    1  O   UNL     1      -9.761   9.581  70.836  1.00  0.00    -0.259 OA 
HETATM    2  N   UNL     1     -10.346   9.765  69.759  1.00  0.00    -0.227 N  
HETATM    3  O   UNL     1     -11.418  10.376  69.638  1.00  0.00    -0.246 OA 
HETATM    4  C   UNL     1      -9.723   9.231  68.543  1.00  0.00    -0.150 A  
HETATM    5  C   UNL     1      -8.512   8.540  68.629  1.00  0.00    -0.131 A  
HETATM    6  C   UNL     1      -7.896   8.079  67.457  1.00  0.00    -0.118 A  
HETATM    7  C   UNL     1      -8.469   8.284  66.185  1.00  0.00    -0.141 A  
HETATM    8  C   UNL     1     -10.333   9.430  67.301  1.00  0.00    -0.325 A  
HETATM    9  C   UNL     1      -9.710   8.950  66.142  1.00  0.00    -0.338 A  
ENDROOT
BRANCH   7  10
HETATM   10  C   UNL     1      -7.770   7.857  64.947  1.00  0.00    -0.112 A  
HETATM   11  C   UNL     1      -7.790   8.636  63.777  1.00  0.00    -0.148 A  
HETATM   12  C   UNL     1      -7.181   8.199  62.593  1.00  0.00    -0.096 A  
HETATM   13  C   UNL     1      -6.519   6.976  62.559  1.00  0.00    -0.052 A  
HETATM   14  C   UNL     1      -6.464   6.194  63.706  1.00  0.00    -0.029 A  
HETATM   15  C   UNL     1      -7.086   6.627  64.882  1.00  0.00    -0.057 A  
ENDBRANCH   7  10
TORSDOF 1
ENDMDL
MODEL      137
REMARK 921   NORMALIZED FREE ENERGY PREDICTED BY IDOCK:   -2.28 KCAL/MOL
REMARK 922        TOTAL FREE ENERGY PREDICTED BY IDOCK:   -2.74 KCAL/MOL
REMARK 923 INTER-LIGAND FREE ENERGY PREDICTED BY IDOCK:   -2.41 KCAL/MOL
REMARK 924 INTRA-LIGAND FREE ENERGY PREDICTED BY IDOCK:   -0.32 KCAL/MOL
REMARK 927      BINDING AFFINITY PREDICTED BY RF-SCORE:    0.00 PKD
ROOT
HETATM    1  O   UNL     1     -10.616  11.280  66.914  1.00  0.00    -0.233 OA 
HETATM    2  N   UNL     1      -9.898  10.478  66.301  1.00  0.00    -0.208 N  
HETATM    3  O   UNL     1      -9.356  10.712  65.211  1.00  0.00    -0.189 OA 
HETATM    4  C   UNL     1      -9.666   9.164  66.911  1.00  0.00    -0.194 A  
HETATM    5  C   UNL     1     -10.252   8.856  68.142  1.00  0.00    -0.245 A  
HETATM    6  C   UNL     1      -9.983   7.619  68.743  1.00  0.00    -0.178 A  
HETATM    7  C   UNL     1      -9.141   6.664  68.137  1.00  0.00    -0.119 A  
HETATM    8  C   UNL     1      -8.847   8.231  66.269  1.00  0.00    -0.192 A  
HETATM    9  C   UNL     1      -8.600   6.994  66.879  1.00  0.00    -0.120 A  
ENDROOT
BRANCH   7  10
HETATM   10  C   UNL     1      -8.804   5.390  68.821  1.00  0.00    -0.107 A  
HETATM   11  C   UNL     1      -7.810   4.524  68.330  1.00  0.00    -0.080 A  
HETATM   12  C   UNL     1      -7.540   3.294  68.943  1.00  0.00    -0.048 A  
HETATM   13  C   UNL     1      -8.249   2.908  70.076  1.00  0.00    -0.068 A  
HETATM   14  C   UNL     1      -9.222   3.752  70.597  1.00  0.00    -0.201 A  
HETATM   15  C   UNL     1      -9.499   4.973  69.973  1.00  0.00    -0.231 A  
ENDBRANCH   7  10
TORSDOF 1
ENDMDL
MODEL      138
REMARK 921   NORMALIZED FREE ENERGY PREDICTED BY IDOCK:   -2.25 KCAL/MOL
REMARK 922        TOTAL FREE ENERGY PREDICTED BY IDOCK:   -2.70 KCAL/MOL
REMARK 923 INTER-LIGAND FREE ENERGY PREDICTED BY IDOCK:   -2.41 KCAL/MOL
REMARK 924 INTRA-LIGAND FREE ENERGY PREDICTED BY IDOCK:   -0.30 KCAL/MOL
REMARK 927      BINDING AFFINITY PREDICTED BY RF-SCORE:    0.00 PKD
ROOT
HETATM    1  O   UNL     1     -13.307   7.053  71.635  1.00  0.00    -0.369 OA 
HETATM    2  N   UNL     1     -12.350   6.330  71.948  1.00  0.00    -0.246 N  
HETATM    3  O   UNL     1     -12.211   5.790  73.056  1.00  0.00     0.127 OA 
HETATM    4  C   UNL     1     -11.315   6.090  70.936  1.00  0.00    -0.229 A  
HETATM    5  C   UNL     1     -11.431   6.673  69.672  1.00  0.00    -0.358 A  
HETATM    6  C   UNL     1     -10.467   6.396  68.694  1.00  0.00    -0.260 A  
HETATM    7  C   UNL     1      -9.370   5.548  68.950  1.00  0.00    -0.154 A  
HETATM    8  C   UNL     1     -10.227   5.265  71.234  1.00  0.00    -0.291 A  
HETATM    9  C   UNL     1      -9.265   5.010  70.248  1.00  0.00    -0.190 A  
ENDROOT
BRANCH   7  10
HETATM   10  C   UNL     1      -8.397   5.203  67.883  1.00  0.00    -0.097 A  
HETATM   11  C   UNL     1      -8.313   3.906  67.345  1.00  0.00    -0.098 A  
HETATM   12  C   UNL     1      -7.351   3.570  66.383  1.00  0.00    -0.076 A  
HETATM   13  C   UNL     1      -6.461   4.533  65.921  1.00  0.00    -0.037 A  
HETATM   14  C   UNL     1      -6.534   5.829  66.417  1.00  0.00    -0.047 A  
HETATM   15  C   UNL     1      -7.486   6.157  67.389  1.00  0.00    -0.082 A  
ENDBRANCH   7  10
TORSDOF 1
ENDMDL
MODEL      139
REMARK 921   NORMALIZED FREE ENERGY PREDICTED BY IDOCK:   -2.16 KCAL/MOL
REMARK 922        TOTAL FREE ENERGY PREDICTED BY IDOCK:   -2.61 KCAL/MOL
REMARK 923 INTER-LIGAND FREE ENERGY PREDICTED BY IDOCK:   -2.31 KCAL/MOL
REMARK 924 INTRA-LIGAND FREE ENERGY PREDICTED BY IDOCK:   -0.30 KCAL/MOL
REMARK 927      BINDING AFFINITY PREDICTED BY RF-SCORE:    0.00 PKD
ROOT
HETATM    1  O   UNL     1      -6.230  11.645  69.789  1.00  0.00    -0.112 OA 
HETATM    2  N   UNL     1      -7.099  11.754  68.913  1.00  0.00    -0.111 N  
HETATM    3  O   UNL     1      -7.534  12.834  68.485  1.00  0.00    -0.117 OA 
HETATM    4  C   UNL     1      -7.647  10.521  68.336  1.00  0.00    -0.097 A  
HETATM    5  C   UNL     1      -7.185   9.281  68.782  1.00  0.00    -0.074 A  
HETATM    6  C   UNL     1      -7.673   8.109  68.190  1.00  0.00    -0.110 A  
HETATM    7  C   UNL     1      -8.630   8.142  67.155  1.00  0.00    -0.124 A  
HETATM    8  C   UNL     1      -8.615  10.591  67.330  1.00  0.00    -0.122 A  
HETATM    9  C   UNL     1      -9.101   9.409  66.758  1.00  0.00    -0.168 A  
ENDROOT
BRANCH   7  10
HETATM   10  C   UNL     1      -9.083   6.897  66.484  1.00  0.00    -0.179 A  
HETATM   11  C   UNL     1     -10.267   6.239  66.861  1.00  0.00    -0.268 A  
HETATM   12  C   UNL     1     -10.657   5.031  66.267  1.00  0.00    -0.332 A  
HETATM   13  C   UNL     1      -9.877   4.461  65.267  1.00  0.00    -0.209 A  
HETATM   14  C   UNL     1      -8.712   5.099  64.858  1.00  0.00    -0.140 A  
HETATM   15  C   UNL     1      -8.319   6.298  65.463  1.00  0.00    -0.147 A  
ENDBRANCH   7  10
TORSDOF 1
ENDMDL
MODEL      140
REMARK 921   NORMALIZED FREE ENERGY PREDICTED BY IDOCK:   -2.12 KCAL/MOL
REMARK 922        TOTAL FREE ENERGY PREDICTED BY IDOCK:   -2.56 KCAL/MOL
REMARK 923 INTER-LIGAND FREE ENERGY PREDICTED BY IDOCK:   -2.26 KCAL/MOL
REMARK 924 INTRA-LIGAND FREE ENERGY PREDICTED BY IDOCK:   -0.31 KCAL/MOL
REMARK 927      BINDING AFFINITY PREDICTED BY RF-SCORE:    0.00 PKD
ROOT
HETATM    1  O   UNL     1      -8.109   3.127  74.111  1.00  0.00    -0.068 OA 
HETATM    2  N   UNL     1      -7.914   4.179  73.487  1.00  0.00    -0.088 N  
HETATM    3  O   UNL     1      -7.315   5.165  73.944  1.00  0.00    -0.082 OA 
HETATM    4  C   UNL     1      -8.416   4.262  72.111  1.00  0.00    -0.107 A  
HETATM    5  C   UNL     1      -9.091   3.175  71.552  1.00  0.00    -0.168 A  
HETATM    6  C   UNL     1      -9.522   3.242  70.220  1.00  0.00    -0.234 A  
HETATM    7  C   UNL     1      -9.301   4.384  69.423  1.00  0.00    -0.225 A  
HETATM    8  C   UNL     1      -8.202   5.421  71.359  1.00  0.00    -0.117 A  
HETATM    9  C   UNL     1      -8.651   5.475  70.033  1.00  0.00    -0.120 A  
ENDROOT
BRANCH   7  10
HETATM   10  C   UNL     1      -9.694   4.412  67.991  1.00  0.00    -0.182 A  
HETATM   11  C   UNL     1      -9.331   3.386  67.101  1.00  0.00    -0.224 A  
HETATM   12  C   UNL     1      -9.652   3.448  65.738  1.00  0.00    -0.072 A  
HETATM   13  C   UNL     1     -10.361   4.534  65.237  1.00  0.00    -0.187 A  
HETATM   14  C   UNL     1     -10.752   5.554  66.097  1.00  0.00    -0.097 A  
HETATM   15  C   UNL     1     -10.418   5.495  67.454  1.00  0.00    -0.284 A  
ENDBRANCH   7  10
TORSDOF 1
ENDMDL
MODEL      141
REMARK 921   NORMALIZED FREE ENERGY PREDICTED BY IDOCK:   -2.08 KCAL/MOL
REMARK 922        TOTAL FREE ENERGY PREDICTED BY IDOCK:   -2.53 KCAL/MOL
REMARK 923 INTER-LIGAND FREE ENERGY PREDICTED BY IDOCK:   -2.23 KCAL/MOL
REMARK 924 INTRA-LIGAND FREE ENERGY PREDICTED BY IDOCK:   -0.30 KCAL/MOL
REMARK 927      BINDING AFFINITY PREDICTED BY RF-SCORE:    0.00 PKD
ROOT
HETATM    1  O   UNL     1      -6.869   9.802  71.534  1.00  0.00    -0.310 OA 
HETATM    2  N   UNL     1      -7.502   8.788  71.858  1.00  0.00    -0.060 N  
HETATM    3  O   UNL     1      -7.897   8.545  73.008  1.00  0.00    -0.336 OA 
HETATM    4  C   UNL     1      -7.815   7.812  70.808  1.00  0.00    -0.099 A  
HETATM    5  C   UNL     1      -7.395   8.045  69.496  1.00  0.00    -0.086 A  
HETATM    6  C   UNL     1      -7.742   7.135  68.489  1.00  0.00    -0.120 A  
HETATM    7  C   UNL     1      -8.500   5.977  68.761  1.00  0.00    -0.113 A  
HETATM    8  C   UNL     1      -8.545   6.661  71.119  1.00  0.00    -0.130 A  
HETATM    9  C   UNL     1      -8.872   5.756  70.102  1.00  0.00    -0.144 A  
ENDROOT
BRANCH   7  10
HETATM   10  C   UNL     1      -8.925   5.061  67.673  1.00  0.00    -0.115 A  
HETATM   11  C   UNL     1      -8.422   3.752  67.565  1.00  0.00    -0.103 A  
HETATM   12  C   UNL     1      -8.779   2.914  66.501  1.00  0.00    -0.134 A  
HETATM   13  C   UNL     1      -9.665   3.361  65.527  1.00  0.00    -0.034 A  
HETATM   14  C   UNL     1     -10.195   4.642  65.618  1.00  0.00    -0.255 A  
HETATM   15  C   UNL     1      -9.825   5.481  66.674  1.00  0.00    -0.190 A  
ENDBRANCH   7  10
TORSDOF 1
ENDMDL
MODEL      142
REMARK 921   NORMALIZED FREE ENERGY PREDICTED BY IDOCK:   -1.97 KCAL/MOL
REMARK 922        TOTAL FREE ENERGY PREDICTED BY IDOCK:   -2.41 KCAL/MOL
REMARK 923 INTER-LIGAND FREE ENERGY PREDICTED BY IDOCK:   -2.12 KCAL/MOL
REMARK 924 INTRA-LIGAND FREE ENERGY PREDICTED BY IDOCK:   -0.30 KCAL/MOL
REMARK 927      BINDING AFFINITY PREDICTED BY RF-SCORE:    0.00 PKD
ROOT
HETATM    1  O   UNL     1      -7.234  10.281  70.692  1.00  0.00    -0.306 OA 
HETATM    2  N   UNL     1      -8.036  10.038  69.780  1.00  0.00    -0.174 N  
HETATM    3  O   UNL     1      -8.718  10.894  69.197  1.00  0.00    -0.137 OA 
HETATM    4  C   UNL     1      -8.183   8.641  69.354  1.00  0.00    -0.113 A  
HETATM    5  C   UNL     1      -7.433   7.642  69.978  1.00  0.00    -0.082 A  
HETATM    6  C   UNL     1      -7.539   6.318  69.530  1.00  0.00    -0.094 A  
HETATM    7  C   UNL     1      -8.394   5.959  68.468  1.00  0.00    -0.109 A  
HETATM    8  C   UNL     1      -9.061   8.317  68.315  1.00  0.00    -0.135 A  
HETATM    9  C   UNL     1      -9.164   6.987  67.889  1.00  0.00    -0.125 A  
ENDROOT
BRANCH   7  10
HETATM   10  C   UNL     1      -8.440   4.567  67.954  1.00  0.00    -0.104 A  
HETATM   11  C   UNL     1      -7.829   4.202  66.741  1.00  0.00    -0.097 A  
HETATM   12  C   UNL     1      -7.929   2.901  66.230  1.00  0.00    -0.082 A  
HETATM   13  C   UNL     1      -8.630   1.927  66.933  1.00  0.00    -0.113 A  
HETATM   14  C   UNL     1      -9.227   2.252  68.145  1.00  0.00    -0.247 A  
HETATM   15  C   UNL     1      -9.137   3.556  68.645  1.00  0.00    -0.203 A  
ENDBRANCH   7  10
TORSDOF 1
ENDMDL
MODEL      143
REMARK 921   NORMALIZED FREE ENERGY PREDICTED BY IDOCK:   -1.76 KCAL/MOL
REMARK 922        TOTAL FREE ENERGY PREDICTED BY IDOCK:   -2.19 KCAL/MOL
REMARK 923 INTER-LIGAND FREE ENERGY PREDICTED BY IDOCK:   -1.90 KCAL/MOL
REMARK 924 INTRA-LIGAND FREE ENERGY PREDICTED BY IDOCK:   -0.29 KCAL/MOL
REMARK 927      BINDING AFFINITY PREDICTED BY RF-SCORE:    0.00 PKD
ROOT
HETATM    1  O   UNL     1      -9.871   3.449  67.294  1.00  0.00    -0.069 OA 
HETATM    2  N   UNL     1      -9.031   4.092  66.650  1.00  0.00    -0.122 N  
HETATM    3  O   UNL     1      -8.313   3.613  65.759  1.00  0.00    -0.103 OA 
HETATM    4  C   UNL     1      -8.882   5.519  66.954  1.00  0.00    -0.112 A  
HETATM    5  C   UNL     1      -9.673   6.105  67.945  1.00  0.00    -0.117 A  
HETATM    6  C   UNL     1      -9.562   7.479  68.194  1.00  0.00    -0.155 A  
HETATM    7  C   UNL     1      -8.664   8.295  67.476  1.00  0.00    -0.129 A  
HETATM    8  C   UNL     1      -7.961   6.293  66.240  1.00  0.00    -0.110 A  
HETATM    9  C   UNL     1      -7.855   7.663  66.511  1.00  0.00    -0.105 A  
ENDROOT
BRANCH   7  10
HETATM   10  C   UNL     1      -8.611   9.763  67.697  1.00  0.00    -0.125 A  
HETATM   11  C   UNL     1      -7.678  10.349  68.572  1.00  0.00    -0.101 A  
HETATM   12  C   UNL     1      -7.674  11.727  68.824  1.00  0.00    -0.091 A  
HETATM   13  C   UNL     1      -8.593  12.555  68.190  1.00  0.00    -0.189 A  
HETATM   14  C   UNL     1      -9.513  12.008  67.304  1.00  0.00    -0.181 A  
HETATM   15  C   UNL     1      -9.524  10.630  67.065  1.00  0.00    -0.187 A  
ENDBRANCH   7  10
TORSDOF 1
ENDMDL
MODEL      144
REMARK 921   NORMALIZED FREE ENERGY PREDICTED BY IDOCK:   -1.51 KCAL/MOL
REMARK 922        TOTAL FREE ENERGY PREDICTED BY IDOCK:   -1.92 KCAL/MOL
REMARK 923 INTER-LIGAND FREE ENERGY PREDICTED BY IDOCK:   -1.60 KCAL/MOL
REMARK 924 INTRA-LIGAND FREE ENERGY PREDICTED BY IDOCK:   -0.32 KCAL/MOL
REMARK 927      BINDING AFFINITY PREDICTED BY RF-SCORE:    0.00 PKD
ROOT
HETATM    1  O   UNL     1      -6.600  10.751  70.755  1.00  0.00    -0.331 OA 
HETATM    2  N   UNL     1      -7.166   9.672  70.534  1.00  0.00    -0.139 N  
HETATM    3  O   UNL     1      -7.830   9.042  71.371  1.00  0.00    -0.257 OA 
HETATM    4  C   UNL     1      -7.052   9.104  69.186  1.00  0.00    -0.062 A  
HETATM    5  C   UNL     1      -6.319   9.780  68.207  1.00  0.00    -0.055 A  
HETATM    6  C   UNL     1      -6.258   9.258  66.908  1.00  0.00    -0.065 A  
HETATM    7  C   UNL     1      -6.912   8.058  66.557  1.00  0.00    -0.071 A  
HETATM    8  C   UNL     1      -7.691   7.898  68.880  1.00  0.00    -0.105 A  
HETATM    9  C   UNL     1      -7.608   7.385  67.579  1.00  0.00    -0.106 A  
ENDROOT
BRANCH   7  10
HETATM   10  C   UNL     1      -6.902   7.557  65.159  1.00  0.00    -0.047 A  
HETATM   11  C   UNL     1      -7.874   6.656  64.686  1.00  0.00    -0.116 A  
HETATM   12  C   UNL     1      -7.823   6.138  63.386  1.00  0.00    -0.107 A  
HETATM   13  C   UNL     1      -6.807   6.525  62.519  1.00  0.00    -0.039 A  
HETATM   14  C   UNL     1      -5.845   7.430  62.950  1.00  0.00    -0.050 A  
HETATM   15  C   UNL     1      -5.890   7.934  64.255  1.00  0.00    -0.052 A  
ENDBRANCH   7  10
TORSDOF 1
ENDMDL
MODEL      145
REMARK 921   NORMALIZED FREE ENERGY PREDICTED BY IDOCK:   -0.58 KCAL/MOL
REMARK 922        TOTAL FREE ENERGY PREDICTED BY IDOCK:   -0.94 KCAL/MOL
REMARK 923 INTER-LIGAND FREE ENERGY PREDICTED BY IDOCK:   -0.62 KCAL/MOL
REMARK 924 INTRA-LIGAND FREE ENERGY PREDICTED BY IDOCK:   -0.32 KCAL/MOL
REMARK 927      BINDING AFFINITY PREDICTED BY RF-SCORE:    0.00 PKD
ROOT
HETATM    1  O   UNL     1     -11.218   1.600  73.479  1.00  0.00    -0.140 OA 
HETATM    2  N   UNL     1     -11.377   2.745  73.034  1.00  0.00     0.058 N  
HETATM    3  O   UNL     1     -12.324   3.488  73.331  1.00  0.00     0.314 OA 
HETATM    4  C   UNL     1     -10.372   3.261  72.098  1.00  0.00     0.003 A  
HETATM    5  C   UNL     1      -9.284   2.462  71.738  1.00  0.00    -0.165 A  
HETATM    6  C   UNL     1      -8.300   2.981  70.885  1.00  0.00    -0.084 A  
HETATM    7  C   UNL     1      -8.378   4.291  70.369  1.00  0.00    -0.081 A  
HETATM    8  C   UNL     1     -10.496   4.555  71.584  1.00  0.00    -0.084 A  
HETATM    9  C   UNL     1      -9.509   5.052  70.723  1.00  0.00    -0.230 A  
ENDROOT
BRANCH   7  10
HETATM   10  C   UNL     1      -7.291   4.853  69.528  1.00  0.00    -0.056 A  
HETATM   11  C   UNL     1      -6.283   4.042  68.978  1.00  0.00    -0.028 A  
HETATM   12  C   UNL     1      -5.225   4.587  68.237  1.00  0.00    -0.007 A  
HETATM   13  C   UNL     1      -5.162   5.958  68.015  1.00  0.00    -0.004 A  
HETATM   14  C   UNL     1      -6.155   6.782  68.528  1.00  0.00    -0.026 A  
HETATM   15  C   UNL     1      -7.202   6.237  69.279  1.00  0.00    -0.086 A  
ENDBRANCH   7  10
TORSDOF 1
ENDMDL
MODEL      146
REMARK 921   NORMALIZED FREE ENERGY PREDICTED BY IDOCK:   -0.46 KCAL/MOL
REMARK 922        TOTAL FREE ENERGY PREDICTED BY IDOCK:   -0.81 KCAL/MOL
REMARK 923 INTER-LIGAND FREE ENERGY PREDICTED BY IDOCK:   -0.50 KCAL/MOL
REMARK 924 INTRA-LIGAND FREE ENERGY PREDICTED BY IDOCK:   -0.30 KCAL/MOL
REMARK 927      BINDING AFFINITY PREDICTED BY RF-SCORE:    0.00 PKD
ROOT
HETATM    1  O   UNL     1      -8.358  19.590  71.006  1.00  0.00     2.133 OA 
HETATM    2  N   UNL     1      -9.065  19.839  70.020  1.00  0.00     0.682 N  
HETATM    3  O   UNL     1     -10.269  20.134  70.074  1.00  0.00    -0.014 OA 
HETATM    4  C   UNL     1      -8.433  19.792  68.696  1.00  0.00    -0.185 A  
HETATM    5  C   UNL     1      -7.078  19.471  68.585  1.00  0.00    -0.373 A  
HETATM    6  C   UNL     1      -6.469  19.479  67.323  1.00  0.00    -0.210 A  
HETATM    7  C   UNL     1      -7.187  19.796  66.152  1.00  0.00    -0.291 A  
HETATM    8  C   UNL     1      -9.183  20.086  67.553  1.00  0.00    -0.475 A  
HETATM    9  C   UNL     1      -8.560  20.077  66.299  1.00  0.00    -0.337 A  
ENDROOT
BRANCH   7  10
HETATM   10  C   UNL     1      -6.512  19.875  64.832  1.00  0.00    -0.310 A  
HETATM   11  C   UNL     1      -5.821  18.779  64.284  1.00  0.00    -0.082 A  
HETATM   12  C   UNL     1      -5.133  18.879  63.068  1.00  0.00    -0.249 A  
HETATM   13  C   UNL     1      -5.137  20.076  62.360  1.00  0.00    -0.240 A  
HETATM   14  C   UNL     1      -5.829  21.169  62.865  1.00  0.00    -0.308 A  
HETATM   15  C   UNL     1      -6.503  21.071  64.087  1.00  0.00    -0.246 A  
ENDBRANCH   7  10
TORSDOF 1
ENDMDL
MODEL      147
REMARK 921   NORMALIZED FREE ENERGY PREDICTED BY IDOCK:    0.25 KCAL/MOL
REMARK 922        TOTAL FREE ENERGY PREDICTED BY IDOCK:   -0.06 KCAL/MOL
REMARK 923 INTER-LIGAND FREE ENERGY PREDICTED BY IDOCK:    0.26 KCAL/MOL
REMARK 924 INTRA-LIGAND FREE ENERGY PREDICTED BY IDOCK:   -0.32 KCAL/MOL
REMARK 927      BINDING AFFINITY PREDICTED BY RF-SCORE:    0.00 PKD
ROOT
HETATM    1  O   UNL     1     -10.850  11.030  66.653  1.00  0.00    -0.261 OA 
HETATM    2  N   UNL     1      -9.942  11.633  66.064  1.00  0.00    -0.220 N  
HETATM    3  O   UNL     1      -9.727  11.561  64.844  1.00  0.00    -0.245 OA 
HETATM    4  C   UNL     1      -9.067  12.500  66.861  1.00  0.00    -0.213 A  
HETATM    5  C   UNL     1      -9.274  12.618  68.238  1.00  0.00    -0.184 A  
HETATM    6  C   UNL     1      -8.469  13.488  68.984  1.00  0.00     0.332 A  
HETATM    7  C   UNL     1      -7.442  14.248  68.387  1.00  0.00    -0.122 A  
HETATM    8  C   UNL     1      -8.041  13.218  66.240  1.00  0.00     1.146 A  
HETATM    9  C   UNL     1      -7.238  14.073  67.004  1.00  0.00     0.470 A  
ENDROOT
BRANCH   7  10
HETATM   10  C   UNL     1      -6.646  15.222  69.176  1.00  0.00    -0.130 A  
HETATM   11  C   UNL     1      -6.319  14.994  70.525  1.00  0.00    -0.012 A  
HETATM   12  C   UNL     1      -5.622  15.945  71.282  1.00  0.00     0.265 A  
HETATM   13  C   UNL     1      -5.219  17.142  70.699  1.00  0.00    -0.253 A  
HETATM   14  C   UNL     1      -5.508  17.386  69.362  1.00  0.00    -0.185 A  
HETATM   15  C   UNL     1      -6.217  16.440  68.614  1.00  0.00    -0.130 A  
ENDBRANCH   7  10
TORSDOF 1
ENDMDL
MODEL      148
REMARK 921   NORMALIZED FREE ENERGY PREDICTED BY IDOCK:   32.17 KCAL/MOL
REMARK 922        TOTAL FREE ENERGY PREDICTED BY IDOCK:   33.73 KCAL/MOL
REMARK 923 INTER-LIGAND FREE ENERGY PREDICTED BY IDOCK:   34.04 KCAL/MOL
REMARK 924 INTRA-LIGAND FREE ENERGY PREDICTED BY IDOCK:   -0.31 KCAL/MOL
REMARK 927      BINDING AFFINITY PREDICTED BY RF-SCORE:    0.00 PKD
ROOT
HETATM    1  O   UNL     1     -11.711  14.051  74.462  1.00  0.00     1.434 OA 
HETATM    2  N   UNL     1     -11.437  13.026  73.823  1.00  0.00     7.874 N  
HETATM    3  O   UNL     1     -11.250  11.910  74.332  1.00  0.00    15.730 OA 
HETATM    4  C   UNL     1     -11.338  13.135  72.363  1.00  0.00     5.221 A  
HETATM    5  C   UNL     1     -11.546  14.370  71.744  1.00  0.00     0.248 A  
HETATM    6  C   UNL     1     -11.502  14.457  70.346  1.00  0.00    -0.228 A  
HETATM    7  C   UNL     1     -11.242  13.330  69.539  1.00  0.00    -0.163 A  
HETATM    8  C   UNL     1     -11.052  12.002  71.596  1.00  0.00     5.072 A  
HETATM    9  C   UNL     1     -10.998  12.110  70.200  1.00  0.00     0.732 A  
ENDROOT
BRANCH   7  10
HETATM   10  C   UNL     1     -11.273  13.421  68.057  1.00  0.00    -0.298 A  
HETATM   11  C   UNL     1     -12.242  14.182  67.379  1.00  0.00    -0.278 A  
HETATM   12  C   UNL     1     -12.305  14.214  65.980  1.00  0.00    -0.470 A  
HETATM   13  C   UNL     1     -11.384  13.496  65.224  1.00  0.00    -0.304 A  
HETATM   14  C   UNL     1     -10.401  12.752  65.865  1.00  0.00    -0.298 A  
HETATM   15  C   UNL     1     -10.351  12.711  67.262  1.00  0.00    -0.230 A  
ENDBRANCH   7  10
TORSDOF 1
ENDMDL
