MODEL        1
REMARK 921   NORMALIZED FREE ENERGY PREDICTED BY IDOCK:   -6.16 KCAL/MOL
REMARK 922        TOTAL FREE ENERGY PREDICTED BY IDOCK:   -8.91 KCAL/MOL
REMARK 923 INTER-LIGAND FREE ENERGY PREDICTED BY IDOCK:   -8.32 KCAL/MOL
REMARK 924 INTRA-LIGAND FREE ENERGY PREDICTED BY IDOCK:   -0.59 KCAL/MOL
REMARK 927      BINDING AFFINITY PREDICTED BY RF-SCORE:    0.00 PKD
ROOT
HETATM    1  C   UNL     1     -13.364   9.680  72.166  1.00  0.00    -0.545 C  
HETATM    2  C   UNL     1     -12.672  10.799  71.403  1.00  0.00    -0.544 C  
ENDROOT
BRANCH   2   3
HETATM    3  C   UNL     1     -13.264  12.157  71.776  1.00  0.00    -0.423 C  
BRANCH   3   4
HETATM    4  C   UNL     1     -12.459  13.326  71.191  1.00  0.00    -0.397 C  
HETATM    5  C   UNL     1     -13.175  14.687  71.364  1.00  0.00    -0.425 C  
HETATM    6  C   UNL     1     -12.373  15.829  70.718  1.00  0.00    -0.390 C  
HETATM    7  C   UNL     1     -13.508  15.044  72.829  1.00  0.00    -0.574 C  
HETATM    8  C   UNL     1     -12.303  15.239  73.739  1.00  0.00    -0.731 C  
BRANCH   6   9
HETATM    9  O   UNL     1     -12.160  15.657  69.308  1.00  0.00    -0.347 OA 
BRANCH   9  10
HETATM   10  C   UNL     1     -10.916  15.261  68.945  1.00  0.00    -0.261 C  
HETATM   11  O   UNL     1      -9.895  15.400  69.597  1.00  0.00    -0.264 OA 
BRANCH  10  12
HETATM   12  C   UNL     1     -10.965  14.541  67.643  1.00  0.00    -0.293 A  
HETATM   13  C   UNL     1     -11.967  13.601  67.428  1.00  0.00    -0.413 A  
HETATM   14  C   UNL     1     -12.079  12.947  66.188  1.00  0.00    -0.458 A  
HETATM   15  C   UNL     1     -11.200  13.199  65.119  1.00  0.00    -0.294 A  
HETATM   16  C   UNL     1     -10.188  14.146  65.377  1.00  0.00    -0.380 A  
HETATM   17  C   UNL     1     -10.074  14.815  66.603  1.00  0.00    -0.269 A  
BRANCH  15  18
HETATM   18  N   UNL     1     -11.253  12.510  63.913  1.00  0.00    -0.400 NA 
HETATM   19  C   UNL     1     -12.537  12.086  63.350  1.00  0.00    -0.469 C  
HETATM   20  C   UNL     1     -10.115  11.729  63.435  1.00  0.00    -0.446 C  
ENDBRANCH  15  18
ENDBRANCH  10  12
ENDBRANCH   9  10
ENDBRANCH   6   9
ENDBRANCH   3   4
ENDBRANCH   2   3
TORSDOF 6
ENDMDL
MODEL        2
REMARK 921   NORMALIZED FREE ENERGY PREDICTED BY IDOCK:   -5.96 KCAL/MOL
REMARK 922        TOTAL FREE ENERGY PREDICTED BY IDOCK:   -8.64 KCAL/MOL
REMARK 923 INTER-LIGAND FREE ENERGY PREDICTED BY IDOCK:   -7.59 KCAL/MOL
REMARK 924 INTRA-LIGAND FREE ENERGY PREDICTED BY IDOCK:   -1.05 KCAL/MOL
REMARK 927      BINDING AFFINITY PREDICTED BY RF-SCORE:    0.00 PKD
ROOT
HETATM    1  C   UNL     1     -12.358  12.297  63.520  1.00  0.00    -0.670 C  
HETATM    2  C   UNL     1     -10.981  11.709  63.788  1.00  0.00    -0.495 C  
ENDROOT
BRANCH   2   3
HETATM    3  C   UNL     1     -10.721  11.600  65.290  1.00  0.00    -0.346 C  
BRANCH   3   4
HETATM    4  C   UNL     1     -11.622  12.536  66.107  1.00  0.00    -0.448 C  
HETATM    5  C   UNL     1     -10.816  13.575  66.922  1.00  0.00    -0.286 C  
HETATM    6  C   UNL     1     -11.741  14.461  67.774  1.00  0.00    -0.376 C  
HETATM    7  C   UNL     1      -9.883  14.462  66.069  1.00  0.00    -0.342 C  
HETATM    8  C   UNL     1     -10.586  15.370  65.068  1.00  0.00    -0.445 C  
BRANCH   6   9
HETATM    9  O   UNL     1     -12.531  13.724  68.721  1.00  0.00    -0.151 OA 
BRANCH   9  10
HETATM   10  C   UNL     1     -11.995  13.593  69.959  1.00  0.00    -0.343 C  
HETATM   11  O   UNL     1     -11.545  14.492  70.649  1.00  0.00    -0.276 OA 
BRANCH  10  12
HETATM   12  C   UNL     1     -12.098  12.181  70.418  1.00  0.00    -0.395 A  
HETATM   13  C   UNL     1     -11.352  11.204  69.767  1.00  0.00    -0.354 A  
HETATM   14  C   UNL     1     -11.380   9.870  70.213  1.00  0.00    -0.357 A  
HETATM   15  C   UNL     1     -12.148   9.458  71.316  1.00  0.00    -0.345 A  
HETATM   16  C   UNL     1     -12.901  10.471  71.942  1.00  0.00    -0.509 A  
HETATM   17  C   UNL     1     -12.872  11.807  71.517  1.00  0.00    -0.450 A  
BRANCH  15  18
HETATM   18  N   UNL     1     -12.241   8.132  71.725  1.00  0.00    -0.303 NA 
HETATM   19  C   UNL     1     -13.509   7.406  71.624  1.00  0.00    -0.366 C  
HETATM   20  C   UNL     1     -11.323   7.578  72.717  1.00  0.00    -0.336 C  
ENDBRANCH  15  18
ENDBRANCH  10  12
ENDBRANCH   9  10
ENDBRANCH   6   9
ENDBRANCH   3   4
ENDBRANCH   2   3
TORSDOF 6
ENDMDL
MODEL        3
REMARK 921   NORMALIZED FREE ENERGY PREDICTED BY IDOCK:   -5.95 KCAL/MOL
REMARK 922        TOTAL FREE ENERGY PREDICTED BY IDOCK:   -8.62 KCAL/MOL
REMARK 923 INTER-LIGAND FREE ENERGY PREDICTED BY IDOCK:   -7.54 KCAL/MOL
REMARK 924 INTRA-LIGAND FREE ENERGY PREDICTED BY IDOCK:   -1.09 KCAL/MOL
REMARK 927      BINDING AFFINITY PREDICTED BY RF-SCORE:    0.00 PKD
ROOT
HETATM    1  C   UNL     1     -12.472  12.225  63.682  1.00  0.00    -0.647 C  
HETATM    2  C   UNL     1     -11.102  11.684  64.063  1.00  0.00    -0.458 C  
ENDROOT
BRANCH   2   3
HETATM    3  C   UNL     1     -10.939  11.644  65.582  1.00  0.00    -0.322 C  
BRANCH   3   4
HETATM    4  C   UNL     1     -11.742  12.747  66.285  1.00  0.00    -0.460 C  
HETATM    5  C   UNL     1     -10.835  13.796  66.971  1.00  0.00    -0.288 C  
HETATM    6  C   UNL     1     -11.667  14.856  67.714  1.00  0.00    -0.317 C  
HETATM    7  C   UNL     1      -9.837  14.489  66.018  1.00  0.00    -0.342 C  
HETATM    8  C   UNL     1     -10.467  15.333  64.919  1.00  0.00    -0.334 C  
BRANCH   6   9
HETATM    9  O   UNL     1     -12.508  14.310  68.742  1.00  0.00    -0.157 OA 
BRANCH   9  10
HETATM   10  C   UNL     1     -11.938  14.188  69.966  1.00  0.00    -0.340 C  
HETATM   11  O   UNL     1     -11.385  15.073  70.596  1.00  0.00    -0.272 OA 
BRANCH  10  12
HETATM   12  C   UNL     1     -12.148  12.812  70.496  1.00  0.00    -0.369 A  
HETATM   13  C   UNL     1     -13.008  12.628  71.573  1.00  0.00    -0.380 A  
HETATM   14  C   UNL     1     -13.275  11.335  72.060  1.00  0.00    -0.437 A  
HETATM   15  C   UNL     1     -12.698  10.182  71.499  1.00  0.00    -0.436 A  
HETATM   16  C   UNL     1     -11.821  10.409  70.419  1.00  0.00    -0.418 A  
HETATM   17  C   UNL     1     -11.557  11.689  69.915  1.00  0.00    -0.366 A  
BRANCH  15  18
HETATM   18  N   UNL     1     -12.896   8.906  72.014  1.00  0.00    -0.368 NA 
HETATM   19  C   UNL     1     -11.757   8.073  72.406  1.00  0.00    -0.386 C  
HETATM   20  C   UNL     1     -14.104   8.144  71.707  1.00  0.00    -0.439 C  
ENDBRANCH  15  18
ENDBRANCH  10  12
ENDBRANCH   9  10
ENDBRANCH   6   9
ENDBRANCH   3   4
ENDBRANCH   2   3
TORSDOF 6
ENDMDL
MODEL        4
REMARK 921   NORMALIZED FREE ENERGY PREDICTED BY IDOCK:   -5.90 KCAL/MOL
REMARK 922        TOTAL FREE ENERGY PREDICTED BY IDOCK:   -8.56 KCAL/MOL
REMARK 923 INTER-LIGAND FREE ENERGY PREDICTED BY IDOCK:   -7.75 KCAL/MOL
REMARK 924 INTRA-LIGAND FREE ENERGY PREDICTED BY IDOCK:   -0.80 KCAL/MOL
REMARK 927      BINDING AFFINITY PREDICTED BY RF-SCORE:    0.00 PKD
ROOT
HETATM    1  C   UNL     1      -5.965  19.691  67.601  1.00  0.00    -0.207 C  
HETATM    2  C   UNL     1      -6.594  19.410  68.958  1.00  0.00    -0.347 C  
ENDROOT
BRANCH   2   3
HETATM    3  C   UNL     1      -7.653  18.314  68.847  1.00  0.00    -0.239 C  
BRANCH   3   4
HETATM    4  C   UNL     1      -8.236  18.207  67.431  1.00  0.00    -0.236 C  
HETATM    5  C   UNL     1      -9.783  18.224  67.423  1.00  0.00    -0.300 C  
HETATM    6  C   UNL     1     -10.339  18.058  65.998  1.00  0.00    -0.331 C  
HETATM    7  C   UNL     1     -10.405  19.472  68.085  1.00  0.00    -0.550 C  
HETATM    8  C   UNL     1     -10.103  20.794  67.391  1.00  0.00    -0.244 C  
BRANCH   6   9
HETATM    9  O   UNL     1      -9.941  16.832  65.365  1.00  0.00    -0.572 OA 
BRANCH   9  10
HETATM   10  C   UNL     1     -10.946  16.082  64.849  1.00  0.00    -0.384 C  
HETATM   11  O   UNL     1     -11.631  16.363  63.880  1.00  0.00    -1.100 OA 
BRANCH  10  12
HETATM   12  C   UNL     1     -11.063  14.797  65.590  1.00  0.00    -0.342 A  
HETATM   13  C   UNL     1     -11.652  14.795  66.850  1.00  0.00    -0.337 A  
HETATM   14  C   UNL     1     -11.832  13.589  67.552  1.00  0.00    -0.406 A  
HETATM   15  C   UNL     1     -11.433  12.345  67.032  1.00  0.00    -0.358 A  
HETATM   16  C   UNL     1     -10.827  12.387  65.760  1.00  0.00    -0.312 A  
HETATM   17  C   UNL     1     -10.654  13.579  65.044  1.00  0.00    -0.382 A  
BRANCH  15  18
HETATM   18  N   UNL     1     -11.539  11.155  67.743  1.00  0.00    -0.555 NA 
HETATM   19  C   UNL     1     -11.904  11.161  69.160  1.00  0.00    -0.350 C  
HETATM   20  C   UNL     1     -10.814   9.957  67.327  1.00  0.00    -0.199 C  
ENDBRANCH  15  18
ENDBRANCH  10  12
ENDBRANCH   9  10
ENDBRANCH   6   9
ENDBRANCH   3   4
ENDBRANCH   2   3
TORSDOF 6
ENDMDL
MODEL        5
REMARK 921   NORMALIZED FREE ENERGY PREDICTED BY IDOCK:   -5.88 KCAL/MOL
REMARK 922        TOTAL FREE ENERGY PREDICTED BY IDOCK:   -8.53 KCAL/MOL
REMARK 923 INTER-LIGAND FREE ENERGY PREDICTED BY IDOCK:   -7.18 KCAL/MOL
REMARK 924 INTRA-LIGAND FREE ENERGY PREDICTED BY IDOCK:   -1.34 KCAL/MOL
REMARK 927      BINDING AFFINITY PREDICTED BY RF-SCORE:    0.00 PKD
ROOT
HETATM    1  C   UNL     1     -12.634  15.535  70.730  1.00  0.00    -0.505 C  
HETATM    2  C   UNL     1     -11.786  15.559  69.467  1.00  0.00    -0.380 C  
ENDROOT
BRANCH   2   3
HETATM    3  C   UNL     1     -10.711  16.643  69.558  1.00  0.00    -0.306 C  
BRANCH   3   4
HETATM    4  C   UNL     1      -9.950  16.820  68.237  1.00  0.00    -0.273 C  
HETATM    5  C   UNL     1     -10.657  17.799  67.270  1.00  0.00    -0.322 C  
HETATM    6  C   UNL     1      -9.902  17.913  65.935  1.00  0.00    -0.050 C  
HETATM    7  C   UNL     1     -10.896  19.206  67.857  1.00  0.00    -0.302 C  
HETATM    8  C   UNL     1      -9.636  19.995  68.187  1.00  0.00    -0.423 C  
BRANCH   6   9
HETATM    9  O   UNL     1      -9.779  16.664  65.235  1.00  0.00    -0.431 OA 
BRANCH   9  10
HETATM   10  C   UNL     1     -10.944  16.091  64.845  1.00  0.00    -0.384 C  
HETATM   11  O   UNL     1     -11.712  16.519  64.000  1.00  0.00    -1.111 OA 
BRANCH  10  12
HETATM   12  C   UNL     1     -11.137  14.791  65.544  1.00  0.00    -0.346 A  
HETATM   13  C   UNL     1     -10.019  14.046  65.904  1.00  0.00    -0.325 A  
HETATM   14  C   UNL     1     -10.163  12.843  66.619  1.00  0.00    -0.251 A  
HETATM   15  C   UNL     1     -11.418  12.335  66.999  1.00  0.00    -0.354 A  
HETATM   16  C   UNL     1     -12.529  13.108  66.604  1.00  0.00    -0.031 A  
HETATM   17  C   UNL     1     -12.399  14.316  65.904  1.00  0.00    -0.420 A  
BRANCH  15  18
HETATM   18  N   UNL     1     -11.581  11.114  67.642  1.00  0.00    -0.564 NA 
HETATM   19  C   UNL     1     -11.890  11.056  69.072  1.00  0.00    -0.329 C  
HETATM   20  C   UNL     1     -10.959   9.896  67.125  1.00  0.00    -0.076 C  
ENDBRANCH  15  18
ENDBRANCH  10  12
ENDBRANCH   9  10
ENDBRANCH   6   9
ENDBRANCH   3   4
ENDBRANCH   2   3
TORSDOF 6
ENDMDL
MODEL        6
REMARK 921   NORMALIZED FREE ENERGY PREDICTED BY IDOCK:   -5.75 KCAL/MOL
REMARK 922        TOTAL FREE ENERGY PREDICTED BY IDOCK:   -8.36 KCAL/MOL
REMARK 923 INTER-LIGAND FREE ENERGY PREDICTED BY IDOCK:   -7.66 KCAL/MOL
REMARK 924 INTRA-LIGAND FREE ENERGY PREDICTED BY IDOCK:   -0.70 KCAL/MOL
REMARK 927      BINDING AFFINITY PREDICTED BY RF-SCORE:    0.00 PKD
ROOT
HETATM    1  C   UNL     1      -9.542  20.230  67.303  1.00  0.00    -0.581 C  
HETATM    2  C   UNL     1     -10.725  19.280  67.413  1.00  0.00    -0.594 C  
ENDROOT
BRANCH   2   3
HETATM    3  C   UNL     1     -10.316  17.985  68.113  1.00  0.00    -0.398 C  
BRANCH   3   4
HETATM    4  C   UNL     1     -10.610  16.742  67.261  1.00  0.00    -0.275 C  
HETATM    5  C   UNL     1      -9.705  16.654  66.009  1.00  0.00    -0.306 C  
HETATM    6  C   UNL     1     -10.061  15.432  65.145  1.00  0.00    -0.264 C  
HETATM    7  C   UNL     1      -8.193  16.653  66.320  1.00  0.00    -0.365 C  
HETATM    8  C   UNL     1      -7.694  15.454  67.115  1.00  0.00    -0.246 C  
BRANCH   6   9
HETATM    9  O   UNL     1     -11.416  15.437  64.670  1.00  0.00    -0.408 OA 
BRANCH   9  10
HETATM   10  C   UNL     1     -11.972  14.218  64.461  1.00  0.00    -0.462 C  
HETATM   11  O   UNL     1     -12.545  13.850  63.450  1.00  0.00    -0.853 OA 
BRANCH  10  12
HETATM   12  C   UNL     1     -11.718  13.330  65.629  1.00  0.00    -0.389 A  
HETATM   13  C   UNL     1     -12.196  13.708  66.880  1.00  0.00    -0.398 A  
HETATM   14  C   UNL     1     -12.026  12.864  67.993  1.00  0.00    -0.323 A  
HETATM   15  C   UNL     1     -11.377  11.620  67.906  1.00  0.00    -0.299 A  
HETATM   16  C   UNL     1     -10.894  11.277  66.627  1.00  0.00    -0.325 A  
HETATM   17  C   UNL     1     -11.068  12.101  65.507  1.00  0.00    -0.361 A  
BRANCH  15  18
HETATM   18  N   UNL     1     -11.139  10.808  69.009  1.00  0.00    -0.233 NA 
HETATM   19  C   UNL     1     -12.024  10.852  70.174  1.00  0.00    -0.352 C  
HETATM   20  C   UNL     1      -9.799  10.307  69.306  1.00  0.00    -0.228 C  
ENDBRANCH  15  18
ENDBRANCH  10  12
ENDBRANCH   9  10
ENDBRANCH   6   9
ENDBRANCH   3   4
ENDBRANCH   2   3
TORSDOF 6
ENDMDL
MODEL        7
REMARK 921   NORMALIZED FREE ENERGY PREDICTED BY IDOCK:   -5.74 KCAL/MOL
REMARK 922        TOTAL FREE ENERGY PREDICTED BY IDOCK:   -8.35 KCAL/MOL
REMARK 923 INTER-LIGAND FREE ENERGY PREDICTED BY IDOCK:   -7.65 KCAL/MOL
REMARK 924 INTRA-LIGAND FREE ENERGY PREDICTED BY IDOCK:   -0.70 KCAL/MOL
REMARK 927      BINDING AFFINITY PREDICTED BY RF-SCORE:    0.00 PKD
ROOT
HETATM    1  C   UNL     1     -14.332   8.323  71.515  1.00  0.00    -0.525 C  
HETATM    2  C   UNL     1     -13.135   8.849  72.293  1.00  0.00    -0.491 C  
ENDROOT
BRANCH   2   3
HETATM    3  C   UNL     1     -12.826  10.293  71.901  1.00  0.00    -0.528 C  
BRANCH   3   4
HETATM    4  C   UNL     1     -12.765  10.484  70.379  1.00  0.00    -0.325 C  
HETATM    5  C   UNL     1     -11.335  10.795  69.876  1.00  0.00    -0.385 C  
HETATM    6  C   UNL     1     -11.314  11.038  68.358  1.00  0.00    -0.295 C  
HETATM    7  C   UNL     1     -10.287   9.724  70.249  1.00  0.00    -0.348 C  
HETATM    8  C   UNL     1     -10.513   8.351  69.631  1.00  0.00    -0.221 C  
BRANCH   6   9
HETATM    9  O   UNL     1     -12.141  12.135  67.939  1.00  0.00    -0.502 OA 
BRANCH   9  10
HETATM   10  C   UNL     1     -11.881  12.630  66.704  1.00  0.00    -0.380 C  
HETATM   11  O   UNL     1     -12.076  12.062  65.643  1.00  0.00    -0.508 OA 
BRANCH  10  12
HETATM   12  C   UNL     1     -11.383  14.030  66.805  1.00  0.00    -0.346 A  
HETATM   13  C   UNL     1     -11.683  14.772  67.943  1.00  0.00    -0.367 A  
HETATM   14  C   UNL     1     -11.178  16.076  68.097  1.00  0.00    -0.325 A  
HETATM   15  C   UNL     1     -10.362  16.690  67.130  1.00  0.00    -0.300 A  
HETATM   16  C   UNL     1     -10.091  15.914  65.985  1.00  0.00    -0.359 A  
HETATM   17  C   UNL     1     -10.576  14.609  65.825  1.00  0.00    -0.330 A  
BRANCH  15  18
HETATM   18  N   UNL     1      -9.915  18.002  67.236  1.00  0.00    -0.309 NA 
HETATM   19  C   UNL     1      -9.601  18.582  68.543  1.00  0.00    -0.358 C  
HETATM   20  C   UNL     1     -10.230  18.995  66.212  1.00  0.00    -0.446 C  
ENDBRANCH  15  18
ENDBRANCH  10  12
ENDBRANCH   9  10
ENDBRANCH   6   9
ENDBRANCH   3   4
ENDBRANCH   2   3
TORSDOF 6
ENDMDL
MODEL        8
REMARK 921   NORMALIZED FREE ENERGY PREDICTED BY IDOCK:   -5.73 KCAL/MOL
REMARK 922        TOTAL FREE ENERGY PREDICTED BY IDOCK:   -8.33 KCAL/MOL
REMARK 923 INTER-LIGAND FREE ENERGY PREDICTED BY IDOCK:   -7.40 KCAL/MOL
REMARK 924 INTRA-LIGAND FREE ENERGY PREDICTED BY IDOCK:   -0.92 KCAL/MOL
REMARK 927      BINDING AFFINITY PREDICTED BY RF-SCORE:    0.00 PKD
ROOT
HETATM    1  C   UNL     1      -7.138  19.819  68.663  1.00  0.00    -0.366 C  
HETATM    2  C   UNL     1      -6.813  18.669  67.722  1.00  0.00    -0.221 C  
ENDROOT
BRANCH   2   3
HETATM    3  C   UNL     1      -7.876  17.575  67.816  1.00  0.00    -0.209 C  
BRANCH   3   4
HETATM    4  C   UNL     1      -8.595  17.344  66.480  1.00  0.00    -0.293 C  
HETATM    5  C   UNL     1     -10.130  17.498  66.597  1.00  0.00    -0.328 C  
HETATM    6  C   UNL     1     -10.827  17.205  65.258  1.00  0.00    -0.036 C  
HETATM    7  C   UNL     1     -10.589  18.869  67.137  1.00  0.00    -0.531 C  
HETATM    8  C   UNL     1     -10.252  20.062  66.252  1.00  0.00    -0.595 C  
BRANCH   6   9
HETATM    9  O   UNL     1     -10.587  15.879  64.761  1.00  0.00    -0.562 OA 
BRANCH   9  10
HETATM   10  C   UNL     1     -11.676  15.076  64.675  1.00  0.00    -0.382 C  
HETATM   11  O   UNL     1     -12.566  15.155  63.845  1.00  0.00    -0.794 OA 
BRANCH  10  12
HETATM   12  C   UNL     1     -11.608  14.005  65.706  1.00  0.00    -0.339 A  
HETATM   13  C   UNL     1     -12.029  14.286  67.001  1.00  0.00    -0.463 A  
HETATM   14  C   UNL     1     -12.034  13.280  67.984  1.00  0.00    -0.351 A  
HETATM   15  C   UNL     1     -11.622  11.962  67.719  1.00  0.00    -0.323 A  
HETATM   16  C   UNL     1     -11.189  11.717  66.400  1.00  0.00    -0.382 A  
HETATM   17  C   UNL     1     -11.191  12.706  65.407  1.00  0.00    -0.334 A  
BRANCH  15  18
HETATM   18  N   UNL     1     -11.554  10.976  68.696  1.00  0.00    -0.314 NA 
HETATM   19  C   UNL     1     -11.897  11.277  70.088  1.00  0.00    -0.364 C  
HETATM   20  C   UNL     1     -10.678   9.817  68.544  1.00  0.00    -0.215 C  
ENDBRANCH  15  18
ENDBRANCH  10  12
ENDBRANCH   9  10
ENDBRANCH   6   9
ENDBRANCH   3   4
ENDBRANCH   2   3
TORSDOF 6
ENDMDL
MODEL        9
REMARK 921   NORMALIZED FREE ENERGY PREDICTED BY IDOCK:   -5.70 KCAL/MOL
REMARK 922        TOTAL FREE ENERGY PREDICTED BY IDOCK:   -8.29 KCAL/MOL
REMARK 923 INTER-LIGAND FREE ENERGY PREDICTED BY IDOCK:   -7.58 KCAL/MOL
REMARK 924 INTRA-LIGAND FREE ENERGY PREDICTED BY IDOCK:   -0.71 KCAL/MOL
REMARK 927      BINDING AFFINITY PREDICTED BY RF-SCORE:    0.00 PKD
ROOT
HETATM    1  C   UNL     1      -9.730  20.390  67.237  1.00  0.00    -0.602 C  
HETATM    2  C   UNL     1     -10.722  19.245  67.377  1.00  0.00    -0.594 C  
ENDROOT
BRANCH   2   3
HETATM    3  C   UNL     1     -10.158  18.145  68.275  1.00  0.00    -0.398 C  
BRANCH   3   4
HETATM    4  C   UNL     1     -10.481  16.740  67.749  1.00  0.00    -0.335 C  
HETATM    5  C   UNL     1      -9.845  16.462  66.367  1.00  0.00    -0.312 C  
HETATM    6  C   UNL     1     -10.232  15.069  65.840  1.00  0.00    -0.315 C  
HETATM    7  C   UNL     1      -8.310  16.625  66.333  1.00  0.00    -0.353 C  
HETATM    8  C   UNL     1      -7.533  15.648  67.204  1.00  0.00    -0.253 C  
BRANCH   6   9
HETATM    9  O   UNL     1     -11.648  14.888  65.682  1.00  0.00    -0.329 OA 
BRANCH   9  10
HETATM   10  C   UNL     1     -12.062  13.608  65.511  1.00  0.00    -0.411 C  
HETATM   11  O   UNL     1     -12.568  13.141  64.504  1.00  0.00    -0.594 OA 
BRANCH  10  12
HETATM   12  C   UNL     1     -11.740  12.798  66.718  1.00  0.00    -0.459 A  
HETATM   13  C   UNL     1     -12.019  13.321  67.976  1.00  0.00    -0.351 A  
HETATM   14  C   UNL     1     -11.783  12.558  69.134  1.00  0.00    -0.375 A  
HETATM   15  C   UNL     1     -11.262  11.253  69.086  1.00  0.00    -0.273 A  
HETATM   16  C   UNL     1     -10.978  10.761  67.796  1.00  0.00    -0.354 A  
HETATM   17  C   UNL     1     -11.221  11.505  66.633  1.00  0.00    -0.336 A  
BRANCH  15  18
HETATM   18  N   UNL     1     -10.957  10.514  70.224  1.00  0.00    -0.280 NA 
HETATM   19  C   UNL     1      -9.788   9.633  70.253  1.00  0.00    -0.266 C  
HETATM   20  C   UNL     1     -11.990  10.153  71.193  1.00  0.00    -0.386 C  
ENDBRANCH  15  18
ENDBRANCH  10  12
ENDBRANCH   9  10
ENDBRANCH   6   9
ENDBRANCH   3   4
ENDBRANCH   2   3
TORSDOF 6
ENDMDL
MODEL       10
REMARK 921   NORMALIZED FREE ENERGY PREDICTED BY IDOCK:   -5.68 KCAL/MOL
REMARK 922        TOTAL FREE ENERGY PREDICTED BY IDOCK:   -8.26 KCAL/MOL
REMARK 923 INTER-LIGAND FREE ENERGY PREDICTED BY IDOCK:   -7.21 KCAL/MOL
REMARK 924 INTRA-LIGAND FREE ENERGY PREDICTED BY IDOCK:   -1.05 KCAL/MOL
REMARK 927      BINDING AFFINITY PREDICTED BY RF-SCORE:    0.00 PKD
ROOT
HETATM    1  C   UNL     1     -13.512  13.872  72.252  1.00  0.00    -0.623 C  
HETATM    2  C   UNL     1     -13.493  15.345  71.871  1.00  0.00    -0.571 C  
ENDROOT
BRANCH   2   3
HETATM    3  C   UNL     1     -12.137  15.735  71.284  1.00  0.00    -0.487 C  
BRANCH   3   4
HETATM    4  C   UNL     1     -11.700  14.797  70.150  1.00  0.00    -0.352 C  
HETATM    5  C   UNL     1     -11.735  15.484  68.764  1.00  0.00    -0.372 C  
HETATM    6  C   UNL     1     -11.349  14.505  67.642  1.00  0.00    -0.337 C  
HETATM    7  C   UNL     1     -10.869  16.758  68.668  1.00  0.00    -0.336 C  
HETATM    8  C   UNL     1      -9.372  16.541  68.838  1.00  0.00    -0.256 C  
BRANCH   6   9
HETATM    9  O   UNL     1     -12.213  13.362  67.553  1.00  0.00    -0.311 OA 
BRANCH   9  10
HETATM   10  C   UNL     1     -11.614  12.197  67.202  1.00  0.00    -0.335 C  
HETATM   11  O   UNL     1     -11.255  11.879  66.081  1.00  0.00    -0.319 OA 
BRANCH  10  12
HETATM   12  C   UNL     1     -11.371  11.359  68.409  1.00  0.00    -0.346 A  
HETATM   13  C   UNL     1     -10.171  10.666  68.518  1.00  0.00    -0.191 A  
HETATM   14  C   UNL     1      -9.884   9.914  69.672  1.00  0.00    -0.255 A  
HETATM   15  C   UNL     1     -10.777   9.820  70.755  1.00  0.00    -0.323 A  
HETATM   16  C   UNL     1     -11.989  10.524  70.602  1.00  0.00    -0.455 A  
HETATM   17  C   UNL     1     -12.282  11.288  69.464  1.00  0.00    -0.325 A  
BRANCH  15  18
HETATM   18  N   UNL     1     -10.540   9.025  71.869  1.00  0.00    -0.349 NA 
HETATM   19  C   UNL     1      -9.188   8.557  72.180  1.00  0.00    -0.266 C  
HETATM   20  C   UNL     1     -11.596   8.199  72.450  1.00  0.00    -0.399 C  
ENDBRANCH  15  18
ENDBRANCH  10  12
ENDBRANCH   9  10
ENDBRANCH   6   9
ENDBRANCH   3   4
ENDBRANCH   2   3
TORSDOF 6
ENDMDL
MODEL       11
REMARK 921   NORMALIZED FREE ENERGY PREDICTED BY IDOCK:   -5.66 KCAL/MOL
REMARK 922        TOTAL FREE ENERGY PREDICTED BY IDOCK:   -8.24 KCAL/MOL
REMARK 923 INTER-LIGAND FREE ENERGY PREDICTED BY IDOCK:   -7.36 KCAL/MOL
REMARK 924 INTRA-LIGAND FREE ENERGY PREDICTED BY IDOCK:   -0.87 KCAL/MOL
REMARK 927      BINDING AFFINITY PREDICTED BY RF-SCORE:    0.00 PKD
ROOT
HETATM    1  C   UNL     1     -10.407   7.914  67.313  1.00  0.00    -0.377 C  
HETATM    2  C   UNL     1     -11.031   6.540  67.507  1.00  0.00    -0.444 C  
ENDROOT
BRANCH   2   3
HETATM    3  C   UNL     1     -11.016   6.142  68.982  1.00  0.00    -0.436 C  
BRANCH   3   4
HETATM    4  C   UNL     1     -10.571   7.295  69.893  1.00  0.00    -0.244 C  
HETATM    5  C   UNL     1     -11.642   7.669  70.945  1.00  0.00    -0.299 C  
HETATM    6  C   UNL     1     -11.192   8.862  71.804  1.00  0.00    -0.362 C  
HETATM    7  C   UNL     1     -12.068   6.499  71.857  1.00  0.00    -0.388 C  
HETATM    8  C   UNL     1     -10.971   5.942  72.755  1.00  0.00    -0.303 C  
BRANCH   6   9
HETATM    9  O   UNL     1     -10.933  10.054  71.045  1.00  0.00    -0.322 OA 
BRANCH   9  10
HETATM   10  C   UNL     1     -11.956  10.940  70.972  1.00  0.00    -0.270 C  
HETATM   11  O   UNL     1     -12.836  11.096  71.802  1.00  0.00    -0.422 OA 
BRANCH  10  12
HETATM   12  C   UNL     1     -11.824  11.779  69.750  1.00  0.00    -0.420 A  
HETATM   13  C   UNL     1     -11.604  11.159  68.525  1.00  0.00    -0.385 A  
HETATM   14  C   UNL     1     -11.534  11.918  67.343  1.00  0.00    -0.393 A  
HETATM   15  C   UNL     1     -11.678  13.316  67.333  1.00  0.00    -0.373 A  
HETATM   16  C   UNL     1     -11.886  13.912  68.593  1.00  0.00    -0.407 A  
HETATM   17  C   UNL     1     -11.971  13.167  69.777  1.00  0.00    -0.382 A  
BRANCH  15  18
HETATM   18  N   UNL     1     -11.541  14.086  66.184  1.00  0.00    -0.353 NA 
HETATM   19  C   UNL     1     -12.581  14.084  65.153  1.00  0.00    -0.428 C  
HETATM   20  C   UNL     1     -10.225  14.483  65.690  1.00  0.00    -0.357 C  
ENDBRANCH  15  18
ENDBRANCH  10  12
ENDBRANCH   9  10
ENDBRANCH   6   9
ENDBRANCH   3   4
ENDBRANCH   2   3
TORSDOF 6
ENDMDL
MODEL       12
REMARK 921   NORMALIZED FREE ENERGY PREDICTED BY IDOCK:   -5.63 KCAL/MOL
REMARK 922        TOTAL FREE ENERGY PREDICTED BY IDOCK:   -8.19 KCAL/MOL
REMARK 923 INTER-LIGAND FREE ENERGY PREDICTED BY IDOCK:   -7.02 KCAL/MOL
REMARK 924 INTRA-LIGAND FREE ENERGY PREDICTED BY IDOCK:   -1.17 KCAL/MOL
REMARK 927      BINDING AFFINITY PREDICTED BY RF-SCORE:    0.00 PKD
ROOT
HETATM    1  C   UNL     1     -10.073  15.684  69.959  1.00  0.00    -0.220 C  
HETATM    2  C   UNL     1      -8.709  15.693  69.286  1.00  0.00    -0.267 C  
ENDROOT
BRANCH   2   3
HETATM    3  C   UNL     1      -8.500  16.987  68.501  1.00  0.00    -0.257 C  
BRANCH   3   4
HETATM    4  C   UNL     1      -8.850  16.831  67.015  1.00  0.00    -0.227 C  
HETATM    5  C   UNL     1     -10.313  17.226  66.704  1.00  0.00    -0.305 C  
HETATM    6  C   UNL     1     -10.651  17.006  65.220  1.00  0.00    -0.080 C  
HETATM    7  C   UNL     1     -10.679  18.669  67.115  1.00  0.00    -0.433 C  
HETATM    8  C   UNL     1      -9.926  19.766  66.375  1.00  0.00    -0.578 C  
BRANCH   6   9
HETATM    9  O   UNL     1     -10.497  15.644  64.791  1.00  0.00    -0.446 OA 
BRANCH   9  10
HETATM   10  C   UNL     1     -11.635  14.909  64.744  1.00  0.00    -0.410 C  
HETATM   11  O   UNL     1     -12.545  15.039  63.943  1.00  0.00    -0.813 OA 
BRANCH  10  12
HETATM   12  C   UNL     1     -11.599  13.837  65.777  1.00  0.00    -0.342 A  
HETATM   13  C   UNL     1     -11.102  12.585  65.433  1.00  0.00    -0.337 A  
HETATM   14  C   UNL     1     -10.998  11.568  66.400  1.00  0.00    -0.336 A  
HETATM   15  C   UNL     1     -11.385  11.756  67.739  1.00  0.00    -0.289 A  
HETATM   16  C   UNL     1     -11.898  13.033  68.047  1.00  0.00    -0.391 A  
HETATM   17  C   UNL     1     -11.994  14.059  67.097  1.00  0.00    -0.465 A  
BRANCH  15  18
HETATM   18  N   UNL     1     -11.356  10.742  68.688  1.00  0.00    -0.273 NA 
HETATM   19  C   UNL     1     -11.991  10.921  69.995  1.00  0.00    -0.350 C  
HETATM   20  C   UNL     1     -10.305   9.726  68.679  1.00  0.00    -0.201 C  
ENDBRANCH  15  18
ENDBRANCH  10  12
ENDBRANCH   9  10
ENDBRANCH   6   9
ENDBRANCH   3   4
ENDBRANCH   2   3
TORSDOF 6
ENDMDL
MODEL       13
REMARK 921   NORMALIZED FREE ENERGY PREDICTED BY IDOCK:   -5.60 KCAL/MOL
REMARK 922        TOTAL FREE ENERGY PREDICTED BY IDOCK:   -8.15 KCAL/MOL
REMARK 923 INTER-LIGAND FREE ENERGY PREDICTED BY IDOCK:   -6.97 KCAL/MOL
REMARK 924 INTRA-LIGAND FREE ENERGY PREDICTED BY IDOCK:   -1.18 KCAL/MOL
REMARK 927      BINDING AFFINITY PREDICTED BY RF-SCORE:    0.00 PKD
ROOT
HETATM    1  C   UNL     1     -10.359   9.613  66.985  1.00  0.00    -0.315 C  
HETATM    2  C   UNL     1      -9.934  11.052  66.733  1.00  0.00    -0.240 C  
ENDROOT
BRANCH   2   3
HETATM    3  C   UNL     1     -10.904  11.744  65.776  1.00  0.00    -0.341 C  
BRANCH   3   4
HETATM    4  C   UNL     1     -11.721  12.844  66.466  1.00  0.00    -0.453 C  
HETATM    5  C   UNL     1     -10.828  13.899  67.162  1.00  0.00    -0.288 C  
HETATM    6  C   UNL     1     -11.673  14.957  67.892  1.00  0.00    -0.321 C  
HETATM    7  C   UNL     1      -9.820  14.594  66.220  1.00  0.00    -0.320 C  
HETATM    8  C   UNL     1     -10.440  15.434  65.112  1.00  0.00    -0.439 C  
BRANCH   6   9
HETATM    9  O   UNL     1     -12.525  14.409  68.911  1.00  0.00    -0.146 OA 
BRANCH   9  10
HETATM   10  C   UNL     1     -11.938  14.185  70.112  1.00  0.00    -0.332 C  
HETATM   11  O   UNL     1     -11.321  15.000  70.777  1.00  0.00    -0.279 OA 
BRANCH  10  12
HETATM   12  C   UNL     1     -12.215  12.795  70.569  1.00  0.00    -0.389 A  
HETATM   13  C   UNL     1     -11.579  11.736  69.932  1.00  0.00    -0.351 A  
HETATM   14  C   UNL     1     -11.773  10.415  70.377  1.00  0.00    -0.419 A  
HETATM   15  C   UNL     1     -12.603  10.099  71.467  1.00  0.00    -0.434 A  
HETATM   16  C   UNL     1     -13.242  11.197  72.080  1.00  0.00    -0.428 A  
HETATM   17  C   UNL     1     -13.047  12.518  71.655  1.00  0.00    -0.414 A  
BRANCH  15  18
HETATM   18  N   UNL     1     -12.859   8.795  71.874  1.00  0.00    -0.351 NA 
HETATM   19  C   UNL     1     -11.893   7.727  71.614  1.00  0.00    -0.287 C  
HETATM   20  C   UNL     1     -14.226   8.317  72.070  1.00  0.00    -0.424 C  
ENDBRANCH  15  18
ENDBRANCH  10  12
ENDBRANCH   9  10
ENDBRANCH   6   9
ENDBRANCH   3   4
ENDBRANCH   2   3
TORSDOF 6
ENDMDL
MODEL       14
REMARK 921   NORMALIZED FREE ENERGY PREDICTED BY IDOCK:   -5.60 KCAL/MOL
REMARK 922        TOTAL FREE ENERGY PREDICTED BY IDOCK:   -8.15 KCAL/MOL
REMARK 923 INTER-LIGAND FREE ENERGY PREDICTED BY IDOCK:   -7.26 KCAL/MOL
REMARK 924 INTRA-LIGAND FREE ENERGY PREDICTED BY IDOCK:   -0.89 KCAL/MOL
REMARK 927      BINDING AFFINITY PREDICTED BY RF-SCORE:    0.00 PKD
ROOT
HETATM    1  C   UNL     1     -10.377   7.884  67.432  1.00  0.00    -0.349 C  
HETATM    2  C   UNL     1     -11.092   6.560  67.656  1.00  0.00    -0.380 C  
ENDROOT
BRANCH   2   3
HETATM    3  C   UNL     1     -10.876   6.061  69.084  1.00  0.00    -0.422 C  
BRANCH   3   4
HETATM    4  C   UNL     1     -10.502   7.196  70.048  1.00  0.00    -0.235 C  
HETATM    5  C   UNL     1     -11.579   7.433  71.133  1.00  0.00    -0.313 C  
HETATM    6  C   UNL     1     -11.204   8.612  72.047  1.00  0.00    -0.364 C  
HETATM    7  C   UNL     1     -11.899   6.188  71.988  1.00  0.00    -0.336 C  
HETATM    8  C   UNL     1     -10.748   5.672  72.840  1.00  0.00    -0.286 C  
BRANCH   6   9
HETATM    9  O   UNL     1     -11.049   9.856  71.348  1.00  0.00    -0.325 OA 
BRANCH   9  10
HETATM   10  C   UNL     1     -12.177  10.596  71.205  1.00  0.00    -0.374 C  
HETATM   11  O   UNL     1     -13.135  10.604  71.959  1.00  0.00    -0.481 OA 
BRANCH  10  12
HETATM   12  C   UNL     1     -12.063  11.483  70.015  1.00  0.00    -0.408 A  
HETATM   13  C   UNL     1     -12.166  12.859  70.186  1.00  0.00    -0.336 A  
HETATM   14  C   UNL     1     -12.003  13.729  69.092  1.00  0.00    -0.403 A  
HETATM   15  C   UNL     1     -11.736  13.265  67.792  1.00  0.00    -0.358 A  
HETATM   16  C   UNL     1     -11.653  11.865  67.653  1.00  0.00    -0.382 A  
HETATM   17  C   UNL     1     -11.799  10.988  68.736  1.00  0.00    -0.352 A  
BRANCH  15  18
HETATM   18  N   UNL     1     -11.644  14.107  66.689  1.00  0.00    -0.366 NA 
HETATM   19  C   UNL     1     -10.991  15.413  66.798  1.00  0.00    -0.282 C  
HETATM   20  C   UNL     1     -12.594  14.015  65.583  1.00  0.00    -0.512 C  
ENDBRANCH  15  18
ENDBRANCH  10  12
ENDBRANCH   9  10
ENDBRANCH   6   9
ENDBRANCH   3   4
ENDBRANCH   2   3
TORSDOF 6
ENDMDL
MODEL       15
REMARK 921   NORMALIZED FREE ENERGY PREDICTED BY IDOCK:   -5.59 KCAL/MOL
REMARK 922        TOTAL FREE ENERGY PREDICTED BY IDOCK:   -8.14 KCAL/MOL
REMARK 923 INTER-LIGAND FREE ENERGY PREDICTED BY IDOCK:   -7.58 KCAL/MOL
REMARK 924 INTRA-LIGAND FREE ENERGY PREDICTED BY IDOCK:   -0.56 KCAL/MOL
REMARK 927      BINDING AFFINITY PREDICTED BY RF-SCORE:    0.00 PKD
ROOT
HETATM    1  C   UNL     1     -11.134  11.395  63.514  1.00  0.00    -0.373 C  
HETATM    2  C   UNL     1     -12.494  12.074  63.588  1.00  0.00    -0.637 C  
ENDROOT
BRANCH   2   3
HETATM    3  C   UNL     1     -12.339  13.568  63.866  1.00  0.00    -0.397 C  
BRANCH   3   4
HETATM    4  C   UNL     1     -12.472  13.901  65.359  1.00  0.00    -0.528 C  
HETATM    5  C   UNL     1     -11.103  13.972  66.076  1.00  0.00    -0.303 C  
HETATM    6  C   UNL     1     -11.271  14.250  67.579  1.00  0.00    -0.307 C  
HETATM    7  C   UNL     1     -10.120  14.991  65.462  1.00  0.00    -0.400 C  
HETATM    8  C   UNL     1     -10.558  16.447  65.544  1.00  0.00    -0.346 C  
BRANCH   6   9
HETATM    9  O   UNL     1     -12.041  13.251  68.267  1.00  0.00    -0.333 OA 
BRANCH   9  10
HETATM   10  C   UNL     1     -12.028  13.327  69.621  1.00  0.00    -0.314 C  
HETATM   11  O   UNL     1     -12.164  14.338  70.288  1.00  0.00    -0.301 OA 
BRANCH  10  12
HETATM   12  C   UNL     1     -11.901  11.966  70.211  1.00  0.00    -0.368 A  
HETATM   13  C   UNL     1     -12.785  11.580  71.213  1.00  0.00    -0.469 A  
HETATM   14  C   UNL     1     -12.731  10.281  71.750  1.00  0.00    -0.535 A  
HETATM   15  C   UNL     1     -11.798   9.322  71.316  1.00  0.00    -0.343 A  
HETATM   16  C   UNL     1     -10.909   9.753  70.311  1.00  0.00    -0.356 A  
HETATM   17  C   UNL     1     -10.961  11.040  69.757  1.00  0.00    -0.258 A  
BRANCH  15  18
HETATM   18  N   UNL     1     -11.686   8.059  71.886  1.00  0.00    -0.285 NA 
HETATM   19  C   UNL     1     -12.771   7.084  71.764  1.00  0.00    -0.340 C  
HETATM   20  C   UNL     1     -10.804   7.817  73.026  1.00  0.00    -0.389 C  
ENDBRANCH  15  18
ENDBRANCH  10  12
ENDBRANCH   9  10
ENDBRANCH   6   9
ENDBRANCH   3   4
ENDBRANCH   2   3
TORSDOF 6
ENDMDL
MODEL       16
REMARK 921   NORMALIZED FREE ENERGY PREDICTED BY IDOCK:   -5.59 KCAL/MOL
REMARK 922        TOTAL FREE ENERGY PREDICTED BY IDOCK:   -8.14 KCAL/MOL
REMARK 923 INTER-LIGAND FREE ENERGY PREDICTED BY IDOCK:   -7.32 KCAL/MOL
REMARK 924 INTRA-LIGAND FREE ENERGY PREDICTED BY IDOCK:   -0.82 KCAL/MOL
REMARK 927      BINDING AFFINITY PREDICTED BY RF-SCORE:    0.00 PKD
ROOT
HETATM    1  C   UNL     1      -9.886  20.342  67.378  1.00  0.00    -0.586 C  
HETATM    2  C   UNL     1     -10.501  19.616  66.191  1.00  0.00    -0.624 C  
ENDROOT
BRANCH   2   3
HETATM    3  C   UNL     1     -10.292  18.107  66.310  1.00  0.00    -0.407 C  
BRANCH   3   4
HETATM    4  C   UNL     1     -10.570  17.590  67.728  1.00  0.00    -0.375 C  
HETATM    5  C   UNL     1      -9.783  16.298  68.054  1.00  0.00    -0.230 C  
HETATM    6  C   UNL     1     -10.125  15.772  69.459  1.00  0.00    -0.279 C  
HETATM    7  C   UNL     1      -8.253  16.436  67.905  1.00  0.00    -0.170 C  
HETATM    8  C   UNL     1      -7.592  17.419  68.862  1.00  0.00    -0.224 C  
BRANCH   6   9
HETATM    9  O   UNL     1     -11.515  15.458  69.633  1.00  0.00    -0.274 OA 
BRANCH   9  10
HETATM   10  C   UNL     1     -11.821  14.137  69.660  1.00  0.00    -0.324 C  
HETATM   11  O   UNL     1     -12.186  13.501  70.633  1.00  0.00    -0.351 OA 
BRANCH  10  12
HETATM   12  C   UNL     1     -11.727  13.560  68.291  1.00  0.00    -0.394 A  
HETATM   13  C   UNL     1     -11.139  12.311  68.124  1.00  0.00    -0.285 A  
HETATM   14  C   UNL     1     -11.088  11.710  66.853  1.00  0.00    -0.365 A  
HETATM   15  C   UNL     1     -11.616  12.326  65.704  1.00  0.00    -0.380 A  
HETATM   16  C   UNL     1     -12.191  13.596  65.909  1.00  0.00    -0.502 A  
HETATM   17  C   UNL     1     -12.261  14.200  67.171  1.00  0.00    -0.348 A  
BRANCH  15  18
HETATM   18  N   UNL     1     -11.510  11.777  64.431  1.00  0.00    -0.305 NA 
HETATM   19  C   UNL     1     -10.250  11.191  63.972  1.00  0.00    -0.361 C  
HETATM   20  C   UNL     1     -12.390  12.205  63.346  1.00  0.00    -0.538 C  
ENDBRANCH  15  18
ENDBRANCH  10  12
ENDBRANCH   9  10
ENDBRANCH   6   9
ENDBRANCH   3   4
ENDBRANCH   2   3
TORSDOF 6
ENDMDL
MODEL       17
REMARK 921   NORMALIZED FREE ENERGY PREDICTED BY IDOCK:   -5.57 KCAL/MOL
REMARK 922        TOTAL FREE ENERGY PREDICTED BY IDOCK:   -8.11 KCAL/MOL
REMARK 923 INTER-LIGAND FREE ENERGY PREDICTED BY IDOCK:   -7.54 KCAL/MOL
REMARK 924 INTRA-LIGAND FREE ENERGY PREDICTED BY IDOCK:   -0.57 KCAL/MOL
REMARK 927      BINDING AFFINITY PREDICTED BY RF-SCORE:    0.00 PKD
ROOT
HETATM    1  C   UNL     1     -13.761  15.528  72.453  1.00  0.00    -0.655 C  
HETATM    2  C   UNL     1     -13.629  14.653  71.216  1.00  0.00    -0.449 C  
ENDROOT
BRANCH   2   3
HETATM    3  C   UNL     1     -12.204  14.116  71.082  1.00  0.00    -0.435 C  
BRANCH   3   4
HETATM    4  C   UNL     1     -11.813  13.857  69.620  1.00  0.00    -0.385 C  
HETATM    5  C   UNL     1     -11.748  15.157  68.783  1.00  0.00    -0.366 C  
HETATM    6  C   UNL     1     -11.411  14.861  67.312  1.00  0.00    -0.340 C  
HETATM    7  C   UNL     1     -10.775  16.218  69.339  1.00  0.00    -0.318 C  
HETATM    8  C   UNL     1      -9.307  15.813  69.348  1.00  0.00    -0.269 C  
BRANCH   6   9
HETATM    9  O   UNL     1     -12.366  14.006  66.664  1.00  0.00    -0.451 OA 
BRANCH   9  10
HETATM   10  C   UNL     1     -12.228  13.881  65.321  1.00  0.00    -0.433 C  
HETATM   11  O   UNL     1     -12.641  14.660  64.478  1.00  0.00    -0.626 OA 
BRANCH  10  12
HETATM   12  C   UNL     1     -11.418  12.676  64.996  1.00  0.00    -0.366 A  
HETATM   13  C   UNL     1     -10.962  12.500  63.694  1.00  0.00    -0.507 A  
HETATM   14  C   UNL     1     -10.144  11.403  63.366  1.00  0.00    -0.444 A  
HETATM   15  C   UNL     1      -9.751  10.443  64.315  1.00  0.00    -0.326 A  
HETATM   16  C   UNL     1     -10.243  10.646  65.621  1.00  0.00    -0.319 A  
HETATM   17  C   UNL     1     -11.048  11.741  65.964  1.00  0.00    -0.363 A  
BRANCH  15  18
HETATM   18  N   UNL     1      -9.003   9.317  63.993  1.00  0.00    -0.142 NA 
HETATM   19  C   UNL     1      -8.127   8.691  64.985  1.00  0.00    -0.143 C  
HETATM   20  C   UNL     1      -8.626   9.027  62.611  1.00  0.00    -0.200 C  
ENDBRANCH  15  18
ENDBRANCH  10  12
ENDBRANCH   9  10
ENDBRANCH   6   9
ENDBRANCH   3   4
ENDBRANCH   2   3
TORSDOF 6
ENDMDL
MODEL       18
REMARK 921   NORMALIZED FREE ENERGY PREDICTED BY IDOCK:   -5.57 KCAL/MOL
REMARK 922        TOTAL FREE ENERGY PREDICTED BY IDOCK:   -8.11 KCAL/MOL
REMARK 923 INTER-LIGAND FREE ENERGY PREDICTED BY IDOCK:   -7.25 KCAL/MOL
REMARK 924 INTRA-LIGAND FREE ENERGY PREDICTED BY IDOCK:   -0.86 KCAL/MOL
REMARK 927      BINDING AFFINITY PREDICTED BY RF-SCORE:    0.00 PKD
ROOT
HETATM    1  C   UNL     1     -12.363  10.979  70.648  1.00  0.00    -0.480 C  
HETATM    2  C   UNL     1     -11.164  10.072  70.415  1.00  0.00    -0.393 C  
ENDROOT
BRANCH   2   3
HETATM    3  C   UNL     1     -10.332  10.568  69.233  1.00  0.00    -0.248 C  
BRANCH   3   4
HETATM    4  C   UNL     1     -11.166  10.717  67.954  1.00  0.00    -0.386 C  
HETATM    5  C   UNL     1     -10.338  11.256  66.763  1.00  0.00    -0.278 C  
HETATM    6  C   UNL     1     -11.212  11.450  65.513  1.00  0.00    -0.071 C  
HETATM    7  C   UNL     1      -9.104  10.397  66.411  1.00  0.00    -0.177 C  
HETATM    8  C   UNL     1      -9.412   8.987  65.927  1.00  0.00    -0.317 C  
BRANCH   6   9
HETATM    9  O   UNL     1     -12.297  12.372  65.706  1.00  0.00    -0.644 OA 
BRANCH   9  10
HETATM   10  C   UNL     1     -12.206  13.538  65.021  1.00  0.00    -0.419 C  
HETATM   11  O   UNL     1     -12.645  13.755  63.904  1.00  0.00    -0.701 OA 
BRANCH  10  12
HETATM   12  C   UNL     1     -11.552  14.579  65.861  1.00  0.00    -0.349 A  
HETATM   13  C   UNL     1     -10.786  15.562  65.243  1.00  0.00    -0.425 A  
HETATM   14  C   UNL     1     -10.204  16.594  66.001  1.00  0.00    -0.366 A  
HETATM   15  C   UNL     1     -10.357  16.686  67.396  1.00  0.00    -0.292 A  
HETATM   16  C   UNL     1     -11.126  15.665  67.989  1.00  0.00    -0.335 A  
HETATM   17  C   UNL     1     -11.724  14.639  67.245  1.00  0.00    -0.406 A  
BRANCH  15  18
HETATM   18  N   UNL     1      -9.730  17.658  68.166  1.00  0.00    -0.296 NA 
HETATM   19  C   UNL     1     -10.226  19.036  68.183  1.00  0.00    -0.396 C  
HETATM   20  C   UNL     1      -8.323  17.536  68.543  1.00  0.00    -0.274 C  
ENDBRANCH  15  18
ENDBRANCH  10  12
ENDBRANCH   9  10
ENDBRANCH   6   9
ENDBRANCH   3   4
ENDBRANCH   2   3
TORSDOF 6
ENDMDL
MODEL       19
REMARK 921   NORMALIZED FREE ENERGY PREDICTED BY IDOCK:   -5.55 KCAL/MOL
REMARK 922        TOTAL FREE ENERGY PREDICTED BY IDOCK:   -8.09 KCAL/MOL
REMARK 923 INTER-LIGAND FREE ENERGY PREDICTED BY IDOCK:   -7.36 KCAL/MOL
REMARK 924 INTRA-LIGAND FREE ENERGY PREDICTED BY IDOCK:   -0.73 KCAL/MOL
REMARK 927      BINDING AFFINITY PREDICTED BY RF-SCORE:    0.00 PKD
ROOT
HETATM    1  C   UNL     1     -10.217  19.871  68.342  1.00  0.00    -0.557 C  
HETATM    2  C   UNL     1     -10.284  19.842  66.822  1.00  0.00    -0.603 C  
ENDROOT
BRANCH   2   3
HETATM    3  C   UNL     1     -10.454  18.411  66.314  1.00  0.00    -0.421 C  
BRANCH   3   4
HETATM    4  C   UNL     1     -10.614  17.401  67.459  1.00  0.00    -0.330 C  
HETATM    5  C   UNL     1      -9.678  16.178  67.308  1.00  0.00    -0.233 C  
HETATM    6  C   UNL     1      -9.901  15.157  68.436  1.00  0.00    -0.223 C  
HETATM    7  C   UNL     1      -8.179  16.537  67.215  1.00  0.00    -0.196 C  
HETATM    8  C   UNL     1      -7.590  17.192  68.457  1.00  0.00    -0.245 C  
BRANCH   6   9
HETATM    9  O   UNL     1     -11.240  14.641  68.489  1.00  0.00    -0.249 OA 
BRANCH   9  10
HETATM   10  C   UNL     1     -11.856  14.725  69.694  1.00  0.00    -0.319 C  
HETATM   11  O   UNL     1     -12.192  15.750  70.263  1.00  0.00    -0.386 OA 
BRANCH  10  12
HETATM   12  C   UNL     1     -12.151  13.363  70.217  1.00  0.00    -0.419 A  
HETATM   13  C   UNL     1     -11.663  12.256  69.530  1.00  0.00    -0.398 A  
HETATM   14  C   UNL     1     -11.872  10.957  70.029  1.00  0.00    -0.428 A  
HETATM   15  C   UNL     1     -12.573  10.710  71.223  1.00  0.00    -0.427 A  
HETATM   16  C   UNL     1     -13.066  11.854  71.884  1.00  0.00    -0.474 A  
HETATM   17  C   UNL     1     -12.853  13.154  71.405  1.00  0.00    -0.401 A  
BRANCH  15  18
HETATM   18  N   UNL     1     -12.849   9.431  71.692  1.00  0.00    -0.352 NA 
HETATM   19  C   UNL     1     -13.990   9.188  72.577  1.00  0.00    -0.380 C  
HETATM   20  C   UNL     1     -11.801   8.418  71.791  1.00  0.00    -0.316 C  
ENDBRANCH  15  18
ENDBRANCH  10  12
ENDBRANCH   9  10
ENDBRANCH   6   9
ENDBRANCH   3   4
ENDBRANCH   2   3
TORSDOF 6
ENDMDL
MODEL       20
REMARK 921   NORMALIZED FREE ENERGY PREDICTED BY IDOCK:   -5.53 KCAL/MOL
REMARK 922        TOTAL FREE ENERGY PREDICTED BY IDOCK:   -8.05 KCAL/MOL
REMARK 923 INTER-LIGAND FREE ENERGY PREDICTED BY IDOCK:   -7.37 KCAL/MOL
REMARK 924 INTRA-LIGAND FREE ENERGY PREDICTED BY IDOCK:   -0.68 KCAL/MOL
REMARK 927      BINDING AFFINITY PREDICTED BY RF-SCORE:    0.00 PKD
ROOT
HETATM    1  C   UNL     1     -10.102  19.682  68.626  1.00  0.00    -0.547 C  
HETATM    2  C   UNL     1      -9.822  20.446  67.341  1.00  0.00    -0.587 C  
ENDROOT
BRANCH   2   3
HETATM    3  C   UNL     1      -9.697  19.488  66.157  1.00  0.00    -0.461 C  
BRANCH   3   4
HETATM    4  C   UNL     1     -10.014  18.037  66.544  1.00  0.00    -0.371 C  
HETATM    5  C   UNL     1      -8.989  17.031  65.970  1.00  0.00    -0.168 C  
HETATM    6  C   UNL     1      -9.364  15.582  66.326  1.00  0.00    -0.320 C  
HETATM    7  C   UNL     1      -7.528  17.310  66.383  1.00  0.00    -0.336 C  
HETATM    8  C   UNL     1      -7.240  17.187  67.874  1.00  0.00    -0.177 C  
BRANCH   6   9
HETATM    9  O   UNL     1     -10.651  15.182  65.829  1.00  0.00    -0.312 OA 
BRANCH   9  10
HETATM   10  C   UNL     1     -11.109  13.987  66.277  1.00  0.00    -0.307 C  
HETATM   11  O   UNL     1     -11.106  12.936  65.658  1.00  0.00    -0.274 OA 
BRANCH  10  12
HETATM   12  C   UNL     1     -11.558  14.105  67.691  1.00  0.00    -0.394 A  
HETATM   13  C   UNL     1     -11.745  12.947  68.438  1.00  0.00    -0.382 A  
HETATM   14  C   UNL     1     -12.112  13.024  69.794  1.00  0.00    -0.325 A  
HETATM   15  C   UNL     1     -12.308  14.250  70.455  1.00  0.00    -0.360 A  
HETATM   16  C   UNL     1     -12.124  15.401  69.663  1.00  0.00    -0.354 A  
HETATM   17  C   UNL     1     -11.745  15.339  68.315  1.00  0.00    -0.320 A  
BRANCH  15  18
HETATM   18  N   UNL     1     -12.739  14.342  71.774  1.00  0.00    -0.336 NA 
HETATM   19  C   UNL     1     -13.702  13.381  72.314  1.00  0.00    -0.607 C  
HETATM   20  C   UNL     1     -12.707  15.613  72.495  1.00  0.00    -0.433 C  
ENDBRANCH  15  18
ENDBRANCH  10  12
ENDBRANCH   9  10
ENDBRANCH   6   9
ENDBRANCH   3   4
ENDBRANCH   2   3
TORSDOF 6
ENDMDL
MODEL       21
REMARK 921   NORMALIZED FREE ENERGY PREDICTED BY IDOCK:   -5.52 KCAL/MOL
REMARK 922        TOTAL FREE ENERGY PREDICTED BY IDOCK:   -8.05 KCAL/MOL
REMARK 923 INTER-LIGAND FREE ENERGY PREDICTED BY IDOCK:   -7.32 KCAL/MOL
REMARK 924 INTRA-LIGAND FREE ENERGY PREDICTED BY IDOCK:   -0.73 KCAL/MOL
REMARK 927      BINDING AFFINITY PREDICTED BY RF-SCORE:    0.00 PKD
ROOT
HETATM    1  C   UNL     1     -13.367  15.444  72.853  1.00  0.00    -0.636 C  
HETATM    2  C   UNL     1     -14.170  14.296  72.261  1.00  0.00    -0.587 C  
ENDROOT
BRANCH   2   3
HETATM    3  C   UNL     1     -13.353  13.004  72.269  1.00  0.00    -0.606 C  
BRANCH   3   4
HETATM    4  C   UNL     1     -12.905  12.588  70.861  1.00  0.00    -0.177 C  
HETATM    5  C   UNL     1     -11.921  11.395  70.879  1.00  0.00    -0.271 C  
HETATM    6  C   UNL     1     -11.445  11.038  69.460  1.00  0.00    -0.299 C  
HETATM    7  C   UNL     1     -12.470  10.133  71.579  1.00  0.00    -0.526 C  
HETATM    8  C   UNL     1     -13.679   9.493  70.910  1.00  0.00     0.014 C  
BRANCH   6   9
HETATM    9  O   UNL     1     -10.768  12.115  68.793  1.00  0.00    -0.227 OA 
BRANCH   9  10
HETATM   10  C   UNL     1     -11.398  12.622  67.704  1.00  0.00    -0.310 C  
HETATM   11  O   UNL     1     -12.154  12.018  66.962  1.00  0.00    -0.603 OA 
BRANCH  10  12
HETATM   12  C   UNL     1     -11.104  14.075  67.570  1.00  0.00    -0.313 A  
HETATM   13  C   UNL     1     -11.503  14.941  68.582  1.00  0.00    -0.326 A  
HETATM   14  C   UNL     1     -11.189  16.310  68.515  1.00  0.00    -0.359 A  
HETATM   15  C   UNL     1     -10.470  16.869  67.443  1.00  0.00    -0.310 A  
HETATM   16  C   UNL     1     -10.095  15.965  66.429  1.00  0.00    -0.306 A  
HETATM   17  C   UNL     1     -10.390  14.596  66.490  1.00  0.00    -0.283 A  
BRANCH  15  18
HETATM   18  N   UNL     1     -10.214  18.230  67.328  1.00  0.00    -0.355 NA 
HETATM   19  C   UNL     1     -10.003  19.055  68.519  1.00  0.00    -0.421 C  
HETATM   20  C   UNL     1     -10.652  18.988  66.157  1.00  0.00    -0.416 C  
ENDBRANCH  15  18
ENDBRANCH  10  12
ENDBRANCH   9  10
ENDBRANCH   6   9
ENDBRANCH   3   4
ENDBRANCH   2   3
TORSDOF 6
ENDMDL
MODEL       22
REMARK 921   NORMALIZED FREE ENERGY PREDICTED BY IDOCK:   -5.52 KCAL/MOL
REMARK 922        TOTAL FREE ENERGY PREDICTED BY IDOCK:   -8.04 KCAL/MOL
REMARK 923 INTER-LIGAND FREE ENERGY PREDICTED BY IDOCK:   -6.80 KCAL/MOL
REMARK 924 INTRA-LIGAND FREE ENERGY PREDICTED BY IDOCK:   -1.24 KCAL/MOL
REMARK 927      BINDING AFFINITY PREDICTED BY RF-SCORE:    0.00 PKD
ROOT
HETATM    1  C   UNL     1     -12.224  13.914  70.591  1.00  0.00    -0.443 C  
HETATM    2  C   UNL     1     -13.233  13.689  71.708  1.00  0.00    -0.477 C  
ENDROOT
BRANCH   2   3
HETATM    3  C   UNL     1     -13.340  12.204  72.050  1.00  0.00    -0.470 C  
BRANCH   3   4
HETATM    4  C   UNL     1     -12.743  11.308  70.955  1.00  0.00    -0.457 C  
HETATM    5  C   UNL     1     -12.085  10.030  71.526  1.00  0.00    -0.475 C  
HETATM    6  C   UNL     1     -11.447   9.182  70.413  1.00  0.00    -0.194 C  
HETATM    7  C   UNL     1     -13.033   9.154  72.373  1.00  0.00    -0.468 C  
HETATM    8  C   UNL     1     -14.210   8.553  71.617  1.00  0.00    -0.496 C  
BRANCH   6   9
HETATM    9  O   UNL     1     -10.426   9.873  69.677  1.00  0.00    -0.214 OA 
BRANCH   9  10
HETATM   10  C   UNL     1     -10.641   9.994  68.344  1.00  0.00    -0.220 C  
HETATM   11  O   UNL     1     -10.856   9.084  67.562  1.00  0.00    -0.232 OA 
BRANCH  10  12
HETATM   12  C   UNL     1     -10.659  11.431  67.954  1.00  0.00    -0.224 A  
HETATM   13  C   UNL     1      -9.532  12.209  68.194  1.00  0.00    -0.205 A  
HETATM   14  C   UNL     1      -9.493  13.555  67.785  1.00  0.00    -0.216 A  
HETATM   15  C   UNL     1     -10.570  14.175  67.126  1.00  0.00    -0.278 A  
HETATM   16  C   UNL     1     -11.700  13.361  66.913  1.00  0.00    -0.434 A  
HETATM   17  C   UNL     1     -11.747  12.015  67.304  1.00  0.00    -0.339 A  
BRANCH  15  18
HETATM   18  N   UNL     1     -10.574  15.521  66.779  1.00  0.00    -0.304 NA 
HETATM   19  C   UNL     1     -10.838  16.552  67.785  1.00  0.00    -0.304 C  
HETATM   20  C   UNL     1     -10.852  15.951  65.410  1.00  0.00    -0.349 C  
ENDBRANCH  15  18
ENDBRANCH  10  12
ENDBRANCH   9  10
ENDBRANCH   6   9
ENDBRANCH   3   4
ENDBRANCH   2   3
TORSDOF 6
ENDMDL
MODEL       23
REMARK 921   NORMALIZED FREE ENERGY PREDICTED BY IDOCK:   -5.50 KCAL/MOL
REMARK 922        TOTAL FREE ENERGY PREDICTED BY IDOCK:   -8.02 KCAL/MOL
REMARK 923 INTER-LIGAND FREE ENERGY PREDICTED BY IDOCK:   -7.41 KCAL/MOL
REMARK 924 INTRA-LIGAND FREE ENERGY PREDICTED BY IDOCK:   -0.61 KCAL/MOL
REMARK 927      BINDING AFFINITY PREDICTED BY RF-SCORE:    0.00 PKD
ROOT
HETATM    1  C   UNL     1     -13.895  14.968  72.792  1.00  0.00    -0.472 C  
HETATM    2  C   UNL     1     -12.766  15.922  73.150  1.00  0.00    -0.631 C  
ENDROOT
BRANCH   2   3
HETATM    3  C   UNL     1     -11.896  16.215  71.928  1.00  0.00    -0.605 C  
BRANCH   3   4
HETATM    4  C   UNL     1     -11.493  14.937  71.179  1.00  0.00    -0.312 C  
HETATM    5  C   UNL     1     -11.757  15.030  69.658  1.00  0.00    -0.353 C  
HETATM    6  C   UNL     1     -11.398  13.716  68.944  1.00  0.00    -0.290 C  
HETATM    7  C   UNL     1     -11.049  16.214  68.964  1.00  0.00    -0.336 C  
HETATM    8  C   UNL     1      -9.527  16.162  68.984  1.00  0.00    -0.246 C  
BRANCH   6   9
HETATM    9  O   UNL     1     -12.139  12.581  69.418  1.00  0.00    -0.266 OA 
BRANCH   9  10
HETATM   10  C   UNL     1     -11.837  11.395  68.835  1.00  0.00    -0.347 C  
HETATM   11  O   UNL     1     -11.920  11.134  67.647  1.00  0.00    -0.613 OA 
BRANCH  10  12
HETATM   12  C   UNL     1     -11.301  10.445  69.848  1.00  0.00    -0.370 A  
HETATM   13  C   UNL     1      -9.956  10.096  69.801  1.00  0.00    -0.258 A  
HETATM   14  C   UNL     1      -9.404   9.248  70.779  1.00  0.00    -0.322 A  
HETATM   15  C   UNL     1     -10.166   8.716  71.835  1.00  0.00    -0.334 A  
HETATM   16  C   UNL     1     -11.527   9.080  71.842  1.00  0.00    -0.440 A  
HETATM   17  C   UNL     1     -12.087   9.934  70.883  1.00  0.00    -0.431 A  
BRANCH  15  18
HETATM   18  N   UNL     1      -9.652   7.822  72.766  1.00  0.00    -0.197 NA 
HETATM   19  C   UNL     1     -10.544   6.980  73.566  1.00  0.00    -0.368 C  
HETATM   20  C   UNL     1      -8.339   8.030  73.374  1.00  0.00    -0.220 C  
ENDBRANCH  15  18
ENDBRANCH  10  12
ENDBRANCH   9  10
ENDBRANCH   6   9
ENDBRANCH   3   4
ENDBRANCH   2   3
TORSDOF 6
ENDMDL
MODEL       24
REMARK 921   NORMALIZED FREE ENERGY PREDICTED BY IDOCK:   -5.50 KCAL/MOL
REMARK 922        TOTAL FREE ENERGY PREDICTED BY IDOCK:   -8.02 KCAL/MOL
REMARK 923 INTER-LIGAND FREE ENERGY PREDICTED BY IDOCK:   -7.47 KCAL/MOL
REMARK 924 INTRA-LIGAND FREE ENERGY PREDICTED BY IDOCK:   -0.55 KCAL/MOL
REMARK 927      BINDING AFFINITY PREDICTED BY RF-SCORE:    0.00 PKD
ROOT
HETATM    1  C   UNL     1     -12.994  10.731  71.771  1.00  0.00    -0.568 C  
HETATM    2  C   UNL     1     -11.955   9.656  71.489  1.00  0.00    -0.485 C  
ENDROOT
BRANCH   2   3
HETATM    3  C   UNL     1     -10.943  10.139  70.450  1.00  0.00    -0.386 C  
BRANCH   3   4
HETATM    4  C   UNL     1     -11.603  10.479  69.107  1.00  0.00    -0.295 C  
HETATM    5  C   UNL     1     -10.569  10.794  68.000  1.00  0.00    -0.245 C  
HETATM    6  C   UNL     1     -11.259  11.187  66.682  1.00  0.00    -0.114 C  
HETATM    7  C   UNL     1      -9.555   9.660  67.741  1.00  0.00    -0.161 C  
HETATM    8  C   UNL     1     -10.152   8.363  67.211  1.00  0.00    -0.321 C  
BRANCH   6   9
HETATM    9  O   UNL     1     -12.100  12.345  66.796  1.00  0.00    -0.578 OA 
BRANCH   9  10
HETATM   10  C   UNL     1     -12.275  13.060  65.657  1.00  0.00    -0.466 C  
HETATM   11  O   UNL     1     -12.934  12.724  64.688  1.00  0.00    -0.742 OA 
BRANCH  10  12
HETATM   12  C   UNL     1     -11.603  14.384  65.773  1.00  0.00    -0.353 A  
HETATM   13  C   UNL     1     -10.979  14.722  66.969  1.00  0.00    -0.324 A  
HETATM   14  C   UNL     1     -10.284  15.939  67.092  1.00  0.00    -0.278 A  
HETATM   15  C   UNL     1     -10.185  16.862  66.036  1.00  0.00    -0.336 A  
HETATM   16  C   UNL     1     -10.840  16.493  64.844  1.00  0.00    -0.222 A  
HETATM   17  C   UNL     1     -11.525  15.278  64.704  1.00  0.00    -0.356 A  
BRANCH  15  18
HETATM   18  N   UNL     1      -9.562  18.099  66.164  1.00  0.00    -0.494 NA 
HETATM   19  C   UNL     1      -8.342  18.243  66.960  1.00  0.00    -0.248 C  
HETATM   20  C   UNL     1     -10.310  19.344  66.002  1.00  0.00    -0.497 C  
ENDBRANCH  15  18
ENDBRANCH  10  12
ENDBRANCH   9  10
ENDBRANCH   6   9
ENDBRANCH   3   4
ENDBRANCH   2   3
TORSDOF 6
ENDMDL
MODEL       25
REMARK 921   NORMALIZED FREE ENERGY PREDICTED BY IDOCK:   -5.48 KCAL/MOL
REMARK 922        TOTAL FREE ENERGY PREDICTED BY IDOCK:   -7.99 KCAL/MOL
REMARK 923 INTER-LIGAND FREE ENERGY PREDICTED BY IDOCK:   -7.15 KCAL/MOL
REMARK 924 INTRA-LIGAND FREE ENERGY PREDICTED BY IDOCK:   -0.85 KCAL/MOL
REMARK 927      BINDING AFFINITY PREDICTED BY RF-SCORE:    0.00 PKD
ROOT
HETATM    1  C   UNL     1     -12.355  13.450  70.653  1.00  0.00    -0.423 C  
HETATM    2  C   UNL     1     -13.164  13.132  71.902  1.00  0.00    -0.526 C  
ENDROOT
BRANCH   2   3
HETATM    3  C   UNL     1     -13.408  11.629  72.021  1.00  0.00    -0.405 C  
BRANCH   3   4
HETATM    4  C   UNL     1     -12.716  10.834  70.905  1.00  0.00    -0.478 C  
HETATM    5  C   UNL     1     -11.858   9.668  71.450  1.00  0.00    -0.484 C  
HETATM    6  C   UNL     1     -11.132   8.926  70.315  1.00  0.00    -0.228 C  
HETATM    7  C   UNL     1     -12.642   8.658  72.317  1.00  0.00    -0.457 C  
HETATM    8  C   UNL     1     -13.736   7.890  71.589  1.00  0.00    -0.422 C  
BRANCH   6   9
HETATM    9  O   UNL     1     -10.246   9.763  69.555  1.00  0.00    -0.193 OA 
BRANCH   9  10
HETATM   10  C   UNL     1     -10.064   9.406  68.260  1.00  0.00    -0.183 C  
HETATM   11  O   UNL     1      -9.660   8.328  67.859  1.00  0.00    -0.147 OA 
BRANCH  10  12
HETATM   12  C   UNL     1     -10.508  10.503  67.357  1.00  0.00    -0.291 A  
HETATM   13  C   UNL     1     -10.185  10.438  66.006  1.00  0.00    -0.295 A  
HETATM   14  C   UNL     1     -10.640  11.426  65.114  1.00  0.00    -0.352 A  
HETATM   15  C   UNL     1     -11.428  12.515  65.530  1.00  0.00    -0.350 A  
HETATM   16  C   UNL     1     -11.723  12.556  66.908  1.00  0.00    -0.447 A  
HETATM   17  C   UNL     1     -11.288  11.571  67.805  1.00  0.00    -0.364 A  
BRANCH  15  18
HETATM   18  N   UNL     1     -11.824  13.536  64.675  1.00  0.00    -0.376 NA 
HETATM   19  C   UNL     1     -12.267  13.241  63.311  1.00  0.00    -0.313 C  
HETATM   20  C   UNL     1     -11.343  14.904  64.854  1.00  0.00    -0.413 C  
ENDBRANCH  15  18
ENDBRANCH  10  12
ENDBRANCH   9  10
ENDBRANCH   6   9
ENDBRANCH   3   4
ENDBRANCH   2   3
TORSDOF 6
ENDMDL
MODEL       26
REMARK 921   NORMALIZED FREE ENERGY PREDICTED BY IDOCK:   -5.48 KCAL/MOL
REMARK 922        TOTAL FREE ENERGY PREDICTED BY IDOCK:   -7.99 KCAL/MOL
REMARK 923 INTER-LIGAND FREE ENERGY PREDICTED BY IDOCK:   -7.16 KCAL/MOL
REMARK 924 INTRA-LIGAND FREE ENERGY PREDICTED BY IDOCK:   -0.83 KCAL/MOL
REMARK 927      BINDING AFFINITY PREDICTED BY RF-SCORE:    0.00 PKD
ROOT
HETATM    1  C   UNL     1     -12.847  13.432  71.187  1.00  0.00    -0.372 C  
HETATM    2  C   UNL     1     -13.385  12.281  72.023  1.00  0.00    -0.491 C  
ENDROOT
BRANCH   2   3
HETATM    3  C   UNL     1     -12.714  10.965  71.629  1.00  0.00    -0.498 C  
BRANCH   3   4
HETATM    4  C   UNL     1     -12.716  10.741  70.111  1.00  0.00    -0.232 C  
HETATM    5  C   UNL     1     -11.291  10.736  69.509  1.00  0.00    -0.355 C  
HETATM    6  C   UNL     1     -11.328  10.566  67.981  1.00  0.00    -0.246 C  
HETATM    7  C   UNL     1     -10.346   9.685  70.130  1.00  0.00    -0.315 C  
HETATM    8  C   UNL     1     -10.752   8.234  69.907  1.00  0.00    -0.234 C  
BRANCH   6   9
HETATM    9  O   UNL     1     -12.053  11.605  67.303  1.00  0.00    -0.595 OA 
BRANCH   9  10
HETATM   10  C   UNL     1     -11.421  12.171  66.246  1.00  0.00    -0.374 C  
HETATM   11  O   UNL     1     -11.133  11.619  65.198  1.00  0.00    -0.291 OA 
BRANCH  10  12
HETATM   12  C   UNL     1     -11.184  13.618  66.502  1.00  0.00    -0.321 A  
HETATM   13  C   UNL     1     -11.730  14.200  67.642  1.00  0.00    -0.421 A  
HETATM   14  C   UNL     1     -11.476  15.550  67.945  1.00  0.00    -0.276 A  
HETATM   15  C   UNL     1     -10.675  16.370  67.130  1.00  0.00    -0.233 A  
HETATM   16  C   UNL     1     -10.151  15.751  65.977  1.00  0.00    -0.359 A  
HETATM   17  C   UNL     1     -10.385  14.403  65.670  1.00  0.00    -0.360 A  
BRANCH  15  18
HETATM   18  N   UNL     1     -10.473  17.722  67.379  1.00  0.00    -0.367 NA 
HETATM   19  C   UNL     1     -10.367  18.678  66.275  1.00  0.00    -0.444 C  
HETATM   20  C   UNL     1      -9.844  18.180  68.616  1.00  0.00    -0.377 C  
ENDBRANCH  15  18
ENDBRANCH  10  12
ENDBRANCH   9  10
ENDBRANCH   6   9
ENDBRANCH   3   4
ENDBRANCH   2   3
TORSDOF 6
ENDMDL
MODEL       27
REMARK 921   NORMALIZED FREE ENERGY PREDICTED BY IDOCK:   -5.48 KCAL/MOL
REMARK 922        TOTAL FREE ENERGY PREDICTED BY IDOCK:   -7.98 KCAL/MOL
REMARK 923 INTER-LIGAND FREE ENERGY PREDICTED BY IDOCK:   -6.80 KCAL/MOL
REMARK 924 INTRA-LIGAND FREE ENERGY PREDICTED BY IDOCK:   -1.18 KCAL/MOL
REMARK 927      BINDING AFFINITY PREDICTED BY RF-SCORE:    0.00 PKD
ROOT
HETATM    1  C   UNL     1     -13.150  15.435  71.249  1.00  0.00    -0.564 C  
HETATM    2  C   UNL     1     -11.634  15.319  71.290  1.00  0.00    -0.430 C  
ENDROOT
BRANCH   2   3
HETATM    3  C   UNL     1     -11.001  16.080  70.126  1.00  0.00    -0.369 C  
BRANCH   3   4
HETATM    4  C   UNL     1     -10.187  15.162  69.203  1.00  0.00    -0.249 C  
HETATM    5  C   UNL     1     -10.687  15.196  67.740  1.00  0.00    -0.279 C  
HETATM    6  C   UNL     1      -9.891  14.225  66.851  1.00  0.00    -0.263 C  
HETATM    7  C   UNL     1     -10.691  16.603  67.105  1.00  0.00    -0.202 C  
HETATM    8  C   UNL     1      -9.320  17.249  66.950  1.00  0.00    -0.264 C  
BRANCH   6   9
HETATM    9  O   UNL     1      -9.972  12.856  67.278  1.00  0.00    -0.219 OA 
BRANCH   9  10
HETATM   10  C   UNL     1     -11.202  12.290  67.209  1.00  0.00    -0.300 C  
HETATM   11  O   UNL     1     -11.953  12.311  66.249  1.00  0.00    -0.588 OA 
BRANCH  10  12
HETATM   12  C   UNL     1     -11.498  11.548  68.466  1.00  0.00    -0.354 A  
HETATM   13  C   UNL     1     -11.062  10.233  68.592  1.00  0.00    -0.290 A  
HETATM   14  C   UNL     1     -11.272   9.524  69.789  1.00  0.00    -0.173 A  
HETATM   15  C   UNL     1     -11.923  10.091  70.899  1.00  0.00    -0.361 A  
HETATM   16  C   UNL     1     -12.363  11.419  70.730  1.00  0.00    -0.483 A  
HETATM   17  C   UNL     1     -12.148  12.142  69.549  1.00  0.00    -0.263 A  
BRANCH  15  18
HETATM   18  N   UNL     1     -12.201   9.380  72.061  1.00  0.00    -0.352 NA 
HETATM   19  C   UNL     1     -11.299   8.325  72.526  1.00  0.00    -0.385 C  
HETATM   20  C   UNL     1     -13.568   9.248  72.560  1.00  0.00    -0.413 C  
ENDBRANCH  15  18
ENDBRANCH  10  12
ENDBRANCH   9  10
ENDBRANCH   6   9
ENDBRANCH   3   4
ENDBRANCH   2   3
TORSDOF 6
ENDMDL
MODEL       28
REMARK 921   NORMALIZED FREE ENERGY PREDICTED BY IDOCK:   -5.47 KCAL/MOL
REMARK 922        TOTAL FREE ENERGY PREDICTED BY IDOCK:   -7.97 KCAL/MOL
REMARK 923 INTER-LIGAND FREE ENERGY PREDICTED BY IDOCK:   -7.48 KCAL/MOL
REMARK 924 INTRA-LIGAND FREE ENERGY PREDICTED BY IDOCK:   -0.49 KCAL/MOL
REMARK 927      BINDING AFFINITY PREDICTED BY RF-SCORE:    0.00 PKD
ROOT
HETATM    1  C   UNL     1     -10.440  18.594  66.260  1.00  0.00    -0.468 C  
HETATM    2  C   UNL     1      -9.922  17.243  66.732  1.00  0.00    -0.301 C  
ENDROOT
BRANCH   2   3
HETATM    3  C   UNL     1     -10.309  16.140  65.747  1.00  0.00    -0.398 C  
BRANCH   3   4
HETATM    4  C   UNL     1     -10.294  14.749  66.395  1.00  0.00    -0.297 C  
HETATM    5  C   UNL     1     -11.717  14.181  66.614  1.00  0.00    -0.422 C  
HETATM    6  C   UNL     1     -11.673  12.813  67.315  1.00  0.00    -0.378 C  
HETATM    7  C   UNL     1     -12.564  14.082  65.327  1.00  0.00    -0.495 C  
HETATM    8  C   UNL     1     -12.034  13.120  64.273  1.00  0.00    -0.470 C  
BRANCH   6   9
HETATM    9  O   UNL     1     -11.044  12.847  68.606  1.00  0.00    -0.244 OA 
BRANCH   9  10
HETATM   10  C   UNL     1     -11.883  12.824  69.671  1.00  0.00    -0.317 C  
HETATM   11  O   UNL     1     -12.652  13.710  70.003  1.00  0.00    -0.243 OA 
BRANCH  10  12
HETATM   12  C   UNL     1     -11.802  11.507  70.361  1.00  0.00    -0.413 A  
HETATM   13  C   UNL     1     -12.767  11.181  71.308  1.00  0.00    -0.531 A  
HETATM   14  C   UNL     1     -12.755   9.921  71.935  1.00  0.00    -0.501 A  
HETATM   15  C   UNL     1     -11.786   8.943  71.647  1.00  0.00    -0.345 A  
HETATM   16  C   UNL     1     -10.817   9.314  70.693  1.00  0.00    -0.339 A  
HETATM   17  C   UNL     1     -10.825  10.560  70.051  1.00  0.00    -0.320 A  
BRANCH  15  18
HETATM   18  N   UNL     1     -11.719   7.723  72.308  1.00  0.00    -0.323 NA 
HETATM   19  C   UNL     1     -10.620   7.431  73.231  1.00  0.00    -0.392 C  
HETATM   20  C   UNL     1     -12.362   6.529  71.763  1.00  0.00    -0.287 C  
ENDBRANCH  15  18
ENDBRANCH  10  12
ENDBRANCH   9  10
ENDBRANCH   6   9
ENDBRANCH   3   4
ENDBRANCH   2   3
TORSDOF 6
ENDMDL
MODEL       29
REMARK 921   NORMALIZED FREE ENERGY PREDICTED BY IDOCK:   -5.47 KCAL/MOL
REMARK 922        TOTAL FREE ENERGY PREDICTED BY IDOCK:   -7.97 KCAL/MOL
REMARK 923 INTER-LIGAND FREE ENERGY PREDICTED BY IDOCK:   -7.37 KCAL/MOL
REMARK 924 INTRA-LIGAND FREE ENERGY PREDICTED BY IDOCK:   -0.60 KCAL/MOL
REMARK 927      BINDING AFFINITY PREDICTED BY RF-SCORE:    0.00 PKD
ROOT
HETATM    1  C   UNL     1     -14.058  14.251  72.017  1.00  0.00    -0.618 C  
HETATM    2  C   UNL     1     -13.321  15.363  71.286  1.00  0.00    -0.598 C  
ENDROOT
BRANCH   2   3
HETATM    3  C   UNL     1     -11.865  14.972  71.032  1.00  0.00    -0.373 C  
BRANCH   3   4
HETATM    4  C   UNL     1     -11.628  14.514  69.586  1.00  0.00    -0.346 C  
HETATM    5  C   UNL     1     -11.625  15.692  68.583  1.00  0.00    -0.391 C  
HETATM    6  C   UNL     1     -11.442  15.197  67.138  1.00  0.00    -0.250 C  
HETATM    7  C   UNL     1     -10.583  16.787  68.897  1.00  0.00    -0.350 C  
HETATM    8  C   UNL     1      -9.129  16.342  68.816  1.00  0.00    -0.244 C  
BRANCH   6   9
HETATM    9  O   UNL     1     -12.472  14.295  66.704  1.00  0.00    -0.407 OA 
BRANCH   9  10
HETATM   10  C   UNL     1     -12.288  13.736  65.482  1.00  0.00    -0.475 C  
HETATM   11  O   UNL     1     -12.639  14.208  64.413  1.00  0.00    -0.658 OA 
BRANCH  10  12
HETATM   12  C   UNL     1     -11.512  12.472  65.605  1.00  0.00    -0.400 A  
HETATM   13  C   UNL     1     -11.463  11.828  66.837  1.00  0.00    -0.364 A  
HETATM   14  C   UNL     1     -10.789  10.601  66.973  1.00  0.00    -0.298 A  
HETATM   15  C   UNL     1     -10.139   9.971  65.896  1.00  0.00    -0.249 A  
HETATM   16  C   UNL     1     -10.198  10.659  64.668  1.00  0.00    -0.404 A  
HETATM   17  C   UNL     1     -10.878  11.875  64.514  1.00  0.00    -0.368 A  
BRANCH  15  18
HETATM   18  N   UNL     1      -9.410   8.795  66.031  1.00  0.00    -0.226 NA 
HETATM   19  C   UNL     1      -9.946   7.665  66.793  1.00  0.00    -0.247 C  
HETATM   20  C   UNL     1      -7.953   8.790  65.919  1.00  0.00    -0.104 C  
ENDBRANCH  15  18
ENDBRANCH  10  12
ENDBRANCH   9  10
ENDBRANCH   6   9
ENDBRANCH   3   4
ENDBRANCH   2   3
TORSDOF 6
ENDMDL
MODEL       30
REMARK 921   NORMALIZED FREE ENERGY PREDICTED BY IDOCK:   -5.46 KCAL/MOL
REMARK 922        TOTAL FREE ENERGY PREDICTED BY IDOCK:   -7.96 KCAL/MOL
REMARK 923 INTER-LIGAND FREE ENERGY PREDICTED BY IDOCK:   -6.89 KCAL/MOL
REMARK 924 INTRA-LIGAND FREE ENERGY PREDICTED BY IDOCK:   -1.07 KCAL/MOL
REMARK 927      BINDING AFFINITY PREDICTED BY RF-SCORE:    0.00 PKD
ROOT
HETATM    1  C   UNL     1      -7.046  20.152  65.444  1.00  0.00    -0.290 C  
HETATM    2  C   UNL     1      -6.125  18.941  65.445  1.00  0.00    -0.289 C  
ENDROOT
BRANCH   2   3
HETATM    3  C   UNL     1      -6.874  17.691  65.905  1.00  0.00    -0.253 C  
BRANCH   3   4
HETATM    4  C   UNL     1      -8.225  18.025  66.551  1.00  0.00    -0.298 C  
HETATM    5  C   UNL     1      -8.336  17.499  68.001  1.00  0.00    -0.241 C  
HETATM    6  C   UNL     1      -9.720  17.797  68.603  1.00  0.00    -0.346 C  
HETATM    7  C   UNL     1      -7.232  18.017  68.948  1.00  0.00    -0.264 C  
HETATM    8  C   UNL     1      -7.237  19.520  69.190  1.00  0.00    -0.382 C  
BRANCH   6   9
HETATM    9  O   UNL     1     -10.806  17.206  67.870  1.00  0.00    -0.363 OA 
BRANCH   9  10
HETATM   10  C   UNL     1     -11.239  16.005  68.327  1.00  0.00    -0.350 C  
HETATM   11  O   UNL     1     -11.587  15.750  69.467  1.00  0.00    -0.323 OA 
BRANCH  10  12
HETATM   12  C   UNL     1     -11.311  15.026  67.208  1.00  0.00    -0.337 A  
HETATM   13  C   UNL     1     -10.699  15.336  65.999  1.00  0.00    -0.324 A  
HETATM   14  C   UNL     1     -10.697  14.408  64.941  1.00  0.00    -0.444 A  
HETATM   15  C   UNL     1     -11.302  13.143  65.045  1.00  0.00    -0.299 A  
HETATM   16  C   UNL     1     -11.925  12.869  66.280  1.00  0.00    -0.472 A  
HETATM   17  C   UNL     1     -11.922  13.778  67.346  1.00  0.00    -0.423 A  
BRANCH  15  18
HETATM   18  N   UNL     1     -11.370  12.244  63.987  1.00  0.00    -0.365 NA 
HETATM   19  C   UNL     1     -12.660  11.874  63.402  1.00  0.00    -0.431 C  
HETATM   20  C   UNL     1     -10.318  11.256  63.763  1.00  0.00    -0.395 C  
ENDBRANCH  15  18
ENDBRANCH  10  12
ENDBRANCH   9  10
ENDBRANCH   6   9
ENDBRANCH   3   4
ENDBRANCH   2   3
TORSDOF 6
ENDMDL
MODEL       31
REMARK 921   NORMALIZED FREE ENERGY PREDICTED BY IDOCK:   -5.46 KCAL/MOL
REMARK 922        TOTAL FREE ENERGY PREDICTED BY IDOCK:   -7.96 KCAL/MOL
REMARK 923 INTER-LIGAND FREE ENERGY PREDICTED BY IDOCK:   -7.36 KCAL/MOL
REMARK 924 INTRA-LIGAND FREE ENERGY PREDICTED BY IDOCK:   -0.61 KCAL/MOL
REMARK 927      BINDING AFFINITY PREDICTED BY RF-SCORE:    0.00 PKD
ROOT
HETATM    1  C   UNL     1      -9.742   9.647  65.231  1.00  0.00    -0.330 C  
HETATM    2  C   UNL     1      -9.327  10.790  64.317  1.00  0.00    -0.281 C  
ENDROOT
BRANCH   2   3
HETATM    3  C   UNL     1     -10.549  11.574  63.840  1.00  0.00    -0.448 C  
BRANCH   3   4
HETATM    4  C   UNL     1     -11.516  11.901  64.986  1.00  0.00    -0.306 C  
HETATM    5  C   UNL     1     -11.064  13.129  65.812  1.00  0.00    -0.293 C  
HETATM    6  C   UNL     1     -12.020  13.399  66.986  1.00  0.00    -0.379 C  
HETATM    7  C   UNL     1     -10.880  14.417  64.981  1.00  0.00    -0.420 C  
HETATM    8  C   UNL     1     -12.148  14.961  64.336  1.00  0.00    -0.417 C  
BRANCH   6   9
HETATM    9  O   UNL     1     -12.123  12.302  67.909  1.00  0.00    -0.466 OA 
BRANCH   9  10
HETATM   10  C   UNL     1     -11.879  12.601  69.208  1.00  0.00    -0.302 C  
HETATM   11  O   UNL     1     -11.801  13.719  69.689  1.00  0.00    -0.293 OA 
BRANCH  10  12
HETATM   12  C   UNL     1     -11.791  11.353  70.016  1.00  0.00    -0.440 A  
HETATM   13  C   UNL     1     -12.772  11.095  70.967  1.00  0.00    -0.476 A  
HETATM   14  C   UNL     1     -12.753   9.897  71.705  1.00  0.00    -0.527 A  
HETATM   15  C   UNL     1     -11.761   8.916  71.527  1.00  0.00    -0.324 A  
HETATM   16  C   UNL     1     -10.776   9.218  70.566  1.00  0.00    -0.313 A  
HETATM   17  C   UNL     1     -10.791  10.401  69.814  1.00  0.00    -0.342 A  
BRANCH  15  18
HETATM   18  N   UNL     1     -11.688   7.761  72.298  1.00  0.00    -0.323 NA 
HETATM   19  C   UNL     1     -10.559   7.535  73.202  1.00  0.00    -0.388 C  
HETATM   20  C   UNL     1     -12.371   6.535  71.892  1.00  0.00    -0.288 C  
ENDBRANCH  15  18
ENDBRANCH  10  12
ENDBRANCH   9  10
ENDBRANCH   6   9
ENDBRANCH   3   4
ENDBRANCH   2   3
TORSDOF 6
ENDMDL
MODEL       32
REMARK 921   NORMALIZED FREE ENERGY PREDICTED BY IDOCK:   -5.44 KCAL/MOL
REMARK 922        TOTAL FREE ENERGY PREDICTED BY IDOCK:   -7.94 KCAL/MOL
REMARK 923 INTER-LIGAND FREE ENERGY PREDICTED BY IDOCK:   -6.74 KCAL/MOL
REMARK 924 INTRA-LIGAND FREE ENERGY PREDICTED BY IDOCK:   -1.20 KCAL/MOL
REMARK 927      BINDING AFFINITY PREDICTED BY RF-SCORE:    0.00 PKD
ROOT
HETATM    1  C   UNL     1      -7.710  14.109  67.649  1.00  0.00    -0.186 C  
HETATM    2  C   UNL     1      -7.620  12.694  68.200  1.00  0.00    -0.132 C  
ENDROOT
BRANCH   2   3
HETATM    3  C   UNL     1      -7.777  11.666  67.080  1.00  0.00    -0.159 C  
BRANCH   3   4
HETATM    4  C   UNL     1      -9.071  11.867  66.280  1.00  0.00    -0.188 C  
HETATM    5  C   UNL     1      -9.258  10.801  65.174  1.00  0.00    -0.239 C  
HETATM    6  C   UNL     1     -10.532  11.062  64.352  1.00  0.00    -0.354 C  
HETATM    7  C   UNL     1      -9.257   9.347  65.691  1.00  0.00    -0.285 C  
HETATM    8  C   UNL     1     -10.405   8.989  66.626  1.00  0.00    -0.289 C  
BRANCH   6   9
HETATM    9  O   UNL     1     -10.541  12.338  63.694  1.00  0.00    -0.408 OA 
BRANCH   9  10
HETATM   10  C   UNL     1     -11.656  13.088  63.879  1.00  0.00    -0.449 C  
HETATM   11  O   UNL     1     -12.687  13.019  63.233  1.00  0.00    -0.663 OA 
BRANCH  10  12
HETATM   12  C   UNL     1     -11.484  13.982  65.057  1.00  0.00    -0.344 A  
HETATM   13  C   UNL     1     -12.091  13.636  66.260  1.00  0.00    -0.477 A  
HETATM   14  C   UNL     1     -11.900  14.427  67.409  1.00  0.00    -0.430 A  
HETATM   15  C   UNL     1     -11.105  15.587  67.404  1.00  0.00    -0.285 A  
HETATM   16  C   UNL     1     -10.518  15.914  66.165  1.00  0.00    -0.336 A  
HETATM   17  C   UNL     1     -10.689  15.128  65.017  1.00  0.00    -0.451 A  
BRANCH  15  18
HETATM   18  N   UNL     1     -10.965  16.416  68.511  1.00  0.00    -0.337 NA 
HETATM   19  C   UNL     1     -10.200  17.661  68.420  1.00  0.00    -0.381 C  
HETATM   20  C   UNL     1     -11.076  15.892  69.870  1.00  0.00    -0.343 C  
ENDBRANCH  15  18
ENDBRANCH  10  12
ENDBRANCH   9  10
ENDBRANCH   6   9
ENDBRANCH   3   4
ENDBRANCH   2   3
TORSDOF 6
ENDMDL
MODEL       33
REMARK 921   NORMALIZED FREE ENERGY PREDICTED BY IDOCK:   -5.43 KCAL/MOL
REMARK 922        TOTAL FREE ENERGY PREDICTED BY IDOCK:   -7.92 KCAL/MOL
REMARK 923 INTER-LIGAND FREE ENERGY PREDICTED BY IDOCK:   -7.49 KCAL/MOL
REMARK 924 INTRA-LIGAND FREE ENERGY PREDICTED BY IDOCK:   -0.43 KCAL/MOL
REMARK 927      BINDING AFFINITY PREDICTED BY RF-SCORE:    0.00 PKD
ROOT
HETATM    1  C   UNL     1      -9.789  20.169  67.596  1.00  0.00    -0.567 C  
HETATM    2  C   UNL     1      -9.847  19.378  68.895  1.00  0.00    -0.523 C  
ENDROOT
BRANCH   2   3
HETATM    3  C   UNL     1      -9.439  17.924  68.663  1.00  0.00    -0.301 C  
BRANCH   3   4
HETATM    4  C   UNL     1     -10.545  17.109  67.980  1.00  0.00    -0.374 C  
HETATM    5  C   UNL     1     -10.511  15.613  68.374  1.00  0.00    -0.242 C  
HETATM    6  C   UNL     1     -11.594  14.812  67.631  1.00  0.00    -0.354 C  
HETATM    7  C   UNL     1     -10.621  15.357  69.893  1.00  0.00    -0.315 C  
HETATM    8  C   UNL     1     -11.934  15.789  70.531  1.00  0.00    -0.401 C  
BRANCH   6   9
HETATM    9  O   UNL     1     -11.466  14.860  66.201  1.00  0.00    -0.341 OA 
BRANCH   9  10
HETATM   10  C   UNL     1     -12.238  13.984  65.512  1.00  0.00    -0.439 C  
HETATM   11  O   UNL     1     -13.408  14.138  65.208  1.00  0.00    -0.715 OA 
BRANCH  10  12
HETATM   12  C   UNL     1     -11.429  12.807  65.091  1.00  0.00    -0.356 A  
HETATM   13  C   UNL     1     -11.066  12.681  63.754  1.00  0.00    -0.504 A  
HETATM   14  C   UNL     1     -10.252  11.613  63.334  1.00  0.00    -0.471 A  
HETATM   15  C   UNL     1      -9.773  10.633  64.221  1.00  0.00    -0.314 A  
HETATM   16  C   UNL     1     -10.174  10.784  65.564  1.00  0.00    -0.330 A  
HETATM   17  C   UNL     1     -10.972  11.851  65.999  1.00  0.00    -0.355 A  
BRANCH  15  18
HETATM   18  N   UNL     1      -9.028   9.534  63.809  1.00  0.00    -0.215 NA 
HETATM   19  C   UNL     1      -8.164   8.821  64.751  1.00  0.00    -0.162 C  
HETATM   20  C   UNL     1      -8.644   9.360  62.410  1.00  0.00    -0.213 C  
ENDBRANCH  15  18
ENDBRANCH  10  12
ENDBRANCH   9  10
ENDBRANCH   6   9
ENDBRANCH   3   4
ENDBRANCH   2   3
TORSDOF 6
ENDMDL
MODEL       34
REMARK 921   NORMALIZED FREE ENERGY PREDICTED BY IDOCK:   -5.43 KCAL/MOL
REMARK 922        TOTAL FREE ENERGY PREDICTED BY IDOCK:   -7.92 KCAL/MOL
REMARK 923 INTER-LIGAND FREE ENERGY PREDICTED BY IDOCK:   -6.73 KCAL/MOL
REMARK 924 INTRA-LIGAND FREE ENERGY PREDICTED BY IDOCK:   -1.20 KCAL/MOL
REMARK 927      BINDING AFFINITY PREDICTED BY RF-SCORE:    0.00 PKD
ROOT
HETATM    1  C   UNL     1      -9.229  10.188  67.392  1.00  0.00    -0.156 C  
HETATM    2  C   UNL     1      -9.963   8.941  67.863  1.00  0.00    -0.223 C  
ENDROOT
BRANCH   2   3
HETATM    3  C   UNL     1      -9.093   8.131  68.823  1.00  0.00    -0.144 C  
BRANCH   3   4
HETATM    4  C   UNL     1      -9.686   8.071  70.238  1.00  0.00    -0.175 C  
HETATM    5  C   UNL     1     -11.024   7.295  70.289  1.00  0.00    -0.281 C  
HETATM    6  C   UNL     1     -11.622   7.300  71.706  1.00  0.00    -0.275 C  
HETATM    7  C   UNL     1     -10.935   5.846  69.764  1.00  0.00    -0.452 C  
HETATM    8  C   UNL     1     -10.038   4.917  70.570  1.00  0.00    -0.312 C  
BRANCH   6   9
HETATM    9  O   UNL     1     -11.894   8.617  72.211  1.00  0.00    -0.367 OA 
BRANCH   9  10
HETATM   10  C   UNL     1     -13.046   9.187  71.778  1.00  0.00    -0.392 C  
HETATM   11  O   UNL     1     -14.162   8.700  71.846  1.00  0.00    -0.418 OA 
BRANCH  10  12
HETATM   12  C   UNL     1     -12.780  10.558  71.264  1.00  0.00    -0.532 A  
HETATM   13  C   UNL     1     -13.176  11.653  72.024  1.00  0.00    -0.443 A  
HETATM   14  C   UNL     1     -12.887  12.962  71.596  1.00  0.00    -0.368 A  
HETATM   15  C   UNL     1     -12.197  13.231  70.400  1.00  0.00    -0.332 A  
HETATM   16  C   UNL     1     -11.825  12.098  69.649  1.00  0.00    -0.391 A  
HETATM   17  C   UNL     1     -12.094  10.789  70.070  1.00  0.00    -0.423 A  
BRANCH  15  18
HETATM   18  N   UNL     1     -11.967  14.518  69.929  1.00  0.00    -0.308 NA 
HETATM   19  C   UNL     1     -12.488  15.682  70.648  1.00  0.00    -0.417 C  
HETATM   20  C   UNL     1     -11.700  14.771  68.515  1.00  0.00    -0.317 C  
ENDBRANCH  15  18
ENDBRANCH  10  12
ENDBRANCH   9  10
ENDBRANCH   6   9
ENDBRANCH   3   4
ENDBRANCH   2   3
TORSDOF 6
ENDMDL
MODEL       35
REMARK 921   NORMALIZED FREE ENERGY PREDICTED BY IDOCK:   -5.42 KCAL/MOL
REMARK 922        TOTAL FREE ENERGY PREDICTED BY IDOCK:   -7.91 KCAL/MOL
REMARK 923 INTER-LIGAND FREE ENERGY PREDICTED BY IDOCK:   -6.99 KCAL/MOL
REMARK 924 INTRA-LIGAND FREE ENERGY PREDICTED BY IDOCK:   -0.92 KCAL/MOL
REMARK 927      BINDING AFFINITY PREDICTED BY RF-SCORE:    0.00 PKD
ROOT
HETATM    1  C   UNL     1      -6.509  19.902  68.229  1.00  0.00    -0.304 C  
HETATM    2  C   UNL     1      -6.193  18.419  68.109  1.00  0.00    -0.187 C  
ENDROOT
BRANCH   2   3
HETATM    3  C   UNL     1      -7.475  17.588  68.135  1.00  0.00    -0.218 C  
BRANCH   3   4
HETATM    4  C   UNL     1      -8.321  17.781  66.869  1.00  0.00    -0.257 C  
HETATM    5  C   UNL     1      -9.840  17.726  67.155  1.00  0.00    -0.311 C  
HETATM    6  C   UNL     1     -10.661  17.865  65.862  1.00  0.00    -0.215 C  
HETATM    7  C   UNL     1     -10.325  18.759  68.195  1.00  0.00    -0.419 C  
HETATM    8  C   UNL     1     -10.166  20.217  67.786  1.00  0.00    -0.514 C  
BRANCH   6   9
HETATM    9  O   UNL     1     -10.391  16.837  64.896  1.00  0.00    -0.522 OA 
BRANCH   9  10
HETATM   10  C   UNL     1     -11.426  16.008  64.613  1.00  0.00    -0.250 C  
HETATM   11  O   UNL     1     -12.390  16.269  63.914  1.00  0.00    -0.874 OA 
BRANCH  10  12
HETATM   12  C   UNL     1     -11.193  14.668  65.220  1.00  0.00    -0.358 A  
HETATM   13  C   UNL     1     -12.189  13.702  65.127  1.00  0.00    -0.461 A  
HETATM   14  C   UNL     1     -11.978  12.408  65.637  1.00  0.00    -0.449 A  
HETATM   15  C   UNL     1     -10.776  12.028  66.259  1.00  0.00    -0.267 A  
HETATM   16  C   UNL     1      -9.795  13.036  66.349  1.00  0.00    -0.270 A  
HETATM   17  C   UNL     1      -9.987  14.325  65.833  1.00  0.00    -0.340 A  
BRANCH  15  18
HETATM   18  N   UNL     1     -10.579  10.776  66.830  1.00  0.00    -0.253 NA 
HETATM   19  C   UNL     1     -10.154   9.639  66.012  1.00  0.00    -0.248 C  
HETATM   20  C   UNL     1     -11.260  10.391  68.065  1.00  0.00    -0.272 C  
ENDBRANCH  15  18
ENDBRANCH  10  12
ENDBRANCH   9  10
ENDBRANCH   6   9
ENDBRANCH   3   4
ENDBRANCH   2   3
TORSDOF 6
ENDMDL
MODEL       36
REMARK 921   NORMALIZED FREE ENERGY PREDICTED BY IDOCK:   -5.39 KCAL/MOL
REMARK 922        TOTAL FREE ENERGY PREDICTED BY IDOCK:   -7.87 KCAL/MOL
REMARK 923 INTER-LIGAND FREE ENERGY PREDICTED BY IDOCK:   -7.12 KCAL/MOL
REMARK 924 INTRA-LIGAND FREE ENERGY PREDICTED BY IDOCK:   -0.75 KCAL/MOL
REMARK 927      BINDING AFFINITY PREDICTED BY RF-SCORE:    0.00 PKD
ROOT
HETATM    1  C   UNL     1     -10.364  18.130  66.064  1.00  0.00    -0.360 C  
HETATM    2  C   UNL     1     -10.155  16.670  66.439  1.00  0.00    -0.325 C  
ENDROOT
BRANCH   2   3
HETATM    3  C   UNL     1     -10.629  15.749  65.316  1.00  0.00    -0.446 C  
BRANCH   3   4
HETATM    4  C   UNL     1     -10.205  14.291  65.539  1.00  0.00    -0.379 C  
HETATM    5  C   UNL     1     -11.408  13.357  65.810  1.00  0.00    -0.322 C  
HETATM    6  C   UNL     1     -10.949  11.915  66.087  1.00  0.00    -0.308 C  
HETATM    7  C   UNL     1     -12.475  13.361  64.695  1.00  0.00    -0.385 C  
HETATM    8  C   UNL     1     -12.006  12.834  63.345  1.00  0.00    -0.613 C  
BRANCH   6   9
HETATM    9  O   UNL     1     -10.077  11.797  67.222  1.00  0.00    -0.191 OA 
BRANCH   9  10
HETATM   10  C   UNL     1     -10.635  11.272  68.341  1.00  0.00    -0.197 C  
HETATM   11  O   UNL     1     -10.626  10.097  68.668  1.00  0.00    -0.190 OA 
BRANCH  10  12
HETATM   12  C   UNL     1     -11.211  12.354  69.185  1.00  0.00    -0.295 A  
HETATM   13  C   UNL     1     -12.153  12.025  70.155  1.00  0.00    -0.377 A  
HETATM   14  C   UNL     1     -12.673  13.014  71.009  1.00  0.00    -0.347 A  
HETATM   15  C   UNL     1     -12.280  14.362  70.932  1.00  0.00    -0.342 A  
HETATM   16  C   UNL     1     -11.336  14.661  69.929  1.00  0.00    -0.302 A  
HETATM   17  C   UNL     1     -10.800  13.683  69.080  1.00  0.00    -0.237 A  
BRANCH  15  18
HETATM   18  N   UNL     1     -12.837  15.362  71.721  1.00  0.00    -0.375 NA 
HETATM   19  C   UNL     1     -11.989  16.216  72.555  1.00  0.00    -0.561 C  
HETATM   20  C   UNL     1     -14.223  15.284  72.177  1.00  0.00    -0.571 C  
ENDBRANCH  15  18
ENDBRANCH  10  12
ENDBRANCH   9  10
ENDBRANCH   6   9
ENDBRANCH   3   4
ENDBRANCH   2   3
TORSDOF 6
ENDMDL
MODEL       37
REMARK 921   NORMALIZED FREE ENERGY PREDICTED BY IDOCK:   -5.39 KCAL/MOL
REMARK 922        TOTAL FREE ENERGY PREDICTED BY IDOCK:   -7.87 KCAL/MOL
REMARK 923 INTER-LIGAND FREE ENERGY PREDICTED BY IDOCK:   -7.30 KCAL/MOL
REMARK 924 INTRA-LIGAND FREE ENERGY PREDICTED BY IDOCK:   -0.57 KCAL/MOL
REMARK 927      BINDING AFFINITY PREDICTED BY RF-SCORE:    0.00 PKD
ROOT
HETATM    1  C   UNL     1      -6.361  16.773  66.745  1.00  0.00    -0.210 C  
HETATM    2  C   UNL     1      -7.505  15.800  66.993  1.00  0.00    -0.242 C  
ENDROOT
BRANCH   2   3
HETATM    3  C   UNL     1      -8.711  16.150  66.122  1.00  0.00    -0.358 C  
BRANCH   3   4
HETATM    4  C   UNL     1     -10.038  16.009  66.879  1.00  0.00    -0.266 C  
HETATM    5  C   UNL     1     -10.040  16.775  68.223  1.00  0.00    -0.274 C  
HETATM    6  C   UNL     1     -11.359  16.569  68.986  1.00  0.00    -0.181 C  
HETATM    7  C   UNL     1      -9.742  18.284  68.091  1.00  0.00    -0.341 C  
HETATM    8  C   UNL     1     -10.775  19.083  67.309  1.00  0.00    -0.556 C  
BRANCH   6   9
HETATM    9  O   UNL     1     -11.634  15.194  69.300  1.00  0.00    -0.287 OA 
BRANCH   9  10
HETATM   10  C   UNL     1     -12.400  14.983  70.398  1.00  0.00    -0.348 C  
HETATM   11  O   UNL     1     -13.009  15.832  71.027  1.00  0.00    -0.483 OA 
BRANCH  10  12
HETATM   12  C   UNL     1     -12.470  13.528  70.705  1.00  0.00    -0.405 A  
HETATM   13  C   UNL     1     -13.230  13.102  71.790  1.00  0.00    -0.494 A  
HETATM   14  C   UNL     1     -13.366  11.731  72.071  1.00  0.00    -0.417 A  
HETATM   15  C   UNL     1     -12.753  10.734  71.290  1.00  0.00    -0.441 A  
HETATM   16  C   UNL     1     -11.980  11.203  70.209  1.00  0.00    -0.460 A  
HETATM   17  C   UNL     1     -11.848  12.566  69.908  1.00  0.00    -0.373 A  
BRANCH  15  18
HETATM   18  N   UNL     1     -12.820   9.380  71.597  1.00  0.00    -0.352 NA 
HETATM   19  C   UNL     1     -14.079   8.774  72.034  1.00  0.00    -0.441 C  
HETATM   20  C   UNL     1     -11.633   8.639  72.016  1.00  0.00    -0.370 C  
ENDBRANCH  15  18
ENDBRANCH  10  12
ENDBRANCH   9  10
ENDBRANCH   6   9
ENDBRANCH   3   4
ENDBRANCH   2   3
TORSDOF 6
ENDMDL
MODEL       38
REMARK 921   NORMALIZED FREE ENERGY PREDICTED BY IDOCK:   -5.39 KCAL/MOL
REMARK 922        TOTAL FREE ENERGY PREDICTED BY IDOCK:   -7.86 KCAL/MOL
REMARK 923 INTER-LIGAND FREE ENERGY PREDICTED BY IDOCK:   -7.10 KCAL/MOL
REMARK 924 INTRA-LIGAND FREE ENERGY PREDICTED BY IDOCK:   -0.76 KCAL/MOL
REMARK 927      BINDING AFFINITY PREDICTED BY RF-SCORE:    0.00 PKD
ROOT
HETATM    1  C   UNL     1     -10.038  19.648  68.782  1.00  0.00    -0.532 C  
HETATM    2  C   UNL     1      -9.903  20.051  67.321  1.00  0.00    -0.563 C  
ENDROOT
BRANCH   2   3
HETATM    3  C   UNL     1     -10.504  18.985  66.407  1.00  0.00    -0.524 C  
BRANCH   3   4
HETATM    4  C   UNL     1     -10.752  17.660  67.140  1.00  0.00    -0.203 C  
HETATM    5  C   UNL     1     -10.071  16.458  66.443  1.00  0.00    -0.328 C  
HETATM    6  C   UNL     1     -10.384  15.138  67.167  1.00  0.00    -0.263 C  
HETATM    7  C   UNL     1      -8.544  16.610  66.269  1.00  0.00    -0.359 C  
HETATM    8  C   UNL     1      -7.747  16.676  67.565  1.00  0.00    -0.186 C  
BRANCH   6   9
HETATM    9  O   UNL     1     -11.786  14.833  67.227  1.00  0.00    -0.378 OA 
BRANCH   9  10
HETATM   10  C   UNL     1     -12.239  13.957  66.297  1.00  0.00    -0.461 C  
HETATM   11  O   UNL     1     -12.994  14.211  65.374  1.00  0.00    -0.706 OA 
BRANCH  10  12
HETATM   12  C   UNL     1     -11.617  12.620  66.503  1.00  0.00    -0.441 A  
HETATM   13  C   UNL     1     -11.778  11.983  67.729  1.00  0.00    -0.379 A  
HETATM   14  C   UNL     1     -11.255  10.693  67.937  1.00  0.00    -0.376 A  
HETATM   15  C   UNL     1     -10.553   9.992  66.940  1.00  0.00    -0.192 A  
HETATM   16  C   UNL     1     -10.397  10.675  65.717  1.00  0.00    -0.287 A  
HETATM   17  C   UNL     1     -10.925  11.953  65.491  1.00  0.00    -0.347 A  
BRANCH  15  18
HETATM   18  N   UNL     1      -9.970   8.749  67.154  1.00  0.00    -0.208 NA 
HETATM   19  C   UNL     1      -9.962   8.145  68.487  1.00  0.00    -0.190 C  
HETATM   20  C   UNL     1      -8.919   8.244  66.273  1.00  0.00    -0.183 C  
ENDBRANCH  15  18
ENDBRANCH  10  12
ENDBRANCH   9  10
ENDBRANCH   6   9
ENDBRANCH   3   4
ENDBRANCH   2   3
TORSDOF 6
ENDMDL
MODEL       39
REMARK 921   NORMALIZED FREE ENERGY PREDICTED BY IDOCK:   -5.38 KCAL/MOL
REMARK 922        TOTAL FREE ENERGY PREDICTED BY IDOCK:   -7.86 KCAL/MOL
REMARK 923 INTER-LIGAND FREE ENERGY PREDICTED BY IDOCK:   -6.69 KCAL/MOL
REMARK 924 INTRA-LIGAND FREE ENERGY PREDICTED BY IDOCK:   -1.16 KCAL/MOL
REMARK 927      BINDING AFFINITY PREDICTED BY RF-SCORE:    0.00 PKD
ROOT
HETATM    1  C   UNL     1     -10.088   7.732  67.079  1.00  0.00    -0.343 C  
HETATM    2  C   UNL     1      -9.884   8.827  68.115  1.00  0.00    -0.194 C  
ENDROOT
BRANCH   2   3
HETATM    3  C   UNL     1      -9.706  10.186  67.439  1.00  0.00    -0.192 C  
BRANCH   3   4
HETATM    4  C   UNL     1     -10.608  10.349  66.208  1.00  0.00    -0.180 C  
HETATM    5  C   UNL     1      -9.954  11.209  65.101  1.00  0.00    -0.323 C  
HETATM    6  C   UNL     1     -10.902  11.401  63.906  1.00  0.00    -0.393 C  
HETATM    7  C   UNL     1      -8.592  10.675  64.608  1.00  0.00    -0.125 C  
HETATM    8  C   UNL     1      -8.637   9.316  63.921  1.00  0.00    -0.208 C  
BRANCH   6   9
HETATM    9  O   UNL     1     -12.137  12.050  64.249  1.00  0.00    -0.362 OA 
BRANCH   9  10
HETATM   10  C   UNL     1     -12.196  13.379  63.990  1.00  0.00    -0.405 C  
HETATM   11  O   UNL     1     -12.583  13.896  62.956  1.00  0.00    -0.694 OA 
BRANCH  10  12
HETATM   12  C   UNL     1     -11.789  14.156  65.193  1.00  0.00    -0.372 A  
HETATM   13  C   UNL     1     -12.264  13.767  66.441  1.00  0.00    -0.480 A  
HETATM   14  C   UNL     1     -11.852  14.443  67.604  1.00  0.00    -0.412 A  
HETATM   15  C   UNL     1     -10.956  15.527  67.571  1.00  0.00    -0.316 A  
HETATM   16  C   UNL     1     -10.507  15.902  66.289  1.00  0.00    -0.324 A  
HETATM   17  C   UNL     1     -10.899  15.229  65.123  1.00  0.00    -0.441 A  
BRANCH  15  18
HETATM   18  N   UNL     1     -10.595  16.248  68.702  1.00  0.00    -0.278 NA 
HETATM   19  C   UNL     1     -10.241  17.666  68.604  1.00  0.00    -0.377 C  
HETATM   20  C   UNL     1     -10.042  15.584  69.881  1.00  0.00    -0.272 C  
ENDBRANCH  15  18
ENDBRANCH  10  12
ENDBRANCH   9  10
ENDBRANCH   6   9
ENDBRANCH   3   4
ENDBRANCH   2   3
TORSDOF 6
ENDMDL
MODEL       40
REMARK 921   NORMALIZED FREE ENERGY PREDICTED BY IDOCK:   -5.38 KCAL/MOL
REMARK 922        TOTAL FREE ENERGY PREDICTED BY IDOCK:   -7.85 KCAL/MOL
REMARK 923 INTER-LIGAND FREE ENERGY PREDICTED BY IDOCK:   -6.81 KCAL/MOL
REMARK 924 INTRA-LIGAND FREE ENERGY PREDICTED BY IDOCK:   -1.04 KCAL/MOL
REMARK 927      BINDING AFFINITY PREDICTED BY RF-SCORE:    0.00 PKD
ROOT
HETATM    1  C   UNL     1     -13.684  15.319  71.615  1.00  0.00    -0.600 C  
HETATM    2  C   UNL     1     -12.687  14.195  71.372  1.00  0.00    -0.439 C  
ENDROOT
BRANCH   2   3
HETATM    3  C   UNL     1     -11.718  14.564  70.249  1.00  0.00    -0.356 C  
BRANCH   3   4
HETATM    4  C   UNL     1     -12.187  14.048  68.882  1.00  0.00    -0.261 C  
HETATM    5  C   UNL     1     -11.197  13.036  68.257  1.00  0.00    -0.309 C  
HETATM    6  C   UNL     1     -11.664  12.581  66.864  1.00  0.00    -0.377 C  
HETATM    7  C   UNL     1     -10.911  11.804  69.141  1.00  0.00    -0.261 C  
HETATM    8  C   UNL     1     -12.109  10.902  69.406  1.00  0.00    -0.362 C  
BRANCH   6   9
HETATM    9  O   UNL     1     -11.797  13.657  65.921  1.00  0.00    -0.344 OA 
BRANCH   9  10
HETATM   10  C   UNL     1     -10.688  13.944  65.195  1.00  0.00    -0.362 C  
HETATM   11  O   UNL     1     -10.266  13.310  64.243  1.00  0.00    -0.396 OA 
BRANCH  10  12
HETATM   12  C   UNL     1     -10.074  15.213  65.673  1.00  0.00    -0.392 A  
HETATM   13  C   UNL     1     -10.782  16.401  65.529  1.00  0.00    -0.300 A  
HETATM   14  C   UNL     1     -10.257  17.609  66.023  1.00  0.00    -0.301 A  
HETATM   15  C   UNL     1      -9.013  17.682  66.674  1.00  0.00    -0.265 A  
HETATM   16  C   UNL     1      -8.318  16.461  66.789  1.00  0.00    -0.285 A  
HETATM   17  C   UNL     1      -8.835  15.249  66.314  1.00  0.00    -0.262 A  
BRANCH  15  18
HETATM   18  N   UNL     1      -8.449  18.878  67.104  1.00  0.00    -0.271 NA 
HETATM   19  C   UNL     1      -7.963  19.865  66.139  1.00  0.00    -0.328 C  
HETATM   20  C   UNL     1      -7.835  18.994  68.425  1.00  0.00    -0.337 C  
ENDBRANCH  15  18
ENDBRANCH  10  12
ENDBRANCH   9  10
ENDBRANCH   6   9
ENDBRANCH   3   4
ENDBRANCH   2   3
TORSDOF 6
ENDMDL
MODEL       41
REMARK 921   NORMALIZED FREE ENERGY PREDICTED BY IDOCK:   -5.36 KCAL/MOL
REMARK 922        TOTAL FREE ENERGY PREDICTED BY IDOCK:   -7.83 KCAL/MOL
REMARK 923 INTER-LIGAND FREE ENERGY PREDICTED BY IDOCK:   -7.15 KCAL/MOL
REMARK 924 INTRA-LIGAND FREE ENERGY PREDICTED BY IDOCK:   -0.68 KCAL/MOL
REMARK 927      BINDING AFFINITY PREDICTED BY RF-SCORE:    0.00 PKD
ROOT
HETATM    1  C   UNL     1      -9.685   4.625  70.642  1.00  0.00    -0.277 C  
HETATM    2  C   UNL     1     -10.221   5.257  69.365  1.00  0.00    -0.321 C  
ENDROOT
BRANCH   2   3
HETATM    3  C   UNL     1     -11.353   6.234  69.679  1.00  0.00    -0.492 C  
BRANCH   3   4
HETATM    4  C   UNL     1     -10.835   7.641  70.007  1.00  0.00    -0.250 C  
HETATM    5  C   UNL     1     -11.716   8.371  71.049  1.00  0.00    -0.296 C  
HETATM    6  C   UNL     1     -11.206   9.798  71.314  1.00  0.00    -0.347 C  
HETATM    7  C   UNL     1     -11.873   7.614  72.385  1.00  0.00    -0.336 C  
HETATM    8  C   UNL     1     -10.588   7.428  73.181  1.00  0.00    -0.424 C  
BRANCH   6   9
HETATM    9  O   UNL     1     -11.186  10.629  70.143  1.00  0.00    -0.288 OA 
BRANCH   9  10
HETATM   10  C   UNL     1     -12.010  11.706  70.172  1.00  0.00    -0.359 C  
HETATM   11  O   UNL     1     -12.776  12.005  71.072  1.00  0.00    -0.334 OA 
BRANCH  10  12
HETATM   12  C   UNL     1     -11.800  12.546  68.961  1.00  0.00    -0.344 A  
HETATM   13  C   UNL     1     -11.614  11.924  67.731  1.00  0.00    -0.393 A  
HETATM   14  C   UNL     1     -11.473  12.688  66.559  1.00  0.00    -0.409 A  
HETATM   15  C   UNL     1     -11.509  14.094  66.564  1.00  0.00    -0.358 A  
HETATM   16  C   UNL     1     -11.685  14.690  67.829  1.00  0.00    -0.386 A  
HETATM   17  C   UNL     1     -11.841  13.941  69.003  1.00  0.00    -0.397 A  
BRANCH  15  18
HETATM   18  N   UNL     1     -11.301  14.863  65.425  1.00  0.00    -0.349 NA 
HETATM   19  C   UNL     1     -10.428  16.038  65.466  1.00  0.00    -0.405 C  
HETATM   20  C   UNL     1     -12.282  14.897  64.343  1.00  0.00    -0.381 C  
ENDBRANCH  15  18
ENDBRANCH  10  12
ENDBRANCH   9  10
ENDBRANCH   6   9
ENDBRANCH   3   4
ENDBRANCH   2   3
TORSDOF 6
ENDMDL
MODEL       42
REMARK 921   NORMALIZED FREE ENERGY PREDICTED BY IDOCK:   -5.35 KCAL/MOL
REMARK 922        TOTAL FREE ENERGY PREDICTED BY IDOCK:   -7.81 KCAL/MOL
REMARK 923 INTER-LIGAND FREE ENERGY PREDICTED BY IDOCK:   -7.14 KCAL/MOL
REMARK 924 INTRA-LIGAND FREE ENERGY PREDICTED BY IDOCK:   -0.68 KCAL/MOL
REMARK 927      BINDING AFFINITY PREDICTED BY RF-SCORE:    0.00 PKD
ROOT
HETATM    1  C   UNL     1      -6.992  20.303  66.639  1.00  0.00    -0.287 C  
HETATM    2  C   UNL     1      -6.642  18.840  66.865  1.00  0.00    -0.202 C  
ENDROOT
BRANCH   2   3
HETATM    3  C   UNL     1      -7.350  18.299  68.106  1.00  0.00    -0.266 C  
BRANCH   3   4
HETATM    4  C   UNL     1      -8.572  17.440  67.753  1.00  0.00    -0.227 C  
HETATM    5  C   UNL     1      -9.843  17.870  68.525  1.00  0.00    -0.367 C  
HETATM    6  C   UNL     1     -11.036  16.957  68.194  1.00  0.00    -0.290 C  
HETATM    7  C   UNL     1     -10.241  19.347  68.316  1.00  0.00    -0.535 C  
HETATM    8  C   UNL     1     -10.635  19.718  66.893  1.00  0.00    -0.588 C  
BRANCH   6   9
HETATM    9  O   UNL     1     -10.810  15.575  68.516  1.00  0.00    -0.251 OA 
BRANCH   9  10
HETATM   10  C   UNL     1     -11.620  14.685  67.892  1.00  0.00    -0.348 C  
HETATM   11  O   UNL     1     -12.128  14.821  66.792  1.00  0.00    -0.291 OA 
BRANCH  10  12
HETATM   12  C   UNL     1     -11.753  13.448  68.709  1.00  0.00    -0.377 A  
HETATM   13  C   UNL     1     -12.122  13.560  70.046  1.00  0.00    -0.411 A  
HETATM   14  C   UNL     1     -12.315  12.408  70.831  1.00  0.00    -0.358 A  
HETATM   15  C   UNL     1     -12.147  11.109  70.320  1.00  0.00    -0.377 A  
HETATM   16  C   UNL     1     -11.760  11.035  68.967  1.00  0.00    -0.402 A  
HETATM   17  C   UNL     1     -11.578  12.173  68.170  1.00  0.00    -0.397 A  
BRANCH  15  18
HETATM   18  N   UNL     1     -12.265   9.965  71.101  1.00  0.00    -0.345 NA 
HETATM   19  C   UNL     1     -13.411   9.783  71.994  1.00  0.00    -0.451 C  
HETATM   20  C   UNL     1     -11.090   9.185  71.486  1.00  0.00    -0.365 C  
ENDBRANCH  15  18
ENDBRANCH  10  12
ENDBRANCH   9  10
ENDBRANCH   6   9
ENDBRANCH   3   4
ENDBRANCH   2   3
TORSDOF 6
ENDMDL
MODEL       43
REMARK 921   NORMALIZED FREE ENERGY PREDICTED BY IDOCK:   -5.35 KCAL/MOL
REMARK 922        TOTAL FREE ENERGY PREDICTED BY IDOCK:   -7.81 KCAL/MOL
REMARK 923 INTER-LIGAND FREE ENERGY PREDICTED BY IDOCK:   -7.15 KCAL/MOL
REMARK 924 INTRA-LIGAND FREE ENERGY PREDICTED BY IDOCK:   -0.66 KCAL/MOL
REMARK 927      BINDING AFFINITY PREDICTED BY RF-SCORE:    0.00 PKD
ROOT
HETATM    1  C   UNL     1     -11.023   6.520  67.227  1.00  0.00    -0.475 C  
HETATM    2  C   UNL     1     -10.416   5.662  68.327  1.00  0.00    -0.257 C  
ENDROOT
BRANCH   2   3
HETATM    3  C   UNL     1     -10.960   6.072  69.695  1.00  0.00    -0.470 C  
BRANCH   3   4
HETATM    4  C   UNL     1     -10.454   7.452  70.136  1.00  0.00    -0.228 C  
HETATM    5  C   UNL     1     -11.431   8.164  71.101  1.00  0.00    -0.304 C  
HETATM    6  C   UNL     1     -10.925   9.566  71.479  1.00  0.00    -0.299 C  
HETATM    7  C   UNL     1     -11.755   7.361  72.379  1.00  0.00    -0.306 C  
HETATM    8  C   UNL     1     -10.573   7.113  73.306  1.00  0.00    -0.405 C  
BRANCH   6   9
HETATM    9  O   UNL     1     -10.755  10.440  70.352  1.00  0.00    -0.269 OA 
BRANCH   9  10
HETATM   10  C   UNL     1     -11.766  11.316  70.128  1.00  0.00    -0.343 C  
HETATM   11  O   UNL     1     -12.645  11.620  70.917  1.00  0.00    -0.358 OA 
BRANCH  10  12
HETATM   12  C   UNL     1     -11.620  11.938  68.784  1.00  0.00    -0.366 A  
HETATM   13  C   UNL     1     -11.309  11.128  67.696  1.00  0.00    -0.356 A  
HETATM   14  C   UNL     1     -11.223  11.674  66.402  1.00  0.00    -0.349 A  
HETATM   15  C   UNL     1     -11.438  13.040  66.142  1.00  0.00    -0.340 A  
HETATM   16  C   UNL     1     -11.736  13.831  67.270  1.00  0.00    -0.416 A  
HETATM   17  C   UNL     1     -11.839  13.298  68.562  1.00  0.00    -0.384 A  
BRANCH  15  18
HETATM   18  N   UNL     1     -11.287  13.606  64.882  1.00  0.00    -0.331 NA 
HETATM   19  C   UNL     1     -11.187  15.058  64.721  1.00  0.00    -0.386 C  
HETATM   20  C   UNL     1     -11.739  12.911  63.679  1.00  0.00    -0.508 C  
ENDBRANCH  15  18
ENDBRANCH  10  12
ENDBRANCH   9  10
ENDBRANCH   6   9
ENDBRANCH   3   4
ENDBRANCH   2   3
TORSDOF 6
ENDMDL
MODEL       44
REMARK 921   NORMALIZED FREE ENERGY PREDICTED BY IDOCK:   -5.32 KCAL/MOL
REMARK 922        TOTAL FREE ENERGY PREDICTED BY IDOCK:   -7.78 KCAL/MOL
REMARK 923 INTER-LIGAND FREE ENERGY PREDICTED BY IDOCK:   -6.93 KCAL/MOL
REMARK 924 INTRA-LIGAND FREE ENERGY PREDICTED BY IDOCK:   -0.85 KCAL/MOL
REMARK 927      BINDING AFFINITY PREDICTED BY RF-SCORE:    0.00 PKD
ROOT
HETATM    1  C   UNL     1     -10.808   6.823  67.198  1.00  0.00    -0.462 C  
HETATM    2  C   UNL     1      -9.859   7.296  68.289  1.00  0.00    -0.165 C  
ENDROOT
BRANCH   2   3
HETATM    3  C   UNL     1     -10.036   8.792  68.550  1.00  0.00    -0.200 C  
BRANCH   3   4
HETATM    4  C   UNL     1     -10.785   9.498  67.412  1.00  0.00    -0.297 C  
HETATM    5  C   UNL     1      -9.935  10.598  66.733  1.00  0.00    -0.254 C  
HETATM    6  C   UNL     1     -10.731  11.326  65.636  1.00  0.00    -0.217 C  
HETATM    7  C   UNL     1      -8.593  10.095  66.159  1.00  0.00    -0.147 C  
HETATM    8  C   UNL     1      -8.710   9.086  65.024  1.00  0.00    -0.217 C  
BRANCH   6   9
HETATM    9  O   UNL     1     -11.920  11.970  66.120  1.00  0.00    -0.581 OA 
BRANCH   9  10
HETATM   10  C   UNL     1     -12.336  13.048  65.410  1.00  0.00    -0.486 C  
HETATM   11  O   UNL     1     -13.120  13.037  64.476  1.00  0.00    -0.693 OA 
BRANCH  10  12
HETATM   12  C   UNL     1     -11.759  14.295  65.981  1.00  0.00    -0.384 A  
HETATM   13  C   UNL     1     -11.817  14.498  67.356  1.00  0.00    -0.416 A  
HETATM   14  C   UNL     1     -11.227  15.637  67.935  1.00  0.00    -0.328 A  
HETATM   15  C   UNL     1     -10.563  16.614  67.172  1.00  0.00    -0.264 A  
HETATM   16  C   UNL     1     -10.537  16.383  65.782  1.00  0.00    -0.327 A  
HETATM   17  C   UNL     1     -11.108  15.246  65.194  1.00  0.00    -0.412 A  
BRANCH  15  18
HETATM   18  N   UNL     1     -10.039  17.779  67.720  1.00  0.00    -0.327 NA 
HETATM   19  C   UNL     1     -10.558  19.090  67.328  1.00  0.00    -0.470 C  
HETATM   20  C   UNL     1      -8.679  17.820  68.253  1.00  0.00    -0.277 C  
ENDBRANCH  15  18
ENDBRANCH  10  12
ENDBRANCH   9  10
ENDBRANCH   6   9
ENDBRANCH   3   4
ENDBRANCH   2   3
TORSDOF 6
ENDMDL
MODEL       45
REMARK 921   NORMALIZED FREE ENERGY PREDICTED BY IDOCK:   -5.31 KCAL/MOL
REMARK 922        TOTAL FREE ENERGY PREDICTED BY IDOCK:   -7.77 KCAL/MOL
REMARK 923 INTER-LIGAND FREE ENERGY PREDICTED BY IDOCK:   -6.58 KCAL/MOL
REMARK 924 INTRA-LIGAND FREE ENERGY PREDICTED BY IDOCK:   -1.18 KCAL/MOL
REMARK 927      BINDING AFFINITY PREDICTED BY RF-SCORE:    0.00 PKD
ROOT
HETATM    1  C   UNL     1      -8.560   9.961  67.173  1.00  0.00    -0.125 C  
HETATM    2  C   UNL     1      -9.541   8.843  66.852  1.00  0.00    -0.248 C  
ENDROOT
BRANCH   2   3
HETATM    3  C   UNL     1      -9.397   7.693  67.848  1.00  0.00    -0.146 C  
BRANCH   3   4
HETATM    4  C   UNL     1      -9.626   8.144  69.297  1.00  0.00    -0.164 C  
HETATM    5  C   UNL     1     -10.993   7.681  69.855  1.00  0.00    -0.208 C  
HETATM    6  C   UNL     1     -11.219   8.196  71.287  1.00  0.00    -0.260 C  
HETATM    7  C   UNL     1     -11.211   6.154  69.807  1.00  0.00    -0.494 C  
HETATM    8  C   UNL     1     -10.261   5.335  70.671  1.00  0.00    -0.327 C  
BRANCH   6   9
HETATM    9  O   UNL     1     -11.199   9.628  71.394  1.00  0.00    -0.365 OA 
BRANCH   9  10
HETATM   10  C   UNL     1     -12.374  10.254  71.138  1.00  0.00    -0.395 C  
HETATM   11  O   UNL     1     -13.461   9.968  71.610  1.00  0.00    -0.359 OA 
BRANCH  10  12
HETATM   12  C   UNL     1     -12.151  11.421  70.240  1.00  0.00    -0.459 A  
HETATM   13  C   UNL     1     -11.837  11.194  68.904  1.00  0.00    -0.406 A  
HETATM   14  C   UNL     1     -11.679  12.273  68.015  1.00  0.00    -0.417 A  
HETATM   15  C   UNL     1     -11.824  13.612  68.419  1.00  0.00    -0.372 A  
HETATM   16  C   UNL     1     -12.128  13.804  69.782  1.00  0.00    -0.400 A  
HETATM   17  C   UNL     1     -12.301  12.738  70.675  1.00  0.00    -0.381 A  
BRANCH  15  18
HETATM   18  N   UNL     1     -11.601  14.690  67.570  1.00  0.00    -0.364 NA 
HETATM   19  C   UNL     1     -11.319  14.477  66.149  1.00  0.00    -0.348 C  
HETATM   20  C   UNL     1     -11.115  15.969  68.081  1.00  0.00    -0.344 C  
ENDBRANCH  15  18
ENDBRANCH  10  12
ENDBRANCH   9  10
ENDBRANCH   6   9
ENDBRANCH   3   4
ENDBRANCH   2   3
TORSDOF 6
ENDMDL
MODEL       46
REMARK 921   NORMALIZED FREE ENERGY PREDICTED BY IDOCK:   -5.27 KCAL/MOL
REMARK 922        TOTAL FREE ENERGY PREDICTED BY IDOCK:   -7.70 KCAL/MOL
REMARK 923 INTER-LIGAND FREE ENERGY PREDICTED BY IDOCK:   -7.07 KCAL/MOL
REMARK 924 INTRA-LIGAND FREE ENERGY PREDICTED BY IDOCK:   -0.63 KCAL/MOL
REMARK 927      BINDING AFFINITY PREDICTED BY RF-SCORE:    0.00 PKD
ROOT
HETATM    1  C   UNL     1      -9.636   4.042  71.002  1.00  0.00    -0.249 C  
HETATM    2  C   UNL     1      -9.997   3.862  72.469  1.00  0.00    -0.225 C  
ENDROOT
BRANCH   2   3
HETATM    3  C   UNL     1     -11.003   4.922  72.913  1.00  0.00    -0.332 C  
BRANCH   3   4
HETATM    4  C   UNL     1     -11.016   6.142  71.981  1.00  0.00    -0.305 C  
HETATM    5  C   UNL     1     -10.912   7.479  72.752  1.00  0.00    -0.410 C  
HETATM    6  C   UNL     1     -10.985   8.684  71.798  1.00  0.00    -0.326 C  
HETATM    7  C   UNL     1      -9.661   7.597  73.648  1.00  0.00    -0.333 C  
HETATM    8  C   UNL     1      -8.329   7.591  72.910  1.00  0.00    -0.154 C  
BRANCH   6   9
HETATM    9  O   UNL     1     -12.202   8.744  71.038  1.00  0.00    -0.277 OA 
BRANCH   9  10
HETATM   10  C   UNL     1     -13.158   9.574  71.523  1.00  0.00    -0.389 C  
HETATM   11  O   UNL     1     -14.096   9.257  72.234  1.00  0.00    -0.413 OA 
BRANCH  10  12
HETATM   12  C   UNL     1     -12.866  10.980  71.131  1.00  0.00    -0.491 A  
HETATM   13  C   UNL     1     -13.269  12.013  71.970  1.00  0.00    -0.481 A  
HETATM   14  C   UNL     1     -12.957  13.349  71.659  1.00  0.00    -0.445 A  
HETATM   15  C   UNL     1     -12.236  13.708  70.505  1.00  0.00    -0.368 A  
HETATM   16  C   UNL     1     -11.856  12.637  69.672  1.00  0.00    -0.379 A  
HETATM   17  C   UNL     1     -12.149  11.300  69.976  1.00  0.00    -0.425 A  
BRANCH  15  18
HETATM   18  N   UNL     1     -11.981  15.026  70.148  1.00  0.00    -0.299 NA 
HETATM   19  C   UNL     1     -11.718  15.386  68.753  1.00  0.00    -0.351 C  
HETATM   20  C   UNL     1     -11.444  15.983  71.114  1.00  0.00    -0.419 C  
ENDBRANCH  15  18
ENDBRANCH  10  12
ENDBRANCH   9  10
ENDBRANCH   6   9
ENDBRANCH   3   4
ENDBRANCH   2   3
TORSDOF 6
ENDMDL
MODEL       47
REMARK 921   NORMALIZED FREE ENERGY PREDICTED BY IDOCK:   -5.22 KCAL/MOL
REMARK 922        TOTAL FREE ENERGY PREDICTED BY IDOCK:   -7.64 KCAL/MOL
REMARK 923 INTER-LIGAND FREE ENERGY PREDICTED BY IDOCK:   -6.90 KCAL/MOL
REMARK 924 INTRA-LIGAND FREE ENERGY PREDICTED BY IDOCK:   -0.73 KCAL/MOL
REMARK 927      BINDING AFFINITY PREDICTED BY RF-SCORE:    0.00 PKD
ROOT
HETATM    1  C   UNL     1      -8.361  10.018  67.354  1.00  0.00    -0.118 C  
HETATM    2  C   UNL     1      -8.866   9.958  65.921  1.00  0.00    -0.171 C  
ENDROOT
BRANCH   2   3
HETATM    3  C   UNL     1     -10.376  10.191  65.868  1.00  0.00    -0.221 C  
BRANCH   3   4
HETATM    4  C   UNL     1     -10.749  11.656  66.134  1.00  0.00    -0.325 C  
HETATM    5  C   UNL     1     -10.249  12.609  65.022  1.00  0.00    -0.294 C  
HETATM    6  C   UNL     1     -10.588  14.074  65.344  1.00  0.00    -0.341 C  
HETATM    7  C   UNL     1     -10.758  12.253  63.609  1.00  0.00    -0.513 C  
HETATM    8  C   UNL     1     -12.264  12.357  63.415  1.00  0.00    -0.623 C  
BRANCH   6   9
HETATM    9  O   UNL     1     -10.009  14.542  66.573  1.00  0.00    -0.262 OA 
BRANCH   9  10
HETATM   10  C   UNL     1     -10.553  15.673  67.087  1.00  0.00    -0.308 C  
HETATM   11  O   UNL     1     -10.617  16.758  66.534  1.00  0.00    -0.287 OA 
BRANCH  10  12
HETATM   12  C   UNL     1     -11.151  15.396  68.421  1.00  0.00    -0.301 A  
HETATM   13  C   UNL     1     -11.808  14.188  68.629  1.00  0.00    -0.383 A  
HETATM   14  C   UNL     1     -12.332  13.869  69.895  1.00  0.00    -0.358 A  
HETATM   15  C   UNL     1     -12.225  14.736  70.998  1.00  0.00    -0.329 A  
HETATM   16  C   UNL     1     -11.566  15.957  70.746  1.00  0.00    -0.441 A  
HETATM   17  C   UNL     1     -11.028  16.281  69.494  1.00  0.00    -0.339 A  
BRANCH  15  18
HETATM   18  N   UNL     1     -12.799  14.467  72.235  1.00  0.00    -0.341 NA 
HETATM   19  C   UNL     1     -12.175  14.947  73.469  1.00  0.00    -0.373 C  
HETATM   20  C   UNL     1     -13.676  13.314  72.429  1.00  0.00    -0.578 C  
ENDBRANCH  15  18
ENDBRANCH  10  12
ENDBRANCH   9  10
ENDBRANCH   6   9
ENDBRANCH   3   4
ENDBRANCH   2   3
TORSDOF 6
ENDMDL
MODEL       48
REMARK 921   NORMALIZED FREE ENERGY PREDICTED BY IDOCK:   -5.21 KCAL/MOL
REMARK 922        TOTAL FREE ENERGY PREDICTED BY IDOCK:   -7.63 KCAL/MOL
REMARK 923 INTER-LIGAND FREE ENERGY PREDICTED BY IDOCK:   -6.71 KCAL/MOL
REMARK 924 INTRA-LIGAND FREE ENERGY PREDICTED BY IDOCK:   -0.92 KCAL/MOL
REMARK 927      BINDING AFFINITY PREDICTED BY RF-SCORE:    0.00 PKD
ROOT
HETATM    1  C   UNL     1     -14.346   7.487  71.657  1.00  0.00    -0.621 C  
HETATM    2  C   UNL     1     -14.405   9.004  71.756  1.00  0.00    -0.272 C  
ENDROOT
BRANCH   2   3
HETATM    3  C   UNL     1     -13.014   9.585  72.007  1.00  0.00    -0.514 C  
BRANCH   3   4
HETATM    4  C   UNL     1     -11.983   9.095  70.981  1.00  0.00    -0.344 C  
HETATM    5  C   UNL     1     -10.570   8.934  71.588  1.00  0.00    -0.422 C  
HETATM    6  C   UNL     1      -9.548   8.498  70.525  1.00  0.00    -0.170 C  
HETATM    7  C   UNL     1     -10.507   7.976  72.798  1.00  0.00    -0.415 C  
HETATM    8  C   UNL     1     -10.852   6.525  72.495  1.00  0.00    -0.270 C  
BRANCH   6   9
HETATM    9  O   UNL     1      -9.420   9.425  69.435  1.00  0.00    -0.159 OA 
BRANCH   9  10
HETATM   10  C   UNL     1      -9.659   8.919  68.200  1.00  0.00    -0.145 C  
HETATM   11  O   UNL     1      -9.496   7.762  67.851  1.00  0.00    -0.142 OA 
BRANCH  10  12
HETATM   12  C   UNL     1     -10.237   9.969  67.317  1.00  0.00    -0.275 A  
HETATM   13  C   UNL     1     -11.053  10.947  67.876  1.00  0.00    -0.362 A  
HETATM   14  C   UNL     1     -11.567  11.987  67.081  1.00  0.00    -0.387 A  
HETATM   15  C   UNL     1     -11.293  12.094  65.706  1.00  0.00    -0.354 A  
HETATM   16  C   UNL     1     -10.475  11.078  65.171  1.00  0.00    -0.329 A  
HETATM   17  C   UNL     1      -9.945  10.043  65.954  1.00  0.00    -0.339 A  
BRANCH  15  18
HETATM   18  N   UNL     1     -11.850  13.074  64.894  1.00  0.00    -0.342 NA 
HETATM   19  C   UNL     1     -12.355  12.743  63.560  1.00  0.00    -0.467 C  
HETATM   20  C   UNL     1     -11.499  14.483  65.056  1.00  0.00    -0.382 C  
ENDBRANCH  15  18
ENDBRANCH  10  12
ENDBRANCH   9  10
ENDBRANCH   6   9
ENDBRANCH   3   4
ENDBRANCH   2   3
TORSDOF 6
ENDMDL
MODEL       49
REMARK 921   NORMALIZED FREE ENERGY PREDICTED BY IDOCK:   -5.21 KCAL/MOL
REMARK 922        TOTAL FREE ENERGY PREDICTED BY IDOCK:   -7.63 KCAL/MOL
REMARK 923 INTER-LIGAND FREE ENERGY PREDICTED BY IDOCK:   -6.79 KCAL/MOL
REMARK 924 INTRA-LIGAND FREE ENERGY PREDICTED BY IDOCK:   -0.83 KCAL/MOL
REMARK 927      BINDING AFFINITY PREDICTED BY RF-SCORE:    0.00 PKD
ROOT
HETATM    1  C   UNL     1     -12.204  12.266  63.464  1.00  0.00    -0.669 C  
HETATM    2  C   UNL     1     -10.722  11.924  63.458  1.00  0.00    -0.504 C  
ENDROOT
BRANCH   2   3
HETATM    3  C   UNL     1     -10.313  11.266  64.776  1.00  0.00    -0.366 C  
BRANCH   3   4
HETATM    4  C   UNL     1     -11.260  11.628  65.928  1.00  0.00    -0.296 C  
HETATM    5  C   UNL     1     -10.533  12.339  67.094  1.00  0.00    -0.238 C  
HETATM    6  C   UNL     1     -11.495  12.638  68.256  1.00  0.00    -0.313 C  
HETATM    7  C   UNL     1      -9.790  13.628  66.684  1.00  0.00    -0.284 C  
HETATM    8  C   UNL     1     -10.678  14.756  66.176  1.00  0.00    -0.314 C  
BRANCH   6   9
HETATM    9  O   UNL     1     -12.108  11.465  68.813  1.00  0.00    -0.480 OA 
BRANCH   9  10
HETATM   10  C   UNL     1     -12.074  11.367  70.165  1.00  0.00    -0.357 C  
HETATM   11  O   UNL     1     -12.328  12.257  70.959  1.00  0.00    -0.351 OA 
BRANCH  10  12
HETATM   12  C   UNL     1     -11.751   9.972  70.572  1.00  0.00    -0.400 A  
HETATM   13  C   UNL     1     -10.976   9.184  69.727  1.00  0.00    -0.195 A  
HETATM   14  C   UNL     1     -10.603   7.883  70.108  1.00  0.00    -0.237 A  
HETATM   15  C   UNL     1     -10.987   7.316  71.337  1.00  0.00    -0.232 A  
HETATM   16  C   UNL     1     -11.783   8.137  72.160  1.00  0.00    -0.418 A  
HETATM   17  C   UNL     1     -12.150   9.440  71.799  1.00  0.00    -0.454 A  
BRANCH  15  18
HETATM   18  N   UNL     1     -10.686   6.007  71.696  1.00  0.00    -0.243 NA 
HETATM   19  C   UNL     1     -11.391   5.354  72.801  1.00  0.00    -0.296 C  
HETATM   20  C   UNL     1      -9.379   5.422  71.405  1.00  0.00    -0.147 C  
ENDBRANCH  15  18
ENDBRANCH  10  12
ENDBRANCH   9  10
ENDBRANCH   6   9
ENDBRANCH   3   4
ENDBRANCH   2   3
TORSDOF 6
ENDMDL
MODEL       50
REMARK 921   NORMALIZED FREE ENERGY PREDICTED BY IDOCK:   -5.20 KCAL/MOL
REMARK 922        TOTAL FREE ENERGY PREDICTED BY IDOCK:   -7.61 KCAL/MOL
REMARK 923 INTER-LIGAND FREE ENERGY PREDICTED BY IDOCK:   -6.91 KCAL/MOL
REMARK 924 INTRA-LIGAND FREE ENERGY PREDICTED BY IDOCK:   -0.70 KCAL/MOL
REMARK 927      BINDING AFFINITY PREDICTED BY RF-SCORE:    0.00 PKD
ROOT
HETATM    1  C   UNL     1      -6.759  20.851  67.865  1.00  0.00    -0.337 C  
HETATM    2  C   UNL     1      -6.230  20.989  66.446  1.00  0.00    -0.330 C  
ENDROOT
BRANCH   2   3
HETATM    3  C   UNL     1      -6.975  20.052  65.496  1.00  0.00    -0.337 C  
BRANCH   3   4
HETATM    4  C   UNL     1      -8.050  19.226  66.215  1.00  0.00    -0.322 C  
HETATM    5  C   UNL     1      -7.891  17.706  65.973  1.00  0.00    -0.201 C  
HETATM    6  C   UNL     1      -9.014  16.909  66.658  1.00  0.00    -0.252 C  
HETATM    7  C   UNL     1      -6.517  17.139  66.390  1.00  0.00    -0.236 C  
HETATM    8  C   UNL     1      -6.205  17.223  67.878  1.00  0.00    -0.156 C  
BRANCH   6   9
HETATM    9  O   UNL     1     -10.330  17.259  66.202  1.00  0.00    -0.341 OA 
BRANCH   9  10
HETATM   10  C   UNL     1     -10.882  16.419  65.292  1.00  0.00    -0.258 C  
HETATM   11  O   UNL     1     -11.164  16.690  64.138  1.00  0.00    -1.103 OA 
BRANCH  10  12
HETATM   12  C   UNL     1     -11.033  15.057  65.875  1.00  0.00    -0.343 A  
HETATM   13  C   UNL     1     -10.461  13.974  65.217  1.00  0.00    -0.398 A  
HETATM   14  C   UNL     1     -10.533  12.683  65.771  1.00  0.00    -0.299 A  
HETATM   15  C   UNL     1     -11.176  12.420  66.994  1.00  0.00    -0.303 A  
HETATM   16  C   UNL     1     -11.757  13.539  67.625  1.00  0.00    -0.398 A  
HETATM   17  C   UNL     1     -11.680  14.833  67.092  1.00  0.00    -0.351 A  
BRANCH  15  18
HETATM   18  N   UNL     1     -11.318  11.141  67.519  1.00  0.00    -0.439 NA 
HETATM   19  C   UNL     1     -11.827  10.942  68.877  1.00  0.00    -0.270 C  
HETATM   20  C   UNL     1     -10.517  10.024  67.021  1.00  0.00    -0.238 C  
ENDBRANCH  15  18
ENDBRANCH  10  12
ENDBRANCH   9  10
ENDBRANCH   6   9
ENDBRANCH   3   4
ENDBRANCH   2   3
TORSDOF 6
ENDMDL
MODEL       51
REMARK 921   NORMALIZED FREE ENERGY PREDICTED BY IDOCK:   -5.20 KCAL/MOL
REMARK 922        TOTAL FREE ENERGY PREDICTED BY IDOCK:   -7.61 KCAL/MOL
REMARK 923 INTER-LIGAND FREE ENERGY PREDICTED BY IDOCK:   -6.32 KCAL/MOL
REMARK 924 INTRA-LIGAND FREE ENERGY PREDICTED BY IDOCK:   -1.29 KCAL/MOL
REMARK 927      BINDING AFFINITY PREDICTED BY RF-SCORE:    0.00 PKD
ROOT
HETATM    1  C   UNL     1      -7.913  13.090  67.974  1.00  0.00    -0.155 C  
HETATM    2  C   UNL     1      -7.083  14.315  68.327  1.00  0.00    -0.111 C  
ENDROOT
BRANCH   2   3
HETATM    3  C   UNL     1      -7.824  15.598  67.954  1.00  0.00    -0.143 C  
BRANCH   3   4
HETATM    4  C   UNL     1      -8.611  15.457  66.644  1.00  0.00    -0.318 C  
HETATM    5  C   UNL     1     -10.055  16.002  66.757  1.00  0.00    -0.272 C  
HETATM    6  C   UNL     1     -10.837  15.795  65.449  1.00  0.00    -0.364 C  
HETATM    7  C   UNL     1     -10.140  17.481  67.190  1.00  0.00    -0.321 C  
HETATM    8  C   UNL     1      -9.537  18.480  66.211  1.00  0.00    -0.279 C  
BRANCH   6   9
HETATM    9  O   UNL     1     -10.951  14.418  65.058  1.00  0.00    -0.345 OA 
BRANCH   9  10
HETATM   10  C   UNL     1     -12.036  13.758  65.532  1.00  0.00    -0.410 C  
HETATM   11  O   UNL     1     -13.194  13.941  65.197  1.00  0.00    -0.768 OA 
BRANCH  10  12
HETATM   12  C   UNL     1     -11.617  12.697  66.488  1.00  0.00    -0.441 A  
HETATM   13  C   UNL     1     -11.902  12.854  67.840  1.00  0.00    -0.388 A  
HETATM   14  C   UNL     1     -11.574  11.843  68.761  1.00  0.00    -0.366 A  
HETATM   15  C   UNL     1     -10.950  10.643  68.376  1.00  0.00    -0.251 A  
HETATM   16  C   UNL     1     -10.663  10.525  67.001  1.00  0.00    -0.310 A  
HETATM   17  C   UNL     1     -10.997  11.518  66.070  1.00  0.00    -0.316 A  
BRANCH  15  18
HETATM   18  N   UNL     1     -10.555   9.667  69.283  1.00  0.00    -0.213 NA 
HETATM   19  C   UNL     1     -10.369   8.279  68.854  1.00  0.00    -0.215 C  
HETATM   20  C   UNL     1     -10.816   9.811  70.713  1.00  0.00    -0.333 C  
ENDBRANCH  15  18
ENDBRANCH  10  12
ENDBRANCH   9  10
ENDBRANCH   6   9
ENDBRANCH   3   4
ENDBRANCH   2   3
TORSDOF 6
ENDMDL
MODEL       52
REMARK 921   NORMALIZED FREE ENERGY PREDICTED BY IDOCK:   -5.19 KCAL/MOL
REMARK 922        TOTAL FREE ENERGY PREDICTED BY IDOCK:   -7.60 KCAL/MOL
REMARK 923 INTER-LIGAND FREE ENERGY PREDICTED BY IDOCK:   -6.51 KCAL/MOL
REMARK 924 INTRA-LIGAND FREE ENERGY PREDICTED BY IDOCK:   -1.08 KCAL/MOL
REMARK 927      BINDING AFFINITY PREDICTED BY RF-SCORE:    0.00 PKD
ROOT
HETATM    1  C   UNL     1     -11.714   7.068  70.678  1.00  0.00    -0.384 C  
HETATM    2  C   UNL     1     -10.398   7.539  71.278  1.00  0.00    -0.203 C  
ENDROOT
BRANCH   2   3
HETATM    3  C   UNL     1     -10.043   8.938  70.776  1.00  0.00    -0.282 C  
BRANCH   3   4
HETATM    4  C   UNL     1     -10.882   9.352  69.560  1.00  0.00    -0.231 C  
HETATM    5  C   UNL     1     -10.012   9.701  68.329  1.00  0.00    -0.178 C  
HETATM    6  C   UNL     1     -10.876  10.167  67.145  1.00  0.00    -0.189 C  
HETATM    7  C   UNL     1      -9.072   8.564  67.876  1.00  0.00    -0.145 C  
HETATM    8  C   UNL     1      -9.769   7.303  67.381  1.00  0.00    -0.191 C  
BRANCH   6   9
HETATM    9  O   UNL     1     -11.665  11.332  67.431  1.00  0.00    -0.580 OA 
BRANCH   9  10
HETATM   10  C   UNL     1     -10.988  12.506  67.470  1.00  0.00    -0.251 C  
HETATM   11  O   UNL     1     -10.125  12.869  66.688  1.00  0.00    -0.236 OA 
BRANCH  10  12
HETATM   12  C   UNL     1     -11.500  13.359  68.578  1.00  0.00    -0.345 A  
HETATM   13  C   UNL     1     -12.020  12.748  69.714  1.00  0.00    -0.362 A  
HETATM   14  C   UNL     1     -12.457  13.523  70.805  1.00  0.00    -0.428 A  
HETATM   15  C   UNL     1     -12.396  14.928  70.806  1.00  0.00    -0.329 A  
HETATM   16  C   UNL     1     -11.877  15.512  69.633  1.00  0.00    -0.384 A  
HETATM   17  C   UNL     1     -11.425  14.752  68.545  1.00  0.00    -0.330 A  
BRANCH  15  18
HETATM   18  N   UNL     1     -12.889  15.709  71.844  1.00  0.00    -0.425 NA 
HETATM   19  C   UNL     1     -11.984  16.283  72.842  1.00  0.00    -0.516 C  
HETATM   20  C   UNL     1     -14.266  15.568  72.311  1.00  0.00    -0.524 C  
ENDBRANCH  15  18
ENDBRANCH  10  12
ENDBRANCH   9  10
ENDBRANCH   6   9
ENDBRANCH   3   4
ENDBRANCH   2   3
TORSDOF 6
ENDMDL
MODEL       53
REMARK 921   NORMALIZED FREE ENERGY PREDICTED BY IDOCK:   -5.18 KCAL/MOL
REMARK 922        TOTAL FREE ENERGY PREDICTED BY IDOCK:   -7.58 KCAL/MOL
REMARK 923 INTER-LIGAND FREE ENERGY PREDICTED BY IDOCK:   -6.42 KCAL/MOL
REMARK 924 INTRA-LIGAND FREE ENERGY PREDICTED BY IDOCK:   -1.16 KCAL/MOL
REMARK 927      BINDING AFFINITY PREDICTED BY RF-SCORE:    0.00 PKD
ROOT
HETATM    1  C   UNL     1     -11.371  15.357  67.733  1.00  0.00    -0.308 C  
HETATM    2  C   UNL     1     -10.670  15.399  69.083  1.00  0.00    -0.246 C  
ENDROOT
BRANCH   2   3
HETATM    3  C   UNL     1     -11.578  16.017  70.145  1.00  0.00    -0.324 C  
BRANCH   3   4
HETATM    4  C   UNL     1     -12.653  15.037  70.636  1.00  0.00    -0.429 C  
HETATM    5  C   UNL     1     -12.217  14.262  71.902  1.00  0.00    -0.268 C  
HETATM    6  C   UNL     1     -13.289  13.248  72.336  1.00  0.00    -0.516 C  
HETATM    7  C   UNL     1     -11.836  15.164  73.095  1.00  0.00    -0.438 C  
HETATM    8  C   UNL     1     -12.970  16.010  73.658  1.00  0.00    -0.673 C  
BRANCH   6   9
HETATM    9  O   UNL     1     -13.587  12.261  71.336  1.00  0.00     0.096 OA 
BRANCH   9  10
HETATM   10  C   UNL     1     -12.937  11.078  71.464  1.00  0.00    -0.448 C  
HETATM   11  O   UNL     1     -13.129  10.240  72.328  1.00  0.00    -0.396 OA 
BRANCH  10  12
HETATM   12  C   UNL     1     -11.983  10.890  70.337  1.00  0.00    -0.453 A  
HETATM   13  C   UNL     1     -10.950   9.969  70.473  1.00  0.00    -0.392 A  
HETATM   14  C   UNL     1     -10.067   9.723  69.406  1.00  0.00    -0.221 A  
HETATM   15  C   UNL     1     -10.176  10.383  68.168  1.00  0.00    -0.161 A  
HETATM   16  C   UNL     1     -11.225  11.319  68.071  1.00  0.00    -0.351 A  
HETATM   17  C   UNL     1     -12.120  11.564  69.122  1.00  0.00    -0.329 A  
BRANCH  15  18
HETATM   18  N   UNL     1      -9.270  10.204  67.130  1.00  0.00    -0.138 NA 
HETATM   19  C   UNL     1      -8.287  11.240  66.807  1.00  0.00    -0.156 C  
HETATM   20  C   UNL     1      -9.560   9.302  66.017  1.00  0.00    -0.270 C  
ENDBRANCH  15  18
ENDBRANCH  10  12
ENDBRANCH   9  10
ENDBRANCH   6   9
ENDBRANCH   3   4
ENDBRANCH   2   3
TORSDOF 6
ENDMDL
MODEL       54
REMARK 921   NORMALIZED FREE ENERGY PREDICTED BY IDOCK:   -5.17 KCAL/MOL
REMARK 922        TOTAL FREE ENERGY PREDICTED BY IDOCK:   -7.57 KCAL/MOL
REMARK 923 INTER-LIGAND FREE ENERGY PREDICTED BY IDOCK:   -7.01 KCAL/MOL
REMARK 924 INTRA-LIGAND FREE ENERGY PREDICTED BY IDOCK:   -0.56 KCAL/MOL
REMARK 927      BINDING AFFINITY PREDICTED BY RF-SCORE:    0.00 PKD
ROOT
HETATM    1  C   UNL     1     -10.781  11.390  63.394  1.00  0.00    -0.405 C  
HETATM    2  C   UNL     1     -12.226  11.852  63.505  1.00  0.00    -0.591 C  
ENDROOT
BRANCH   2   3
HETATM    3  C   UNL     1     -12.452  12.619  64.808  1.00  0.00    -0.555 C  
BRANCH   3   4
HETATM    4  C   UNL     1     -11.235  13.466  65.204  1.00  0.00    -0.321 C  
HETATM    5  C   UNL     1     -11.551  14.464  66.343  1.00  0.00    -0.383 C  
HETATM    6  C   UNL     1     -10.331  15.338  66.679  1.00  0.00    -0.280 C  
HETATM    7  C   UNL     1     -12.091  13.803  67.630  1.00  0.00    -0.333 C  
HETATM    8  C   UNL     1     -11.121  12.865  68.335  1.00  0.00    -0.293 C  
BRANCH   6   9
HETATM    9  O   UNL     1      -9.861  16.121  65.571  1.00  0.00    -0.458 OA 
BRANCH   9  10
HETATM   10  C   UNL     1     -10.092  17.455  65.653  1.00  0.00    -0.015 C  
HETATM   11  O   UNL     1     -11.014  18.061  65.134  1.00  0.00    -0.645 OA 
BRANCH  10  12
HETATM   12  C   UNL     1      -9.089  18.096  66.548  1.00  0.00    -0.287 A  
HETATM   13  C   UNL     1      -9.533  18.825  67.645  1.00  0.00    -0.330 A  
HETATM   14  C   UNL     1      -8.613  19.393  68.544  1.00  0.00    -0.401 A  
HETATM   15  C   UNL     1      -7.221  19.261  68.386  1.00  0.00    -0.303 A  
HETATM   16  C   UNL     1      -6.808  18.527  67.256  1.00  0.00    -0.209 A  
HETATM   17  C   UNL     1      -7.715  17.945  66.360  1.00  0.00    -0.311 A  
BRANCH  15  18
HETATM   18  N   UNL     1      -6.299  19.875  69.225  1.00  0.00    -0.312 NA 
HETATM   19  C   UNL     1      -5.424  20.936  68.725  1.00  0.00    -0.356 C  
HETATM   20  C   UNL     1      -5.780  19.194  70.410  1.00  0.00    -0.221 C  
ENDBRANCH  15  18
ENDBRANCH  10  12
ENDBRANCH   9  10
ENDBRANCH   6   9
ENDBRANCH   3   4
ENDBRANCH   2   3
TORSDOF 6
ENDMDL
MODEL       55
REMARK 921   NORMALIZED FREE ENERGY PREDICTED BY IDOCK:   -5.17 KCAL/MOL
REMARK 922        TOTAL FREE ENERGY PREDICTED BY IDOCK:   -7.57 KCAL/MOL
REMARK 923 INTER-LIGAND FREE ENERGY PREDICTED BY IDOCK:   -6.61 KCAL/MOL
REMARK 924 INTRA-LIGAND FREE ENERGY PREDICTED BY IDOCK:   -0.96 KCAL/MOL
REMARK 927      BINDING AFFINITY PREDICTED BY RF-SCORE:    0.00 PKD
ROOT
HETATM    1  C   UNL     1      -6.177  16.237  67.419  1.00  0.00    -0.205 C  
HETATM    2  C   UNL     1      -5.914  17.582  66.758  1.00  0.00    -0.212 C  
ENDROOT
BRANCH   2   3
HETATM    3  C   UNL     1      -7.118  18.022  65.926  1.00  0.00    -0.302 C  
BRANCH   3   4
HETATM    4  C   UNL     1      -8.437  17.442  66.456  1.00  0.00    -0.298 C  
HETATM    5  C   UNL     1      -9.135  18.380  67.469  1.00  0.00    -0.278 C  
HETATM    6  C   UNL     1     -10.422  17.747  68.025  1.00  0.00    -0.394 C  
HETATM    7  C   UNL     1      -9.439  19.790  66.920  1.00  0.00    -0.481 C  
HETATM    8  C   UNL     1     -10.429  19.836  65.763  1.00  0.00    -0.545 C  
BRANCH   6   9
HETATM    9  O   UNL     1     -10.204  16.501  68.706  1.00  0.00    -0.236 OA 
BRANCH   9  10
HETATM   10  C   UNL     1     -11.250  15.639  68.705  1.00  0.00    -0.332 C  
HETATM   11  O   UNL     1     -12.276  15.749  69.356  1.00  0.00    -0.313 OA 
BRANCH  10  12
HETATM   12  C   UNL     1     -11.016  14.547  67.721  1.00  0.00    -0.282 A  
HETATM   13  C   UNL     1     -12.085  14.081  66.964  1.00  0.00    -0.455 A  
HETATM   14  C   UNL     1     -11.887  13.091  65.983  1.00  0.00    -0.471 A  
HETATM   15  C   UNL     1     -10.625  12.529  65.721  1.00  0.00    -0.270 A  
HETATM   16  C   UNL     1      -9.569  13.015  66.518  1.00  0.00    -0.260 A  
HETATM   17  C   UNL     1      -9.749  14.010  67.488  1.00  0.00    -0.232 A  
BRANCH  15  18
HETATM   18  N   UNL     1     -10.426  11.502  64.806  1.00  0.00    -0.282 NA 
HETATM   19  C   UNL     1      -9.928  10.196  65.244  1.00  0.00    -0.311 C  
HETATM   20  C   UNL     1     -10.180  11.782  63.393  1.00  0.00    -0.449 C  
ENDBRANCH  15  18
ENDBRANCH  10  12
ENDBRANCH   9  10
ENDBRANCH   6   9
ENDBRANCH   3   4
ENDBRANCH   2   3
TORSDOF 6
ENDMDL
MODEL       56
REMARK 921   NORMALIZED FREE ENERGY PREDICTED BY IDOCK:   -5.13 KCAL/MOL
REMARK 922        TOTAL FREE ENERGY PREDICTED BY IDOCK:   -7.51 KCAL/MOL
REMARK 923 INTER-LIGAND FREE ENERGY PREDICTED BY IDOCK:   -6.43 KCAL/MOL
REMARK 924 INTRA-LIGAND FREE ENERGY PREDICTED BY IDOCK:   -1.09 KCAL/MOL
REMARK 927      BINDING AFFINITY PREDICTED BY RF-SCORE:    0.00 PKD
ROOT
HETATM    1  C   UNL     1     -11.594  15.160  71.311  1.00  0.00    -0.406 C  
HETATM    2  C   UNL     1     -11.332  15.486  69.849  1.00  0.00    -0.323 C  
ENDROOT
BRANCH   2   3
HETATM    3  C   UNL     1      -9.832  15.496  69.556  1.00  0.00    -0.284 C  
BRANCH   3   4
HETATM    4  C   UNL     1      -9.488  14.772  68.248  1.00  0.00    -0.207 C  
HETATM    5  C   UNL     1     -10.361  15.243  67.060  1.00  0.00    -0.277 C  
HETATM    6  C   UNL     1     -10.033  14.460  65.777  1.00  0.00    -0.329 C  
HETATM    7  C   UNL     1     -10.284  16.759  66.782  1.00  0.00    -0.304 C  
HETATM    8  C   UNL     1      -8.917  17.272  66.349  1.00  0.00    -0.282 C  
BRANCH   6   9
HETATM    9  O   UNL     1     -10.239  13.044  65.898  1.00  0.00    -0.282 OA 
BRANCH   9  10
HETATM   10  C   UNL     1     -11.482  12.661  66.282  1.00  0.00    -0.364 C  
HETATM   11  O   UNL     1     -12.530  12.954  65.731  1.00  0.00    -0.531 OA 
BRANCH  10  12
HETATM   12  C   UNL     1     -11.400  11.744  67.452  1.00  0.00    -0.376 A  
HETATM   13  C   UNL     1     -10.793  10.503  67.296  1.00  0.00    -0.338 A  
HETATM   14  C   UNL     1     -10.644   9.637  68.395  1.00  0.00    -0.264 A  
HETATM   15  C   UNL     1     -11.094   9.970  69.685  1.00  0.00    -0.259 A  
HETATM   16  C   UNL     1     -11.717  11.229  69.803  1.00  0.00    -0.422 A  
HETATM   17  C   UNL     1     -11.858  12.107  68.720  1.00  0.00    -0.356 A  
BRANCH  15  18
HETATM   18  N   UNL     1     -11.019   9.098  70.765  1.00  0.00    -0.249 NA 
HETATM   19  C   UNL     1     -12.002   9.161  71.848  1.00  0.00    -0.373 C  
HETATM   20  C   UNL     1      -9.752   8.483  71.156  1.00  0.00    -0.201 C  
ENDBRANCH  15  18
ENDBRANCH  10  12
ENDBRANCH   9  10
ENDBRANCH   6   9
ENDBRANCH   3   4
ENDBRANCH   2   3
TORSDOF 6
ENDMDL
MODEL       57
REMARK 921   NORMALIZED FREE ENERGY PREDICTED BY IDOCK:   -5.12 KCAL/MOL
REMARK 922        TOTAL FREE ENERGY PREDICTED BY IDOCK:   -7.51 KCAL/MOL
REMARK 923 INTER-LIGAND FREE ENERGY PREDICTED BY IDOCK:   -6.53 KCAL/MOL
REMARK 924 INTRA-LIGAND FREE ENERGY PREDICTED BY IDOCK:   -0.97 KCAL/MOL
REMARK 927      BINDING AFFINITY PREDICTED BY RF-SCORE:    0.00 PKD
ROOT
HETATM    1  C   UNL     1      -8.749   5.239  70.346  1.00  0.00    -0.138 C  
HETATM    2  C   UNL     1     -10.046   4.812  69.674  1.00  0.00    -0.275 C  
ENDROOT
BRANCH   2   3
HETATM    3  C   UNL     1     -11.055   5.960  69.667  1.00  0.00    -0.414 C  
BRANCH   3   4
HETATM    4  C   UNL     1     -10.424   7.295  70.085  1.00  0.00    -0.229 C  
HETATM    5  C   UNL     1     -11.310   8.086  71.077  1.00  0.00    -0.294 C  
HETATM    6  C   UNL     1     -10.679   9.443  71.434  1.00  0.00    -0.337 C  
HETATM    7  C   UNL     1     -11.656   7.314  72.369  1.00  0.00    -0.307 C  
HETATM    8  C   UNL     1     -10.469   6.972  73.260  1.00  0.00    -0.365 C  
BRANCH   6   9
HETATM    9  O   UNL     1     -10.475  10.298  70.298  1.00  0.00    -0.265 OA 
BRANCH   9  10
HETATM   10  C   UNL     1     -11.577  10.942  69.841  1.00  0.00    -0.331 C  
HETATM   11  O   UNL     1     -12.524  11.316  70.511  1.00  0.00    -0.321 OA 
BRANCH  10  12
HETATM   12  C   UNL     1     -11.445  11.215  68.383  1.00  0.00    -0.377 A  
HETATM   13  C   UNL     1     -11.813  12.463  67.894  1.00  0.00    -0.370 A  
HETATM   14  C   UNL     1     -11.646  12.774  66.532  1.00  0.00    -0.435 A  
HETATM   15  C   UNL     1     -11.111  11.858  65.608  1.00  0.00    -0.310 A  
HETATM   16  C   UNL     1     -10.762  10.599  66.137  1.00  0.00    -0.146 A  
HETATM   17  C   UNL     1     -10.911  10.281  67.494  1.00  0.00    -0.344 A  
BRANCH  15  18
HETATM   18  N   UNL     1     -11.005  12.125  64.248  1.00  0.00    -0.314 NA 
HETATM   19  C   UNL     1     -12.105  12.764  63.524  1.00  0.00    -0.559 C  
HETATM   20  C   UNL     1     -10.107  11.353  63.392  1.00  0.00    -0.405 C  
ENDBRANCH  15  18
ENDBRANCH  10  12
ENDBRANCH   9  10
ENDBRANCH   6   9
ENDBRANCH   3   4
ENDBRANCH   2   3
TORSDOF 6
ENDMDL
MODEL       58
REMARK 921   NORMALIZED FREE ENERGY PREDICTED BY IDOCK:   -5.11 KCAL/MOL
REMARK 922        TOTAL FREE ENERGY PREDICTED BY IDOCK:   -7.49 KCAL/MOL
REMARK 923 INTER-LIGAND FREE ENERGY PREDICTED BY IDOCK:   -6.64 KCAL/MOL
REMARK 924 INTRA-LIGAND FREE ENERGY PREDICTED BY IDOCK:   -0.86 KCAL/MOL
REMARK 927      BINDING AFFINITY PREDICTED BY RF-SCORE:    0.00 PKD
ROOT
HETATM    1  C   UNL     1      -7.710  18.692  68.815  1.00  0.00    -0.329 C  
HETATM    2  C   UNL     1      -7.103  17.310  68.622  1.00  0.00    -0.227 C  
ENDROOT
BRANCH   2   3
HETATM    3  C   UNL     1      -8.132  16.220  68.917  1.00  0.00    -0.231 C  
BRANCH   3   4
HETATM    4  C   UNL     1      -8.723  15.614  67.636  1.00  0.00    -0.182 C  
HETATM    5  C   UNL     1     -10.264  15.743  67.574  1.00  0.00    -0.265 C  
HETATM    6  C   UNL     1     -10.833  15.078  66.309  1.00  0.00    -0.333 C  
HETATM    7  C   UNL     1     -10.782  17.194  67.680  1.00  0.00    -0.302 C  
HETATM    8  C   UNL     1     -10.374  18.114  66.537  1.00  0.00    -0.397 C  
BRANCH   6   9
HETATM    9  O   UNL     1     -10.537  13.675  66.214  1.00  0.00    -0.283 OA 
BRANCH   9  10
HETATM   10  C   UNL     1     -11.601  12.841  66.316  1.00  0.00    -0.379 C  
HETATM   11  O   UNL     1     -12.482  12.691  65.487  1.00  0.00    -0.622 OA 
BRANCH  10  12
HETATM   12  C   UNL     1     -11.514  12.048  67.573  1.00  0.00    -0.403 A  
HETATM   13  C   UNL     1     -10.933  10.785  67.536  1.00  0.00    -0.372 A  
HETATM   14  C   UNL     1     -10.782  10.034  68.716  1.00  0.00    -0.250 A  
HETATM   15  C   UNL     1     -11.202  10.508  69.972  1.00  0.00    -0.315 A  
HETATM   16  C   UNL     1     -11.799  11.784  69.969  1.00  0.00    -0.422 A  
HETATM   17  C   UNL     1     -11.944  12.549  68.804  1.00  0.00    -0.283 A  
BRANCH  15  18
HETATM   18  N   UNL     1     -11.124   9.750  71.135  1.00  0.00    -0.360 NA 
HETATM   19  C   UNL     1      -9.894   9.034  71.480  1.00  0.00    -0.310 C  
HETATM   20  C   UNL     1     -12.322   9.194  71.760  1.00  0.00    -0.372 C  
ENDBRANCH  15  18
ENDBRANCH  10  12
ENDBRANCH   9  10
ENDBRANCH   6   9
ENDBRANCH   3   4
ENDBRANCH   2   3
TORSDOF 6
ENDMDL
MODEL       59
REMARK 921   NORMALIZED FREE ENERGY PREDICTED BY IDOCK:   -5.11 KCAL/MOL
REMARK 922        TOTAL FREE ENERGY PREDICTED BY IDOCK:   -7.49 KCAL/MOL
REMARK 923 INTER-LIGAND FREE ENERGY PREDICTED BY IDOCK:   -6.63 KCAL/MOL
REMARK 924 INTRA-LIGAND FREE ENERGY PREDICTED BY IDOCK:   -0.86 KCAL/MOL
REMARK 927      BINDING AFFINITY PREDICTED BY RF-SCORE:    0.00 PKD
ROOT
HETATM    1  C   UNL     1     -12.041  14.012  70.283  1.00  0.00    -0.425 C  
HETATM    2  C   UNL     1     -11.469  15.249  69.608  1.00  0.00    -0.321 C  
ENDROOT
BRANCH   2   3
HETATM    3  C   UNL     1     -11.775  15.240  68.111  1.00  0.00    -0.297 C  
BRANCH   3   4
HETATM    4  C   UNL     1     -10.893  14.247  67.341  1.00  0.00    -0.288 C  
HETATM    5  C   UNL     1     -11.720  13.208  66.548  1.00  0.00    -0.433 C  
HETATM    6  C   UNL     1     -10.811  12.193  65.834  1.00  0.00    -0.278 C  
HETATM    7  C   UNL     1     -12.710  13.826  65.537  1.00  0.00    -0.530 C  
HETATM    8  C   UNL     1     -12.070  14.607  64.397  1.00  0.00    -0.481 C  
BRANCH   6   9
HETATM    9  O   UNL     1      -9.968  11.448  66.727  1.00  0.00    -0.202 OA 
BRANCH   9  10
HETATM   10  C   UNL     1     -10.219  10.117  66.801  1.00  0.00    -0.228 C  
HETATM   11  O   UNL     1     -10.072   9.304  65.904  1.00  0.00    -0.293 OA 
BRANCH  10  12
HETATM   12  C   UNL     1     -10.637   9.749  68.181  1.00  0.00    -0.276 A  
HETATM   13  C   UNL     1     -11.349  10.672  68.940  1.00  0.00    -0.337 A  
HETATM   14  C   UNL     1     -11.811  10.335  70.225  1.00  0.00    -0.372 A  
HETATM   15  C   UNL     1     -11.582   9.073  70.803  1.00  0.00    -0.265 A  
HETATM   16  C   UNL     1     -10.846   8.169  70.012  1.00  0.00    -0.233 A  
HETATM   17  C   UNL     1     -10.392   8.487  68.725  1.00  0.00    -0.233 A  
BRANCH  15  18
HETATM   18  N   UNL     1     -11.970   8.749  72.098  1.00  0.00    -0.366 NA 
HETATM   19  C   UNL     1     -11.244   7.735  72.865  1.00  0.00    -0.376 C  
HETATM   20  C   UNL     1     -13.343   8.960  72.554  1.00  0.00    -0.399 C  
ENDBRANCH  15  18
ENDBRANCH  10  12
ENDBRANCH   9  10
ENDBRANCH   6   9
ENDBRANCH   3   4
ENDBRANCH   2   3
TORSDOF 6
ENDMDL
MODEL       60
REMARK 921   NORMALIZED FREE ENERGY PREDICTED BY IDOCK:   -5.10 KCAL/MOL
REMARK 922        TOTAL FREE ENERGY PREDICTED BY IDOCK:   -7.47 KCAL/MOL
REMARK 923 INTER-LIGAND FREE ENERGY PREDICTED BY IDOCK:   -6.53 KCAL/MOL
REMARK 924 INTRA-LIGAND FREE ENERGY PREDICTED BY IDOCK:   -0.95 KCAL/MOL
REMARK 927      BINDING AFFINITY PREDICTED BY RF-SCORE:    0.00 PKD
ROOT
HETATM    1  C   UNL     1     -14.139  14.788  71.465  1.00  0.00    -0.566 C  
HETATM    2  C   UNL     1     -12.800  14.556  72.150  1.00  0.00    -0.414 C  
ENDROOT
BRANCH   2   3
HETATM    3  C   UNL     1     -11.707  15.409  71.507  1.00  0.00    -0.467 C  
BRANCH   3   4
HETATM    4  C   UNL     1     -11.975  15.676  70.019  1.00  0.00    -0.384 C  
HETATM    5  C   UNL     1     -10.843  15.148  69.107  1.00  0.00    -0.251 C  
HETATM    6  C   UNL     1     -11.111  15.480  67.629  1.00  0.00    -0.311 C  
HETATM    7  C   UNL     1     -10.558  13.638  69.261  1.00  0.00     0.008 C  
HETATM    8  C   UNL     1     -11.701  12.718  68.854  1.00  0.00    -0.370 C  
BRANCH   6   9
HETATM    9  O   UNL     1     -11.224  16.888  67.367  1.00  0.00    -0.049 OA 
BRANCH   9  10
HETATM   10  C   UNL     1     -10.403  17.375  66.403  1.00  0.00    -0.317 C  
HETATM   11  O   UNL     1     -10.583  17.304  65.199  1.00  0.00    -0.686 OA 
BRANCH  10  12
HETATM   12  C   UNL     1      -9.257  18.097  67.020  1.00  0.00    -0.270 A  
HETATM   13  C   UNL     1      -9.435  18.718  68.252  1.00  0.00    -0.389 A  
HETATM   14  C   UNL     1      -8.358  19.358  68.891  1.00  0.00    -0.335 A  
HETATM   15  C   UNL     1      -7.068  19.408  68.331  1.00  0.00    -0.304 A  
HETATM   16  C   UNL     1      -6.929  18.781  67.076  1.00  0.00    -0.212 A  
HETATM   17  C   UNL     1      -7.991  18.128  66.435  1.00  0.00    -0.297 A  
BRANCH  15  18
HETATM   18  N   UNL     1      -6.012  20.096  68.915  1.00  0.00    -0.276 NA 
HETATM   19  C   UNL     1      -5.854  20.128  70.370  1.00  0.00    -0.343 C  
HETATM   20  C   UNL     1      -5.360  21.209  68.228  1.00  0.00    -0.294 C  
ENDBRANCH  15  18
ENDBRANCH  10  12
ENDBRANCH   9  10
ENDBRANCH   6   9
ENDBRANCH   3   4
ENDBRANCH   2   3
TORSDOF 6
ENDMDL
MODEL       61
REMARK 921   NORMALIZED FREE ENERGY PREDICTED BY IDOCK:   -5.08 KCAL/MOL
REMARK 922        TOTAL FREE ENERGY PREDICTED BY IDOCK:   -7.45 KCAL/MOL
REMARK 923 INTER-LIGAND FREE ENERGY PREDICTED BY IDOCK:   -6.59 KCAL/MOL
REMARK 924 INTRA-LIGAND FREE ENERGY PREDICTED BY IDOCK:   -0.86 KCAL/MOL
REMARK 927      BINDING AFFINITY PREDICTED BY RF-SCORE:    0.00 PKD
ROOT
HETATM    1  C   UNL     1     -10.418  19.471  65.985  1.00  0.00    -0.611 C  
HETATM    2  C   UNL     1     -10.760  19.434  67.467  1.00  0.00    -0.570 C  
ENDROOT
BRANCH   2   3
HETATM    3  C   UNL     1      -9.535  19.775  68.314  1.00  0.00    -0.440 C  
BRANCH   3   4
HETATM    4  C   UNL     1      -8.550  18.602  68.414  1.00  0.00    -0.366 C  
HETATM    5  C   UNL     1      -7.137  18.968  67.901  1.00  0.00    -0.254 C  
HETATM    6  C   UNL     1      -6.188  17.759  67.959  1.00  0.00    -0.167 C  
HETATM    7  C   UNL     1      -6.494  20.172  68.621  1.00  0.00    -0.341 C  
HETATM    8  C   UNL     1      -6.213  19.968  70.103  1.00  0.00    -0.393 C  
BRANCH   6   9
HETATM    9  O   UNL     1      -6.631  16.641  67.174  1.00  0.00    -0.152 OA 
BRANCH   9  10
HETATM   10  C   UNL     1      -7.239  15.642  67.861  1.00  0.00    -0.137 C  
HETATM   11  O   UNL     1      -6.974  15.282  68.995  1.00  0.00    -0.118 OA 
BRANCH  10  12
HETATM   12  C   UNL     1      -8.359  15.075  67.061  1.00  0.00    -0.254 A  
HETATM   13  C   UNL     1      -9.045  15.903  66.179  1.00  0.00    -0.385 A  
HETATM   14  C   UNL     1     -10.069  15.385  65.364  1.00  0.00    -0.394 A  
HETATM   15  C   UNL     1     -10.448  14.031  65.396  1.00  0.00    -0.351 A  
HETATM   16  C   UNL     1      -9.741  13.226  66.312  1.00  0.00    -0.274 A  
HETATM   17  C   UNL     1      -8.710  13.726  67.119  1.00  0.00    -0.231 A  
BRANCH  15  18
HETATM   18  N   UNL     1     -11.504  13.520  64.650  1.00  0.00    -0.344 NA 
HETATM   19  C   UNL     1     -12.877  13.586  65.154  1.00  0.00    -0.322 C  
HETATM   20  C   UNL     1     -11.291  12.470  63.657  1.00  0.00    -0.485 C  
ENDBRANCH  15  18
ENDBRANCH  10  12
ENDBRANCH   9  10
ENDBRANCH   6   9
ENDBRANCH   3   4
ENDBRANCH   2   3
TORSDOF 6
ENDMDL
MODEL       62
REMARK 921   NORMALIZED FREE ENERGY PREDICTED BY IDOCK:   -5.08 KCAL/MOL
REMARK 922        TOTAL FREE ENERGY PREDICTED BY IDOCK:   -7.45 KCAL/MOL
REMARK 923 INTER-LIGAND FREE ENERGY PREDICTED BY IDOCK:   -5.96 KCAL/MOL
REMARK 924 INTRA-LIGAND FREE ENERGY PREDICTED BY IDOCK:   -1.49 KCAL/MOL
REMARK 927      BINDING AFFINITY PREDICTED BY RF-SCORE:    0.00 PKD
ROOT
HETATM    1  C   UNL     1     -11.999  14.516  70.501  1.00  0.00    -0.387 C  
HETATM    2  C   UNL     1     -11.937  15.721  69.574  1.00  0.00    -0.326 C  
ENDROOT
BRANCH   2   3
HETATM    3  C   UNL     1     -10.642  16.503  69.789  1.00  0.00    -0.265 C  
BRANCH   3   4
HETATM    4  C   UNL     1      -9.672  16.364  68.607  1.00  0.00    -0.239 C  
HETATM    5  C   UNL     1     -10.280  16.870  67.278  1.00  0.00    -0.297 C  
HETATM    6  C   UNL     1      -9.309  16.665  66.103  1.00  0.00    -0.284 C  
HETATM    7  C   UNL     1     -10.751  18.340  67.317  1.00  0.00    -0.366 C  
HETATM    8  C   UNL     1      -9.650  19.369  67.535  1.00  0.00    -0.415 C  
BRANCH   6   9
HETATM    9  O   UNL     1      -8.946  15.292  65.889  1.00  0.00    -0.244 OA 
BRANCH   9  10
HETATM   10  C   UNL     1      -9.967  14.454  65.582  1.00  0.00    -0.337 C  
HETATM   11  O   UNL     1     -10.597  14.437  64.538  1.00  0.00    -0.371 OA 
BRANCH  10  12
HETATM   12  C   UNL     1     -10.178  13.475  66.684  1.00  0.00    -0.275 A  
HETATM   13  C   UNL     1     -11.450  12.948  66.883  1.00  0.00    -0.393 A  
HETATM   14  C   UNL     1     -11.671  11.977  67.876  1.00  0.00    -0.393 A  
HETATM   15  C   UNL     1     -10.643  11.496  68.706  1.00  0.00    -0.211 A  
HETATM   16  C   UNL     1      -9.371  12.063  68.485  1.00  0.00    -0.127 A  
HETATM   17  C   UNL     1      -9.134  13.021  67.490  1.00  0.00    -0.191 A  
BRANCH  15  18
HETATM   18  N   UNL     1     -10.860  10.589  69.737  1.00  0.00    -0.273 NA 
HETATM   19  C   UNL     1     -10.194   9.285  69.739  1.00  0.00    -0.211 C  
HETATM   20  C   UNL     1     -12.084  10.626  70.534  1.00  0.00    -0.355 C  
ENDBRANCH  15  18
ENDBRANCH  10  12
ENDBRANCH   9  10
ENDBRANCH   6   9
ENDBRANCH   3   4
ENDBRANCH   2   3
TORSDOF 6
ENDMDL
MODEL       63
REMARK 921   NORMALIZED FREE ENERGY PREDICTED BY IDOCK:   -5.07 KCAL/MOL
REMARK 922        TOTAL FREE ENERGY PREDICTED BY IDOCK:   -7.44 KCAL/MOL
REMARK 923 INTER-LIGAND FREE ENERGY PREDICTED BY IDOCK:   -6.45 KCAL/MOL
REMARK 924 INTRA-LIGAND FREE ENERGY PREDICTED BY IDOCK:   -0.98 KCAL/MOL
REMARK 927      BINDING AFFINITY PREDICTED BY RF-SCORE:    0.00 PKD
ROOT
HETATM    1  C   UNL     1      -6.346  16.367  68.996  1.00  0.00    -0.164 C  
HETATM    2  C   UNL     1      -6.999  16.413  67.622  1.00  0.00    -0.157 C  
ENDROOT
BRANCH   2   3
HETATM    3  C   UNL     1      -8.210  15.482  67.567  1.00  0.00    -0.182 C  
BRANCH   3   4
HETATM    4  C   UNL     1      -8.951  15.569  66.225  1.00  0.00    -0.362 C  
HETATM    5  C   UNL     1     -10.407  16.069  66.382  1.00  0.00    -0.312 C  
HETATM    6  C   UNL     1     -11.141  16.091  65.031  1.00  0.00    -0.336 C  
HETATM    7  C   UNL     1     -10.532  17.446  67.068  1.00  0.00    -0.284 C  
HETATM    8  C   UNL     1      -9.913  18.610  66.305  1.00  0.00    -0.398 C  
BRANCH   6   9
HETATM    9  O   UNL     1     -11.218  14.804  64.397  1.00  0.00    -0.292 OA 
BRANCH   9  10
HETATM   10  C   UNL     1     -12.061  13.912  64.974  1.00  0.00    -0.406 C  
HETATM   11  O   UNL     1     -13.241  14.091  65.222  1.00  0.00    -0.782 OA 
BRANCH  10  12
HETATM   12  C   UNL     1     -11.361  12.619  65.204  1.00  0.00    -0.343 A  
HETATM   13  C   UNL     1     -11.232  12.143  66.505  1.00  0.00    -0.378 A  
HETATM   14  C   UNL     1     -10.630  10.896  66.753  1.00  0.00    -0.313 A  
HETATM   15  C   UNL     1     -10.134  10.079  65.722  1.00  0.00    -0.250 A  
HETATM   16  C   UNL     1     -10.268  10.599  64.419  1.00  0.00    -0.400 A  
HETATM   17  C   UNL     1     -10.878  11.833  64.157  1.00  0.00    -0.418 A  
BRANCH  15  18
HETATM   18  N   UNL     1      -9.473   8.878  65.956  1.00  0.00    -0.246 NA 
HETATM   19  C   UNL     1      -8.403   8.427  65.064  1.00  0.00    -0.158 C  
HETATM   20  C   UNL     1     -10.109   7.797  66.706  1.00  0.00    -0.270 C  
ENDBRANCH  15  18
ENDBRANCH  10  12
ENDBRANCH   9  10
ENDBRANCH   6   9
ENDBRANCH   3   4
ENDBRANCH   2   3
TORSDOF 6
ENDMDL
MODEL       64
REMARK 921   NORMALIZED FREE ENERGY PREDICTED BY IDOCK:   -5.05 KCAL/MOL
REMARK 922        TOTAL FREE ENERGY PREDICTED BY IDOCK:   -7.41 KCAL/MOL
REMARK 923 INTER-LIGAND FREE ENERGY PREDICTED BY IDOCK:   -6.56 KCAL/MOL
REMARK 924 INTRA-LIGAND FREE ENERGY PREDICTED BY IDOCK:   -0.84 KCAL/MOL
REMARK 927      BINDING AFFINITY PREDICTED BY RF-SCORE:    0.00 PKD
ROOT
HETATM    1  C   UNL     1     -10.485   7.026  67.264  1.00  0.00    -0.363 C  
HETATM    2  C   UNL     1     -10.410   8.503  67.624  1.00  0.00    -0.317 C  
ENDROOT
BRANCH   2   3
HETATM    3  C   UNL     1      -9.672   8.701  68.948  1.00  0.00    -0.171 C  
BRANCH   3   4
HETATM    4  C   UNL     1     -10.375   9.715  69.861  1.00  0.00    -0.282 C  
HETATM    5  C   UNL     1     -11.401   9.050  70.808  1.00  0.00    -0.329 C  
HETATM    6  C   UNL     1     -12.130  10.095  71.670  1.00  0.00    -0.285 C  
HETATM    7  C   UNL     1     -10.806   7.950  71.713  1.00  0.00    -0.286 C  
HETATM    8  C   UNL     1      -9.763   8.426  72.715  1.00  0.00    -0.298 C  
BRANCH   6   9
HETATM    9  O   UNL     1     -12.855  11.070  70.903  1.00  0.00    -0.338 OA 
BRANCH   9  10
HETATM   10  C   UNL     1     -12.990  12.290  71.478  1.00  0.00    -0.289 C  
HETATM   11  O   UNL     1     -13.465  12.521  72.577  1.00  0.00    -0.452 OA 
BRANCH  10  12
HETATM   12  C   UNL     1     -12.396  13.339  70.605  1.00  0.00    -0.416 A  
HETATM   13  C   UNL     1     -12.012  13.002  69.311  1.00  0.00    -0.331 A  
HETATM   14  C   UNL     1     -11.503  13.983  68.440  1.00  0.00    -0.340 A  
HETATM   15  C   UNL     1     -11.355  15.328  68.820  1.00  0.00    -0.308 A  
HETATM   16  C   UNL     1     -11.740  15.630  70.142  1.00  0.00    -0.374 A  
HETATM   17  C   UNL     1     -12.262  14.666  71.016  1.00  0.00    -0.399 A  
BRANCH  15  18
HETATM   18  N   UNL     1     -10.788  16.293  67.996  1.00  0.00    -0.333 NA 
HETATM   19  C   UNL     1     -10.411  15.971  66.618  1.00  0.00    -0.298 C  
HETATM   20  C   UNL     1     -10.068  17.437  68.551  1.00  0.00    -0.352 C  
ENDBRANCH  15  18
ENDBRANCH  10  12
ENDBRANCH   9  10
ENDBRANCH   6   9
ENDBRANCH   3   4
ENDBRANCH   2   3
TORSDOF 6
ENDMDL
MODEL       65
REMARK 921   NORMALIZED FREE ENERGY PREDICTED BY IDOCK:   -5.04 KCAL/MOL
REMARK 922        TOTAL FREE ENERGY PREDICTED BY IDOCK:   -7.40 KCAL/MOL
REMARK 923 INTER-LIGAND FREE ENERGY PREDICTED BY IDOCK:   -6.50 KCAL/MOL
REMARK 924 INTRA-LIGAND FREE ENERGY PREDICTED BY IDOCK:   -0.90 KCAL/MOL
REMARK 927      BINDING AFFINITY PREDICTED BY RF-SCORE:    0.00 PKD
ROOT
HETATM    1  C   UNL     1     -12.317  12.168  63.438  1.00  0.00    -0.648 C  
HETATM    2  C   UNL     1     -10.934  12.632  63.872  1.00  0.00    -0.468 C  
ENDROOT
BRANCH   2   3
HETATM    3  C   UNL     1     -11.003  14.021  64.505  1.00  0.00    -0.361 C  
BRANCH   3   4
HETATM    4  C   UNL     1     -10.170  14.118  65.791  1.00  0.00    -0.347 C  
HETATM    5  C   UNL     1     -11.038  14.394  67.042  1.00  0.00    -0.317 C  
HETATM    6  C   UNL     1     -10.172  14.542  68.304  1.00  0.00    -0.234 C  
HETATM    7  C   UNL     1     -12.145  13.346  67.287  1.00  0.00    -0.352 C  
HETATM    8  C   UNL     1     -11.651  11.938  67.590  1.00  0.00    -0.382 C  
BRANCH   6   9
HETATM    9  O   UNL     1      -9.218  15.613  68.225  1.00  0.00    -0.184 OA 
BRANCH   9  10
HETATM   10  C   UNL     1      -9.740  16.862  68.150  1.00  0.00    -0.254 C  
HETATM   11  O   UNL     1     -10.758  17.252  68.695  1.00  0.00    -0.340 OA 
BRANCH  10  12
HETATM   12  C   UNL     1      -8.844  17.748  67.357  1.00  0.00    -0.240 A  
HETATM   13  C   UNL     1      -7.765  17.186  66.682  1.00  0.00    -0.300 A  
HETATM   14  C   UNL     1      -6.934  17.985  65.875  1.00  0.00    -0.319 A  
HETATM   15  C   UNL     1      -7.142  19.366  65.710  1.00  0.00    -0.290 A  
HETATM   16  C   UNL     1      -8.235  19.902  66.419  1.00  0.00    -0.365 A  
HETATM   17  C   UNL     1      -9.079  19.116  67.216  1.00  0.00    -0.334 A  
BRANCH  15  18
HETATM   18  N   UNL     1      -6.289  20.180  64.974  1.00  0.00    -0.265 NA 
HETATM   19  C   UNL     1      -5.750  19.731  63.689  1.00  0.00    -0.283 C  
HETATM   20  C   UNL     1      -5.484  21.215  65.620  1.00  0.00    -0.219 C  
ENDBRANCH  15  18
ENDBRANCH  10  12
ENDBRANCH   9  10
ENDBRANCH   6   9
ENDBRANCH   3   4
ENDBRANCH   2   3
TORSDOF 6
ENDMDL
MODEL       66
REMARK 921   NORMALIZED FREE ENERGY PREDICTED BY IDOCK:   -5.04 KCAL/MOL
REMARK 922        TOTAL FREE ENERGY PREDICTED BY IDOCK:   -7.39 KCAL/MOL
REMARK 923 INTER-LIGAND FREE ENERGY PREDICTED BY IDOCK:   -6.45 KCAL/MOL
REMARK 924 INTRA-LIGAND FREE ENERGY PREDICTED BY IDOCK:   -0.94 KCAL/MOL
REMARK 927      BINDING AFFINITY PREDICTED BY RF-SCORE:    0.00 PKD
ROOT
HETATM    1  C   UNL     1     -12.500  12.116  70.966  1.00  0.00    -0.369 C  
HETATM    2  C   UNL     1     -13.536  11.415  71.833  1.00  0.00    -0.280 C  
ENDROOT
BRANCH   2   3
HETATM    3  C   UNL     1     -13.158   9.950  72.052  1.00  0.00    -0.545 C  
BRANCH   3   4
HETATM    4  C   UNL     1     -12.224   9.419  70.955  1.00  0.00    -0.354 C  
HETATM    5  C   UNL     1     -10.917   8.819  71.527  1.00  0.00    -0.377 C  
HETATM    6  C   UNL     1      -9.978   8.347  70.404  1.00  0.00    -0.185 C  
HETATM    7  C   UNL     1     -11.136   7.676  72.540  1.00  0.00    -0.388 C  
HETATM    8  C   UNL     1     -11.799   6.426  71.977  1.00  0.00    -0.382 C  
BRANCH   6   9
HETATM    9  O   UNL     1      -9.587   9.395  69.502  1.00  0.00    -0.163 OA 
BRANCH   9  10
HETATM   10  C   UNL     1      -9.460   9.036  68.201  1.00  0.00    -0.142 C  
HETATM   11  O   UNL     1      -8.896   8.040  67.779  1.00  0.00    -0.126 OA 
BRANCH  10  12
HETATM   12  C   UNL     1     -10.186   9.999  67.328  1.00  0.00    -0.275 A  
HETATM   13  C   UNL     1     -10.947  11.002  67.918  1.00  0.00    -0.317 A  
HETATM   14  C   UNL     1     -11.597  11.964  67.123  1.00  0.00    -0.363 A  
HETATM   15  C   UNL     1     -11.516  11.965  65.719  1.00  0.00    -0.265 A  
HETATM   16  C   UNL     1     -10.748  10.926  65.157  1.00  0.00    -0.209 A  
HETATM   17  C   UNL     1     -10.084   9.969  65.937  1.00  0.00    -0.319 A  
BRANCH  15  18
HETATM   18  N   UNL     1     -12.210  12.865  64.919  1.00  0.00    -0.426 NA 
HETATM   19  C   UNL     1     -11.912  12.979  63.490  1.00  0.00    -0.545 C  
HETATM   20  C   UNL     1     -12.835  14.058  65.486  1.00  0.00    -0.419 C  
ENDBRANCH  15  18
ENDBRANCH  10  12
ENDBRANCH   9  10
ENDBRANCH   6   9
ENDBRANCH   3   4
ENDBRANCH   2   3
TORSDOF 6
ENDMDL
MODEL       67
REMARK 921   NORMALIZED FREE ENERGY PREDICTED BY IDOCK:   -5.03 KCAL/MOL
REMARK 922        TOTAL FREE ENERGY PREDICTED BY IDOCK:   -7.38 KCAL/MOL
REMARK 923 INTER-LIGAND FREE ENERGY PREDICTED BY IDOCK:   -6.61 KCAL/MOL
REMARK 924 INTRA-LIGAND FREE ENERGY PREDICTED BY IDOCK:   -0.77 KCAL/MOL
REMARK 927      BINDING AFFINITY PREDICTED BY RF-SCORE:    0.00 PKD
ROOT
HETATM    1  C   UNL     1      -8.356   9.343  70.292  1.00  0.00    -0.217 C  
HETATM    2  C   UNL     1      -7.799   7.957  70.583  1.00  0.00    -0.095 C  
ENDROOT
BRANCH   2   3
HETATM    3  C   UNL     1      -8.414   7.383  71.859  1.00  0.00    -0.117 C  
BRANCH   3   4
HETATM    4  C   UNL     1      -9.863   7.845  72.067  1.00  0.00    -0.250 C  
HETATM    5  C   UNL     1     -10.891   6.880  71.430  1.00  0.00    -0.256 C  
HETATM    6  C   UNL     1     -12.330   7.397  71.605  1.00  0.00    -0.341 C  
HETATM    7  C   UNL     1     -10.793   5.425  71.939  1.00  0.00    -0.253 C  
HETATM    8  C   UNL     1     -11.101   5.232  73.418  1.00  0.00    -0.362 C  
BRANCH   6   9
HETATM    9  O   UNL     1     -12.555   8.684  71.009  1.00  0.00    -0.204 OA 
BRANCH   9  10
HETATM   10  C   UNL     1     -13.316   9.542  71.731  1.00  0.00    -0.422 C  
HETATM   11  O   UNL     1     -14.130   9.240  72.587  1.00  0.00    -0.477 OA 
BRANCH  10  12
HETATM   12  C   UNL     1     -12.966  10.949  71.393  1.00  0.00    -0.527 A  
HETATM   13  C   UNL     1     -12.236  11.204  70.237  1.00  0.00    -0.436 A  
HETATM   14  C   UNL     1     -11.940  12.526  69.857  1.00  0.00    -0.371 A  
HETATM   15  C   UNL     1     -12.354  13.640  70.610  1.00  0.00    -0.368 A  
HETATM   16  C   UNL     1     -13.078  13.343  71.782  1.00  0.00    -0.479 A  
HETATM   17  C   UNL     1     -13.392  12.032  72.165  1.00  0.00    -0.396 A  
BRANCH  15  18
HETATM   18  N   UNL     1     -12.009  14.947  70.286  1.00  0.00    -0.291 NA 
HETATM   19  C   UNL     1     -11.319  15.249  69.030  1.00  0.00    -0.300 C  
HETATM   20  C   UNL     1     -11.816  15.959  71.322  1.00  0.00    -0.449 C  
ENDBRANCH  15  18
ENDBRANCH  10  12
ENDBRANCH   9  10
ENDBRANCH   6   9
ENDBRANCH   3   4
ENDBRANCH   2   3
TORSDOF 6
ENDMDL
MODEL       68
REMARK 921   NORMALIZED FREE ENERGY PREDICTED BY IDOCK:   -5.02 KCAL/MOL
REMARK 922        TOTAL FREE ENERGY PREDICTED BY IDOCK:   -7.37 KCAL/MOL
REMARK 923 INTER-LIGAND FREE ENERGY PREDICTED BY IDOCK:   -6.25 KCAL/MOL
REMARK 924 INTRA-LIGAND FREE ENERGY PREDICTED BY IDOCK:   -1.12 KCAL/MOL
REMARK 927      BINDING AFFINITY PREDICTED BY RF-SCORE:    0.00 PKD
ROOT
HETATM    1  C   UNL     1      -6.044  16.857  69.613  1.00  0.00    -0.225 C  
HETATM    2  C   UNL     1      -6.181  16.362  68.181  1.00  0.00    -0.132 C  
ENDROOT
BRANCH   2   3
HETATM    3  C   UNL     1      -5.565  17.361  67.202  1.00  0.00    -0.172 C  
BRANCH   3   4
HETATM    4  C   UNL     1      -6.625  18.077  66.354  1.00  0.00    -0.256 C  
HETATM    5  C   UNL     1      -7.490  19.054  67.186  1.00  0.00    -0.240 C  
HETATM    6  C   UNL     1      -8.579  19.713  66.323  1.00  0.00    -0.366 C  
HETATM    7  C   UNL     1      -6.681  20.140  67.927  1.00  0.00    -0.313 C  
HETATM    8  C   UNL     1      -5.932  21.117  67.031  1.00  0.00    -0.375 C  
BRANCH   6   9
HETATM    9  O   UNL     1      -9.486  18.774  65.724  1.00  0.00    -0.414 OA 
BRANCH   9  10
HETATM   10  C   UNL     1     -10.213  18.024  66.589  1.00  0.00    -0.373 C  
HETATM   11  O   UNL     1     -10.836  18.436  67.553  1.00  0.00    -0.408 OA 
BRANCH  10  12
HETATM   12  C   UNL     1     -10.219  16.600  66.156  1.00  0.00    -0.360 A  
HETATM   13  C   UNL     1      -9.520  15.663  66.909  1.00  0.00    -0.245 A  
HETATM   14  C   UNL     1      -9.554  14.300  66.562  1.00  0.00    -0.313 A  
HETATM   15  C   UNL     1     -10.279  13.819  65.457  1.00  0.00    -0.316 A  
HETATM   16  C   UNL     1     -10.962  14.799  64.709  1.00  0.00    -0.393 A  
HETATM   17  C   UNL     1     -10.948  16.158  65.051  1.00  0.00    -0.357 A  
BRANCH  15  18
HETATM   18  N   UNL     1     -10.264  12.487  65.060  1.00  0.00    -0.289 NA 
HETATM   19  C   UNL     1     -10.302  12.129  63.641  1.00  0.00    -0.452 C  
HETATM   20  C   UNL     1     -10.738  11.427  65.947  1.00  0.00    -0.255 C  
ENDBRANCH  15  18
ENDBRANCH  10  12
ENDBRANCH   9  10
ENDBRANCH   6   9
ENDBRANCH   3   4
ENDBRANCH   2   3
TORSDOF 6
ENDMDL
MODEL       69
REMARK 921   NORMALIZED FREE ENERGY PREDICTED BY IDOCK:   -4.99 KCAL/MOL
REMARK 922        TOTAL FREE ENERGY PREDICTED BY IDOCK:   -7.33 KCAL/MOL
REMARK 923 INTER-LIGAND FREE ENERGY PREDICTED BY IDOCK:   -6.45 KCAL/MOL
REMARK 924 INTRA-LIGAND FREE ENERGY PREDICTED BY IDOCK:   -0.88 KCAL/MOL
REMARK 927      BINDING AFFINITY PREDICTED BY RF-SCORE:    0.00 PKD
ROOT
HETATM    1  C   UNL     1     -12.090  15.061  69.942  1.00  0.00    -0.376 C  
HETATM    2  C   UNL     1     -12.133  13.886  68.977  1.00  0.00    -0.365 C  
ENDROOT
BRANCH   2   3
HETATM    3  C   UNL     1     -11.830  14.345  67.551  1.00  0.00    -0.418 C  
BRANCH   3   4
HETATM    4  C   UNL     1     -10.839  13.415  66.837  1.00  0.00    -0.282 C  
HETATM    5  C   UNL     1     -11.543  12.257  66.091  1.00  0.00    -0.450 C  
HETATM    6  C   UNL     1     -10.524  11.311  65.433  1.00  0.00    -0.268 C  
HETATM    7  C   UNL     1     -12.580  12.717  65.044  1.00  0.00    -0.538 C  
HETATM    8  C   UNL     1     -12.013  13.506  63.871  1.00  0.00    -0.491 C  
BRANCH   6   9
HETATM    9  O   UNL     1      -9.617  10.703  66.367  1.00  0.00    -0.180 OA 
BRANCH   9  10
HETATM   10  C   UNL     1      -9.780   9.372  66.564  1.00  0.00    -0.236 C  
HETATM   11  O   UNL     1      -9.472   8.484  65.787  1.00  0.00    -0.172 OA 
BRANCH  10  12
HETATM   12  C   UNL     1     -10.329   9.116  67.924  1.00  0.00    -0.285 A  
HETATM   13  C   UNL     1     -10.452   7.804  68.367  1.00  0.00    -0.207 A  
HETATM   14  C   UNL     1     -10.911   7.529  69.669  1.00  0.00    -0.210 A  
HETATM   15  C   UNL     1     -11.266   8.545  70.574  1.00  0.00    -0.242 A  
HETATM   16  C   UNL     1     -11.142   9.862  70.086  1.00  0.00    -0.353 A  
HETATM   17  C   UNL     1     -10.674  10.149  68.797  1.00  0.00    -0.247 A  
BRANCH  15  18
HETATM   18  N   UNL     1     -11.787   8.289  71.837  1.00  0.00    -0.302 NA 
HETATM   19  C   UNL     1     -12.968   9.008  72.318  1.00  0.00    -0.424 C  
HETATM   20  C   UNL     1     -10.952   7.747  72.907  1.00  0.00    -0.407 C  
ENDBRANCH  15  18
ENDBRANCH  10  12
ENDBRANCH   9  10
ENDBRANCH   6   9
ENDBRANCH   3   4
ENDBRANCH   2   3
TORSDOF 6
ENDMDL
MODEL       70
REMARK 921   NORMALIZED FREE ENERGY PREDICTED BY IDOCK:   -4.93 KCAL/MOL
REMARK 922        TOTAL FREE ENERGY PREDICTED BY IDOCK:   -7.25 KCAL/MOL
REMARK 923 INTER-LIGAND FREE ENERGY PREDICTED BY IDOCK:   -6.08 KCAL/MOL
REMARK 924 INTRA-LIGAND FREE ENERGY PREDICTED BY IDOCK:   -1.17 KCAL/MOL
REMARK 927      BINDING AFFINITY PREDICTED BY RF-SCORE:    0.00 PKD
ROOT
HETATM    1  C   UNL     1     -12.160   9.924  71.380  1.00  0.00    -0.501 C  
HETATM    2  C   UNL     1     -11.113   8.846  71.619  1.00  0.00    -0.420 C  
ENDROOT
BRANCH   2   3
HETATM    3  C   UNL     1     -11.742   7.455  71.548  1.00  0.00    -0.314 C  
BRANCH   3   4
HETATM    4  C   UNL     1     -11.641   6.840  70.146  1.00  0.00    -0.397 C  
HETATM    5  C   UNL     1     -10.180   6.563  69.721  1.00  0.00    -0.221 C  
HETATM    6  C   UNL     1     -10.107   6.002  68.291  1.00  0.00    -0.164 C  
HETATM    7  C   UNL     1      -9.406   5.640  70.686  1.00  0.00    -0.191 C  
HETATM    8  C   UNL     1      -9.943   4.219  70.796  1.00  0.00    -0.224 C  
BRANCH   6   9
HETATM    9  O   UNL     1     -10.660   6.880  67.299  1.00  0.00    -0.244 OA 
BRANCH   9  10
HETATM   10  C   UNL     1      -9.769   7.670  66.649  1.00  0.00    -0.213 C  
HETATM   11  O   UNL     1      -8.787   7.293  66.033  1.00  0.00    -0.156 OA 
BRANCH  10  12
HETATM   12  C   UNL     1     -10.196   9.094  66.720  1.00  0.00    -0.331 A  
HETATM   13  C   UNL     1      -9.998   9.914  65.614  1.00  0.00    -0.353 A  
HETATM   14  C   UNL     1     -10.444  11.248  65.626  1.00  0.00    -0.317 A  
HETATM   15  C   UNL     1     -11.099  11.816  66.733  1.00  0.00    -0.306 A  
HETATM   16  C   UNL     1     -11.270  10.961  67.840  1.00  0.00    -0.387 A  
HETATM   17  C   UNL     1     -10.843   9.626  67.837  1.00  0.00    -0.272 A  
BRANCH  15  18
HETATM   18  N   UNL     1     -11.482  13.151  66.787  1.00  0.00    -0.327 NA 
HETATM   19  C   UNL     1     -11.288  13.937  68.007  1.00  0.00    -0.288 C  
HETATM   20  C   UNL     1     -12.525  13.677  65.909  1.00  0.00    -0.452 C  
ENDBRANCH  15  18
ENDBRANCH  10  12
ENDBRANCH   9  10
ENDBRANCH   6   9
ENDBRANCH   3   4
ENDBRANCH   2   3
TORSDOF 6
ENDMDL
MODEL       71
REMARK 921   NORMALIZED FREE ENERGY PREDICTED BY IDOCK:   -4.93 KCAL/MOL
REMARK 922        TOTAL FREE ENERGY PREDICTED BY IDOCK:   -7.25 KCAL/MOL
REMARK 923 INTER-LIGAND FREE ENERGY PREDICTED BY IDOCK:   -6.62 KCAL/MOL
REMARK 924 INTRA-LIGAND FREE ENERGY PREDICTED BY IDOCK:   -0.62 KCAL/MOL
REMARK 927      BINDING AFFINITY PREDICTED BY RF-SCORE:    0.00 PKD
ROOT
HETATM    1  C   UNL     1     -13.488  14.523  72.749  1.00  0.00    -0.575 C  
HETATM    2  C   UNL     1     -13.300  13.548  71.597  1.00  0.00    -0.420 C  
ENDROOT
BRANCH   2   3
HETATM    3  C   UNL     1     -13.455  12.106  72.077  1.00  0.00    -0.388 C  
BRANCH   3   4
HETATM    4  C   UNL     1     -12.798  11.099  71.123  1.00  0.00    -0.473 C  
HETATM    5  C   UNL     1     -12.230   9.864  71.862  1.00  0.00    -0.333 C  
HETATM    6  C   UNL     1     -11.528   8.901  70.889  1.00  0.00    -0.288 C  
HETATM    7  C   UNL     1     -13.273   9.093  72.699  1.00  0.00    -0.362 C  
HETATM    8  C   UNL     1     -14.401   8.452  71.901  1.00  0.00    -0.561 C  
BRANCH   6   9
HETATM    9  O   UNL     1     -10.427   9.497  70.184  1.00  0.00    -0.217 OA 
BRANCH   9  10
HETATM   10  C   UNL     1     -10.028   8.851  69.061  1.00  0.00    -0.190 C  
HETATM   11  O   UNL     1      -9.681   7.684  68.984  1.00  0.00    -0.157 OA 
BRANCH  10  12
HETATM   12  C   UNL     1     -10.145   9.751  67.880  1.00  0.00    -0.212 A  
HETATM   13  C   UNL     1     -11.166  10.694  67.849  1.00  0.00    -0.376 A  
HETATM   14  C   UNL     1     -11.269  11.600  66.777  1.00  0.00    -0.371 A  
HETATM   15  C   UNL     1     -10.366  11.600  65.700  1.00  0.00    -0.262 A  
HETATM   16  C   UNL     1      -9.353  10.622  65.758  1.00  0.00    -0.223 A  
HETATM   17  C   UNL     1      -9.231   9.723  66.826  1.00  0.00    -0.179 A  
BRANCH  15  18
HETATM   18  N   UNL     1     -10.496  12.440  64.600  1.00  0.00    -0.296 NA 
HETATM   19  C   UNL     1     -11.045  13.789  64.750  1.00  0.00    -0.377 C  
HETATM   20  C   UNL     1     -10.615  11.904  63.246  1.00  0.00    -0.365 C  
ENDBRANCH  15  18
ENDBRANCH  10  12
ENDBRANCH   9  10
ENDBRANCH   6   9
ENDBRANCH   3   4
ENDBRANCH   2   3
TORSDOF 6
ENDMDL
MODEL       72
REMARK 921   NORMALIZED FREE ENERGY PREDICTED BY IDOCK:   -4.92 KCAL/MOL
REMARK 922        TOTAL FREE ENERGY PREDICTED BY IDOCK:   -7.23 KCAL/MOL
REMARK 923 INTER-LIGAND FREE ENERGY PREDICTED BY IDOCK:   -6.54 KCAL/MOL
REMARK 924 INTRA-LIGAND FREE ENERGY PREDICTED BY IDOCK:   -0.69 KCAL/MOL
REMARK 927      BINDING AFFINITY PREDICTED BY RF-SCORE:    0.00 PKD
ROOT
HETATM    1  C   UNL     1      -9.808   9.333  71.072  1.00  0.00    -0.355 C  
HETATM    2  C   UNL     1      -8.465   9.225  70.367  1.00  0.00    -0.234 C  
ENDROOT
BRANCH   2   3
HETATM    3  C   UNL     1      -8.394  10.191  69.185  1.00  0.00    -0.154 C  
BRANCH   3   4
HETATM    4  C   UNL     1      -9.759  10.388  68.510  1.00  0.00    -0.174 C  
HETATM    5  C   UNL     1      -9.642  10.595  66.981  1.00  0.00    -0.196 C  
HETATM    6  C   UNL     1     -11.018  10.846  66.342  1.00  0.00    -0.088 C  
HETATM    7  C   UNL     1      -8.923   9.446  66.242  1.00  0.00    -0.189 C  
HETATM    8  C   UNL     1      -9.630   8.098  66.293  1.00  0.00    -0.248 C  
BRANCH   6   9
HETATM    9  O   UNL     1     -11.690  12.005  66.859  1.00  0.00    -0.518 OA 
BRANCH   9  10
HETATM   10  C   UNL     1     -12.095  12.912  65.936  1.00  0.00    -0.444 C  
HETATM   11  O   UNL     1     -12.871  12.708  65.017  1.00  0.00    -0.765 OA 
BRANCH  10  12
HETATM   12  C   UNL     1     -11.517  14.250  66.239  1.00  0.00    -0.360 A  
HETATM   13  C   UNL     1     -11.544  14.715  67.550  1.00  0.00    -0.396 A  
HETATM   14  C   UNL     1     -10.953  15.948  67.882  1.00  0.00    -0.327 A  
HETATM   15  C   UNL     1     -10.318  16.762  66.928  1.00  0.00    -0.294 A  
HETATM   16  C   UNL     1     -10.323  16.266  65.608  1.00  0.00    -0.385 A  
HETATM   17  C   UNL     1     -10.896  15.034  65.266  1.00  0.00    -0.399 A  
BRANCH  15  18
HETATM   18  N   UNL     1      -9.793  18.014  67.227  1.00  0.00    -0.296 NA 
HETATM   19  C   UNL     1     -10.598  19.225  67.050  1.00  0.00    -0.470 C  
HETATM   20  C   UNL     1      -8.353  18.258  67.203  1.00  0.00    -0.245 C  
ENDBRANCH  15  18
ENDBRANCH  10  12
ENDBRANCH   9  10
ENDBRANCH   6   9
ENDBRANCH   3   4
ENDBRANCH   2   3
TORSDOF 6
ENDMDL
MODEL       73
REMARK 921   NORMALIZED FREE ENERGY PREDICTED BY IDOCK:   -4.89 KCAL/MOL
REMARK 922        TOTAL FREE ENERGY PREDICTED BY IDOCK:   -7.19 KCAL/MOL
REMARK 923 INTER-LIGAND FREE ENERGY PREDICTED BY IDOCK:   -6.33 KCAL/MOL
REMARK 924 INTRA-LIGAND FREE ENERGY PREDICTED BY IDOCK:   -0.86 KCAL/MOL
REMARK 927      BINDING AFFINITY PREDICTED BY RF-SCORE:    0.00 PKD
ROOT
HETATM    1  C   UNL     1      -6.284  15.281  67.788  1.00  0.00    -0.178 C  
HETATM    2  C   UNL     1      -6.800  14.904  69.169  1.00  0.00    -0.132 C  
ENDROOT
BRANCH   2   3
HETATM    3  C   UNL     1      -8.217  15.437  69.381  1.00  0.00    -0.250 C  
BRANCH   3   4
HETATM    4  C   UNL     1      -9.274  14.580  68.671  1.00  0.00    -0.192 C  
HETATM    5  C   UNL     1     -10.521  15.398  68.258  1.00  0.00    -0.241 C  
HETATM    6  C   UNL     1     -11.586  14.504  67.601  1.00  0.00    -0.378 C  
HETATM    7  C   UNL     1     -10.213  16.602  67.343  1.00  0.00    -0.286 C  
HETATM    8  C   UNL     1      -9.639  16.251  65.977  1.00  0.00    -0.371 C  
BRANCH   6   9
HETATM    9  O   UNL     1     -12.056  13.447  68.453  1.00  0.00    -0.343 OA 
BRANCH   9  10
HETATM   10  C   UNL     1     -11.898  12.189  67.972  1.00  0.00    -0.285 C  
HETATM   11  O   UNL     1     -11.960  11.851  66.802  1.00  0.00    -0.613 OA 
BRANCH  10  12
HETATM   12  C   UNL     1     -11.552  11.254  69.078  1.00  0.00    -0.386 A  
HETATM   13  C   UNL     1     -10.320  10.611  69.057  1.00  0.00    -0.237 A  
HETATM   14  C   UNL     1      -9.937   9.768  70.116  1.00  0.00    -0.315 A  
HETATM   15  C   UNL     1     -10.762   9.532  71.231  1.00  0.00    -0.316 A  
HETATM   16  C   UNL     1     -12.009  10.190  71.211  1.00  0.00    -0.473 A  
HETATM   17  C   UNL     1     -12.397  11.043  70.169  1.00  0.00    -0.389 A  
BRANCH  15  18
HETATM   18  N   UNL     1     -10.428   8.648  72.250  1.00  0.00    -0.332 NA 
HETATM   19  C   UNL     1      -9.027   8.342  72.546  1.00  0.00    -0.238 C  
HETATM   20  C   UNL     1     -11.362   7.615  72.693  1.00  0.00    -0.370 C  
ENDBRANCH  15  18
ENDBRANCH  10  12
ENDBRANCH   9  10
ENDBRANCH   6   9
ENDBRANCH   3   4
ENDBRANCH   2   3
TORSDOF 6
ENDMDL
MODEL       74
REMARK 921   NORMALIZED FREE ENERGY PREDICTED BY IDOCK:   -4.87 KCAL/MOL
REMARK 922        TOTAL FREE ENERGY PREDICTED BY IDOCK:   -7.17 KCAL/MOL
REMARK 923 INTER-LIGAND FREE ENERGY PREDICTED BY IDOCK:   -6.41 KCAL/MOL
REMARK 924 INTRA-LIGAND FREE ENERGY PREDICTED BY IDOCK:   -0.76 KCAL/MOL
REMARK 927      BINDING AFFINITY PREDICTED BY RF-SCORE:    0.00 PKD
ROOT
HETATM    1  C   UNL     1     -10.051   9.590  67.756  1.00  0.00    -0.244 C  
HETATM    2  C   UNL     1      -9.203  10.770  67.307  1.00  0.00    -0.158 C  
ENDROOT
BRANCH   2   3
HETATM    3  C   UNL     1      -9.325  11.931  68.293  1.00  0.00    -0.193 C  
BRANCH   3   4
HETATM    4  C   UNL     1      -9.831  13.216  67.622  1.00  0.00    -0.219 C  
HETATM    5  C   UNL     1     -11.368  13.229  67.448  1.00  0.00    -0.337 C  
HETATM    6  C   UNL     1     -11.840  14.501  66.723  1.00  0.00    -0.371 C  
HETATM    7  C   UNL     1     -12.155  13.055  68.765  1.00  0.00    -0.197 C  
HETATM    8  C   UNL     1     -11.976  14.175  69.781  1.00  0.00    -0.396 C  
BRANCH   6   9
HETATM    9  O   UNL     1     -11.280  14.656  65.409  1.00  0.00    -0.323 OA 
BRANCH   9  10
HETATM   10  C   UNL     1     -11.047  15.932  65.016  1.00  0.00    -0.360 C  
HETATM   11  O   UNL     1     -11.607  16.521  64.107  1.00  0.00    -1.052 OA 
BRANCH  10  12
HETATM   12  C   UNL     1     -10.043  16.572  65.911  1.00  0.00    -0.359 A  
HETATM   13  C   UNL     1      -8.815  15.949  66.102  1.00  0.00    -0.363 A  
HETATM   14  C   UNL     1      -7.822  16.555  66.893  1.00  0.00    -0.263 A  
HETATM   15  C   UNL     1      -8.013  17.798  67.523  1.00  0.00    -0.212 A  
HETATM   16  C   UNL     1      -9.274  18.393  67.319  1.00  0.00    -0.271 A  
HETATM   17  C   UNL     1     -10.267  17.806  66.522  1.00  0.00    -0.358 A  
BRANCH  15  18
HETATM   18  N   UNL     1      -7.069  18.376  68.364  1.00  0.00    -0.255 NA 
HETATM   19  C   UNL     1      -7.192  19.775  68.777  1.00  0.00    -0.317 C  
HETATM   20  C   UNL     1      -5.706  17.857  68.444  1.00  0.00    -0.164 C  
ENDBRANCH  15  18
ENDBRANCH  10  12
ENDBRANCH   9  10
ENDBRANCH   6   9
ENDBRANCH   3   4
ENDBRANCH   2   3
TORSDOF 6
ENDMDL
MODEL       75
REMARK 921   NORMALIZED FREE ENERGY PREDICTED BY IDOCK:   -4.87 KCAL/MOL
REMARK 922        TOTAL FREE ENERGY PREDICTED BY IDOCK:   -7.16 KCAL/MOL
REMARK 923 INTER-LIGAND FREE ENERGY PREDICTED BY IDOCK:   -6.56 KCAL/MOL
REMARK 924 INTRA-LIGAND FREE ENERGY PREDICTED BY IDOCK:   -0.60 KCAL/MOL
REMARK 927      BINDING AFFINITY PREDICTED BY RF-SCORE:    0.00 PKD
ROOT
HETATM    1  C   UNL     1     -13.023  10.291  71.049  1.00  0.00    -0.488 C  
HETATM    2  C   UNL     1     -12.321  11.599  70.715  1.00  0.00    -0.454 C  
ENDROOT
BRANCH   2   3
HETATM    3  C   UNL     1     -11.563  11.485  69.394  1.00  0.00    -0.388 C  
BRANCH   3   4
HETATM    4  C   UNL     1     -11.836  12.671  68.460  1.00  0.00    -0.342 C  
HETATM    5  C   UNL     1     -10.537  13.358  67.975  1.00  0.00    -0.252 C  
HETATM    6  C   UNL     1     -10.843  14.577  67.088  1.00  0.00    -0.296 C  
HETATM    7  C   UNL     1      -9.556  12.414  67.247  1.00  0.00    -0.199 C  
HETATM    8  C   UNL     1     -10.070  11.827  65.939  1.00  0.00    -0.267 C  
BRANCH   6   9
HETATM    9  O   UNL     1     -11.617  15.590  67.749  1.00  0.00    -0.302 OA 
BRANCH   9  10
HETATM   10  C   UNL     1     -10.986  16.255  68.748  1.00  0.00    -0.343 C  
HETATM   11  O   UNL     1     -11.103  16.041  69.943  1.00  0.00    -0.301 OA 
BRANCH  10  12
HETATM   12  C   UNL     1     -10.045  17.260  68.183  1.00  0.00    -0.325 A  
HETATM   13  C   UNL     1     -10.531  18.219  67.301  1.00  0.00    -0.419 A  
HETATM   14  C   UNL     1      -9.680  19.219  66.795  1.00  0.00    -0.413 A  
HETATM   15  C   UNL     1      -8.321  19.303  67.144  1.00  0.00    -0.280 A  
HETATM   16  C   UNL     1      -7.860  18.307  68.028  1.00  0.00    -0.274 A  
HETATM   17  C   UNL     1      -8.699  17.313  68.550  1.00  0.00    -0.273 A  
BRANCH  15  18
HETATM   18  N   UNL     1      -7.453  20.241  66.598  1.00  0.00    -0.280 NA 
HETATM   19  C   UNL     1      -6.895  20.054  65.257  1.00  0.00    -0.295 C  
HETATM   20  C   UNL     1      -6.654  21.120  67.449  1.00  0.00    -0.370 C  
ENDBRANCH  15  18
ENDBRANCH  10  12
ENDBRANCH   9  10
ENDBRANCH   6   9
ENDBRANCH   3   4
ENDBRANCH   2   3
TORSDOF 6
ENDMDL
MODEL       76
REMARK 921   NORMALIZED FREE ENERGY PREDICTED BY IDOCK:   -4.85 KCAL/MOL
REMARK 922        TOTAL FREE ENERGY PREDICTED BY IDOCK:   -7.13 KCAL/MOL
REMARK 923 INTER-LIGAND FREE ENERGY PREDICTED BY IDOCK:   -6.53 KCAL/MOL
REMARK 924 INTRA-LIGAND FREE ENERGY PREDICTED BY IDOCK:   -0.60 KCAL/MOL
REMARK 927      BINDING AFFINITY PREDICTED BY RF-SCORE:    0.00 PKD
ROOT
HETATM    1  C   UNL     1     -10.243   5.606  68.531  1.00  0.00    -0.253 C  
HETATM    2  C   UNL     1      -9.643   6.612  67.561  1.00  0.00    -0.142 C  
ENDROOT
BRANCH   2   3
HETATM    3  C   UNL     1     -10.705   7.602  67.082  1.00  0.00    -0.361 C  
BRANCH   3   4
HETATM    4  C   UNL     1     -10.125   8.999  66.823  1.00  0.00    -0.344 C  
HETATM    5  C   UNL     1     -10.765  10.084  67.721  1.00  0.00    -0.333 C  
HETATM    6  C   UNL     1     -10.206  11.481  67.399  1.00  0.00    -0.203 C  
HETATM    7  C   UNL     1     -10.640   9.806  69.234  1.00  0.00    -0.240 C  
HETATM    8  C   UNL     1      -9.218   9.793  69.777  1.00  0.00    -0.248 C  
BRANCH   6   9
HETATM    9  O   UNL     1     -10.430  11.891  66.041  1.00  0.00    -0.231 OA 
BRANCH   9  10
HETATM   10  C   UNL     1     -11.494  12.708  65.841  1.00  0.00    -0.363 C  
HETATM   11  O   UNL     1     -12.591  12.374  65.427  1.00  0.00    -0.637 OA 
BRANCH  10  12
HETATM   12  C   UNL     1     -11.169  14.093  66.277  1.00  0.00    -0.329 A  
HETATM   13  C   UNL     1     -10.519  14.945  65.390  1.00  0.00    -0.406 A  
HETATM   14  C   UNL     1     -10.250  16.279  65.748  1.00  0.00    -0.390 A  
HETATM   15  C   UNL     1     -10.614  16.814  66.996  1.00  0.00    -0.234 A  
HETATM   16  C   UNL     1     -11.258  15.919  67.874  1.00  0.00    -0.297 A  
HETATM   17  C   UNL     1     -11.544  14.592  67.525  1.00  0.00    -0.403 A  
BRANCH  15  18
HETATM   18  N   UNL     1     -10.293  18.107  67.391  1.00  0.00    -0.373 NA 
HETATM   19  C   UNL     1      -9.751  19.070  66.431  1.00  0.00    -0.367 C  
HETATM   20  C   UNL     1      -9.967  18.416  68.782  1.00  0.00    -0.375 C  
ENDBRANCH  15  18
ENDBRANCH  10  12
ENDBRANCH   9  10
ENDBRANCH   6   9
ENDBRANCH   3   4
ENDBRANCH   2   3
TORSDOF 6
ENDMDL
MODEL       77
REMARK 921   NORMALIZED FREE ENERGY PREDICTED BY IDOCK:   -4.84 KCAL/MOL
REMARK 922        TOTAL FREE ENERGY PREDICTED BY IDOCK:   -7.13 KCAL/MOL
REMARK 923 INTER-LIGAND FREE ENERGY PREDICTED BY IDOCK:   -6.50 KCAL/MOL
REMARK 924 INTRA-LIGAND FREE ENERGY PREDICTED BY IDOCK:   -0.63 KCAL/MOL
REMARK 927      BINDING AFFINITY PREDICTED BY RF-SCORE:    0.00 PKD
ROOT
HETATM    1  C   UNL     1     -11.999  13.953  67.356  1.00  0.00    -0.436 C  
HETATM    2  C   UNL     1     -11.110  14.917  68.128  1.00  0.00    -0.290 C  
ENDROOT
BRANCH   2   3
HETATM    3  C   UNL     1     -11.562  15.024  69.584  1.00  0.00    -0.333 C  
BRANCH   3   4
HETATM    4  C   UNL     1     -12.515  13.889  69.984  1.00  0.00    -0.325 C  
HETATM    5  C   UNL     1     -12.431  13.546  71.490  1.00  0.00    -0.289 C  
HETATM    6  C   UNL     1     -13.353  12.369  71.850  1.00  0.00    -0.349 C  
HETATM    7  C   UNL     1     -12.715  14.739  72.427  1.00  0.00    -0.432 C  
HETATM    8  C   UNL     1     -14.125  15.308  72.345  1.00  0.00    -0.622 C  
BRANCH   6   9
HETATM    9  O   UNL     1     -13.048  11.159  71.138  1.00  0.00    -0.331 OA 
BRANCH   9  10
HETATM   10  C   UNL     1     -13.010  10.029  71.886  1.00  0.00    -0.447 C  
HETATM   11  O   UNL     1     -13.917   9.586  72.570  1.00  0.00    -0.370 OA 
BRANCH  10  12
HETATM   12  C   UNL     1     -11.706   9.334  71.702  1.00  0.00    -0.462 A  
HETATM   13  C   UNL     1     -11.436   8.197  72.457  1.00  0.00    -0.470 A  
HETATM   14  C   UNL     1     -10.240   7.481  72.265  1.00  0.00    -0.252 A  
HETATM   15  C   UNL     1      -9.271   7.868  71.322  1.00  0.00    -0.146 A  
HETATM   16  C   UNL     1      -9.572   9.032  70.587  1.00  0.00    -0.289 A  
HETATM   17  C   UNL     1     -10.766   9.747  70.758  1.00  0.00    -0.393 A  
BRANCH  15  18
HETATM   18  N   UNL     1      -8.054   7.213  71.171  1.00  0.00    -0.103 NA 
HETATM   19  C   UNL     1      -7.345   6.674  72.333  1.00  0.00    -0.089 C  
HETATM   20  C   UNL     1      -7.188   7.478  70.024  1.00  0.00    -0.069 C  
ENDBRANCH  15  18
ENDBRANCH  10  12
ENDBRANCH   9  10
ENDBRANCH   6   9
ENDBRANCH   3   4
ENDBRANCH   2   3
TORSDOF 6
ENDMDL
MODEL       78
REMARK 921   NORMALIZED FREE ENERGY PREDICTED BY IDOCK:   -4.84 KCAL/MOL
REMARK 922        TOTAL FREE ENERGY PREDICTED BY IDOCK:   -7.12 KCAL/MOL
REMARK 923 INTER-LIGAND FREE ENERGY PREDICTED BY IDOCK:   -6.50 KCAL/MOL
REMARK 924 INTRA-LIGAND FREE ENERGY PREDICTED BY IDOCK:   -0.63 KCAL/MOL
REMARK 927      BINDING AFFINITY PREDICTED BY RF-SCORE:    0.00 PKD
ROOT
HETATM    1  C   UNL     1      -8.968   4.049  74.472  1.00  0.00    -0.107 C  
HETATM    2  C   UNL     1     -10.371   4.636  74.428  1.00  0.00    -0.318 C  
ENDROOT
BRANCH   2   3
HETATM    3  C   UNL     1     -11.059   4.298  73.106  1.00  0.00    -0.293 C  
BRANCH   3   4
HETATM    4  C   UNL     1     -11.545   5.551  72.364  1.00  0.00    -0.230 C  
HETATM    5  C   UNL     1     -10.381   6.376  71.765  1.00  0.00    -0.231 C  
HETATM    6  C   UNL     1     -10.893   7.653  71.078  1.00  0.00    -0.242 C  
HETATM    7  C   UNL     1      -9.479   5.584  70.793  1.00  0.00    -0.209 C  
HETATM    8  C   UNL     1     -10.164   5.098  69.523  1.00  0.00    -0.318 C  
BRANCH   6   9
HETATM    9  O   UNL     1     -11.606   8.535  71.960  1.00  0.00    -0.312 OA 
BRANCH   9  10
HETATM   10  C   UNL     1     -12.791   9.000  71.495  1.00  0.00    -0.336 C  
HETATM   11  O   UNL     1     -13.821   8.357  71.373  1.00  0.00    -0.328 OA 
BRANCH  10  12
HETATM   12  C   UNL     1     -12.698  10.459  71.216  1.00  0.00    -0.536 A  
HETATM   13  C   UNL     1     -12.073  10.884  70.049  1.00  0.00    -0.433 A  
HETATM   14  C   UNL     1     -12.020  12.253  69.726  1.00  0.00    -0.365 A  
HETATM   15  C   UNL     1     -12.582  13.246  70.548  1.00  0.00    -0.189 A  
HETATM   16  C   UNL     1     -13.194  12.779  71.729  1.00  0.00    -0.471 A  
HETATM   17  C   UNL     1     -13.266  11.418  72.056  1.00  0.00    -0.432 A  
BRANCH  15  18
HETATM   18  N   UNL     1     -12.476  14.605  70.278  1.00  0.00    -0.348 NA 
HETATM   19  C   UNL     1     -11.460  15.107  69.351  1.00  0.00    -0.306 C  
HETATM   20  C   UNL     1     -12.948  15.607  71.232  1.00  0.00    -0.492 C  
ENDBRANCH  15  18
ENDBRANCH  10  12
ENDBRANCH   9  10
ENDBRANCH   6   9
ENDBRANCH   3   4
ENDBRANCH   2   3
TORSDOF 6
ENDMDL
MODEL       79
REMARK 921   NORMALIZED FREE ENERGY PREDICTED BY IDOCK:   -4.83 KCAL/MOL
REMARK 922        TOTAL FREE ENERGY PREDICTED BY IDOCK:   -7.11 KCAL/MOL
REMARK 923 INTER-LIGAND FREE ENERGY PREDICTED BY IDOCK:   -6.19 KCAL/MOL
REMARK 924 INTRA-LIGAND FREE ENERGY PREDICTED BY IDOCK:   -0.92 KCAL/MOL
REMARK 927      BINDING AFFINITY PREDICTED BY RF-SCORE:    0.00 PKD
ROOT
HETATM    1  C   UNL     1      -5.708  17.069  66.800  1.00  0.00    -0.210 C  
HETATM    2  C   UNL     1      -5.811  17.216  68.311  1.00  0.00    -0.135 C  
ENDROOT
BRANCH   2   3
HETATM    3  C   UNL     1      -7.251  17.507  68.731  1.00  0.00    -0.257 C  
BRANCH   3   4
HETATM    4  C   UNL     1      -8.232  17.416  67.553  1.00  0.00    -0.209 C  
HETATM    5  C   UNL     1      -9.172  18.641  67.467  1.00  0.00    -0.295 C  
HETATM    6  C   UNL     1     -10.180  18.495  66.314  1.00  0.00    -0.418 C  
HETATM    7  C   UNL     1      -8.439  19.995  67.353  1.00  0.00    -0.391 C  
HETATM    8  C   UNL     1      -7.614  20.182  66.087  1.00  0.00    -0.294 C  
BRANCH   6   9
HETATM    9  O   UNL     1     -11.025  17.340  66.431  1.00  0.00    -0.016 OA 
BRANCH   9  10
HETATM   10  C   UNL     1     -11.121  16.567  65.321  1.00  0.00    -0.076 C  
HETATM   11  O   UNL     1     -11.288  16.961  64.179  1.00  0.00    -1.208 OA 
BRANCH  10  12
HETATM   12  C   UNL     1     -10.914  15.135  65.672  1.00  0.00    -0.359 A  
HETATM   13  C   UNL     1      -9.686  14.737  66.188  1.00  0.00    -0.338 A  
HETATM   14  C   UNL     1      -9.476  13.404  66.586  1.00  0.00    -0.264 A  
HETATM   15  C   UNL     1     -10.475  12.419  66.484  1.00  0.00    -0.230 A  
HETATM   16  C   UNL     1     -11.702  12.855  65.944  1.00  0.00    -0.449 A  
HETATM   17  C   UNL     1     -11.929  14.183  65.557  1.00  0.00    -0.394 A  
BRANCH  15  18
HETATM   18  N   UNL     1     -10.262  11.084  66.806  1.00  0.00    -0.220 NA 
HETATM   19  C   UNL     1      -9.772  10.704  68.133  1.00  0.00    -0.156 C  
HETATM   20  C   UNL     1      -9.991  10.089  65.772  1.00  0.00    -0.276 C  
ENDBRANCH  15  18
ENDBRANCH  10  12
ENDBRANCH   9  10
ENDBRANCH   6   9
ENDBRANCH   3   4
ENDBRANCH   2   3
TORSDOF 6
ENDMDL
MODEL       80
REMARK 921   NORMALIZED FREE ENERGY PREDICTED BY IDOCK:   -4.83 KCAL/MOL
REMARK 922        TOTAL FREE ENERGY PREDICTED BY IDOCK:   -7.11 KCAL/MOL
REMARK 923 INTER-LIGAND FREE ENERGY PREDICTED BY IDOCK:   -6.55 KCAL/MOL
REMARK 924 INTRA-LIGAND FREE ENERGY PREDICTED BY IDOCK:   -0.55 KCAL/MOL
REMARK 927      BINDING AFFINITY PREDICTED BY RF-SCORE:    0.00 PKD
ROOT
HETATM    1  C   UNL     1     -10.238   4.945  73.602  1.00  0.00    -0.228 C  
HETATM    2  C   UNL     1     -10.756   6.028  72.667  1.00  0.00    -0.266 C  
ENDROOT
BRANCH   2   3
HETATM    3  C   UNL     1     -10.706   5.558  71.213  1.00  0.00    -0.288 C  
BRANCH   3   4
HETATM    4  C   UNL     1     -10.934   6.706  70.221  1.00  0.00    -0.355 C  
HETATM    5  C   UNL     1      -9.911   7.854  70.395  1.00  0.00    -0.183 C  
HETATM    6  C   UNL     1     -10.198   9.014  69.427  1.00  0.00    -0.204 C  
HETATM    7  C   UNL     1      -8.437   7.413  70.262  1.00  0.00    -0.136 C  
HETATM    8  C   UNL     1      -8.039   6.885  68.890  1.00  0.00    -0.120 C  
BRANCH   6   9
HETATM    9  O   UNL     1     -11.499   9.597  69.598  1.00  0.00    -0.142 OA 
BRANCH   9  10
HETATM   10  C   UNL     1     -11.696  10.789  68.981  1.00  0.00    -0.286 C  
HETATM   11  O   UNL     1     -11.609  11.004  67.784  1.00  0.00    -0.510 OA 
BRANCH  10  12
HETATM   12  C   UNL     1     -12.119  11.817  69.971  1.00  0.00    -0.387 A  
HETATM   13  C   UNL     1     -11.899  13.160  69.685  1.00  0.00    -0.390 A  
HETATM   14  C   UNL     1     -12.341  14.160  70.571  1.00  0.00    -0.434 A  
HETATM   15  C   UNL     1     -13.013  13.864  71.770  1.00  0.00    -0.358 A  
HETATM   16  C   UNL     1     -13.205  12.492  72.034  1.00  0.00    -0.524 A  
HETATM   17  C   UNL     1     -12.783  11.487  71.154  1.00  0.00    -0.458 A  
BRANCH  15  18
HETATM   18  N   UNL     1     -13.392  14.836  72.689  1.00  0.00    -0.428 NA 
HETATM   19  C   UNL     1     -14.411  15.831  72.348  1.00  0.00    -0.242 C  
HETATM   20  C   UNL     1     -12.492  15.258  73.760  1.00  0.00    -0.615 C  
ENDBRANCH  15  18
ENDBRANCH  10  12
ENDBRANCH   9  10
ENDBRANCH   6   9
ENDBRANCH   3   4
ENDBRANCH   2   3
TORSDOF 6
ENDMDL
MODEL       81
REMARK 921   NORMALIZED FREE ENERGY PREDICTED BY IDOCK:   -4.83 KCAL/MOL
REMARK 922        TOTAL FREE ENERGY PREDICTED BY IDOCK:   -7.11 KCAL/MOL
REMARK 923 INTER-LIGAND FREE ENERGY PREDICTED BY IDOCK:   -6.31 KCAL/MOL
REMARK 924 INTRA-LIGAND FREE ENERGY PREDICTED BY IDOCK:   -0.80 KCAL/MOL
REMARK 927      BINDING AFFINITY PREDICTED BY RF-SCORE:    0.00 PKD
ROOT
HETATM    1  C   UNL     1     -12.429  15.626  73.295  1.00  0.00    -0.612 C  
HETATM    2  C   UNL     1     -11.762  15.103  72.032  1.00  0.00    -0.504 C  
ENDROOT
BRANCH   2   3
HETATM    3  C   UNL     1     -12.577  15.477  70.794  1.00  0.00    -0.505 C  
BRANCH   3   4
HETATM    4  C   UNL     1     -12.144  14.688  69.551  1.00  0.00    -0.335 C  
HETATM    5  C   UNL     1     -11.780  15.607  68.361  1.00  0.00    -0.301 C  
HETATM    6  C   UNL     1     -11.405  14.789  67.113  1.00  0.00    -0.356 C  
HETATM    7  C   UNL     1     -10.665  16.630  68.670  1.00  0.00    -0.349 C  
HETATM    8  C   UNL     1      -9.303  16.029  68.990  1.00  0.00    -0.239 C  
BRANCH   6   9
HETATM    9  O   UNL     1     -12.457  13.925  66.654  1.00  0.00    -0.407 OA 
BRANCH   9  10
HETATM   10  C   UNL     1     -12.068  12.889  65.872  1.00  0.00    -0.444 C  
HETATM   11  O   UNL     1     -12.332  12.738  64.691  1.00  0.00    -0.421 OA 
BRANCH  10  12
HETATM   12  C   UNL     1     -11.187  11.967  66.639  1.00  0.00    -0.384 A  
HETATM   13  C   UNL     1      -9.854  11.837  66.261  1.00  0.00    -0.245 A  
HETATM   14  C   UNL     1      -8.979  11.021  67.001  1.00  0.00    -0.151 A  
HETATM   15  C   UNL     1      -9.394  10.304  68.138  1.00  0.00    -0.139 A  
HETATM   16  C   UNL     1     -10.753  10.448  68.482  1.00  0.00    -0.255 A  
HETATM   17  C   UNL     1     -11.633  11.268  67.762  1.00  0.00    -0.307 A  
BRANCH  15  18
HETATM   18  N   UNL     1      -8.560   9.438  68.837  1.00  0.00    -0.128 NA 
HETATM   19  C   UNL     1      -7.142   9.326  68.492  1.00  0.00    -0.071 C  
HETATM   20  C   UNL     1      -9.092   8.267  69.529  1.00  0.00    -0.154 C  
ENDBRANCH  15  18
ENDBRANCH  10  12
ENDBRANCH   9  10
ENDBRANCH   6   9
ENDBRANCH   3   4
ENDBRANCH   2   3
TORSDOF 6
ENDMDL
MODEL       82
REMARK 921   NORMALIZED FREE ENERGY PREDICTED BY IDOCK:   -4.82 KCAL/MOL
REMARK 922        TOTAL FREE ENERGY PREDICTED BY IDOCK:   -7.09 KCAL/MOL
REMARK 923 INTER-LIGAND FREE ENERGY PREDICTED BY IDOCK:   -6.37 KCAL/MOL
REMARK 924 INTRA-LIGAND FREE ENERGY PREDICTED BY IDOCK:   -0.72 KCAL/MOL
REMARK 927      BINDING AFFINITY PREDICTED BY RF-SCORE:    0.00 PKD
ROOT
HETATM    1  C   UNL     1      -9.572   2.521  72.296  1.00  0.00    -0.183 C  
HETATM    2  C   UNL     1     -10.820   2.513  73.167  1.00  0.00    -0.250 C  
ENDROOT
BRANCH   2   3
HETATM    3  C   UNL     1     -10.861   3.749  74.065  1.00  0.00    -0.270 C  
BRANCH   3   4
HETATM    4  C   UNL     1     -10.958   5.052  73.260  1.00  0.00    -0.384 C  
HETATM    5  C   UNL     1     -10.343   6.259  74.007  1.00  0.00    -0.322 C  
HETATM    6  C   UNL     1     -10.505   7.560  73.203  1.00  0.00    -0.364 C  
HETATM    7  C   UNL     1      -8.862   6.070  74.403  1.00  0.00    -0.127 C  
HETATM    8  C   UNL     1      -7.891   5.933  73.239  1.00  0.00    -0.105 C  
BRANCH   6   9
HETATM    9  O   UNL     1     -11.873   7.902  72.932  1.00  0.00    -0.307 OA 
BRANCH   9  10
HETATM   10  C   UNL     1     -12.187   8.082  71.625  1.00  0.00    -0.307 C  
HETATM   11  O   UNL     1     -12.488   7.209  70.829  1.00  0.00    -0.301 OA 
BRANCH  10  12
HETATM   12  C   UNL     1     -12.196   9.533  71.292  1.00  0.00    -0.433 A  
HETATM   13  C   UNL     1     -11.399   9.990  70.248  1.00  0.00    -0.376 A  
HETATM   14  C   UNL     1     -11.428  11.345  69.868  1.00  0.00    -0.353 A  
HETATM   15  C   UNL     1     -12.245  12.292  70.511  1.00  0.00    -0.300 A  
HETATM   16  C   UNL     1     -13.028  11.796  71.573  1.00  0.00    -0.446 A  
HETATM   17  C   UNL     1     -13.018  10.446  71.953  1.00  0.00    -0.555 A  
BRANCH  15  18
HETATM   18  N   UNL     1     -12.233  13.645  70.195  1.00  0.00    -0.345 NA 
HETATM   19  C   UNL     1     -12.898  14.622  71.059  1.00  0.00    -0.348 C  
HETATM   20  C   UNL     1     -12.061  14.100  68.817  1.00  0.00    -0.291 C  
ENDBRANCH  15  18
ENDBRANCH  10  12
ENDBRANCH   9  10
ENDBRANCH   6   9
ENDBRANCH   3   4
ENDBRANCH   2   3
TORSDOF 6
ENDMDL
MODEL       83
REMARK 921   NORMALIZED FREE ENERGY PREDICTED BY IDOCK:   -4.80 KCAL/MOL
REMARK 922        TOTAL FREE ENERGY PREDICTED BY IDOCK:   -7.08 KCAL/MOL
REMARK 923 INTER-LIGAND FREE ENERGY PREDICTED BY IDOCK:   -6.37 KCAL/MOL
REMARK 924 INTRA-LIGAND FREE ENERGY PREDICTED BY IDOCK:   -0.71 KCAL/MOL
REMARK 927      BINDING AFFINITY PREDICTED BY RF-SCORE:    0.00 PKD
ROOT
HETATM    1  C   UNL     1     -12.535  12.002  63.343  1.00  0.00    -0.625 C  
HETATM    2  C   UNL     1     -11.046  12.311  63.394  1.00  0.00    -0.487 C  
ENDROOT
BRANCH   2   3
HETATM    3  C   UNL     1     -10.294  11.230  64.169  1.00  0.00    -0.410 C  
BRANCH   3   4
HETATM    4  C   UNL     1     -10.455  11.383  65.688  1.00  0.00    -0.316 C  
HETATM    5  C   UNL     1     -10.771  10.041  66.390  1.00  0.00    -0.063 C  
HETATM    6  C   UNL     1     -10.983  10.234  67.901  1.00  0.00    -0.292 C  
HETATM    7  C   UNL     1      -9.719   8.938  66.146  1.00  0.00    -0.338 C  
HETATM    8  C   UNL     1      -8.331   9.229  66.702  1.00  0.00    -0.122 C  
BRANCH   6   9
HETATM    9  O   UNL     1     -12.063  11.126  68.221  1.00  0.00    -0.620 OA 
BRANCH   9  10
HETATM   10  C   UNL     1     -11.850  11.956  69.272  1.00  0.00    -0.318 C  
HETATM   11  O   UNL     1     -12.102  11.719  70.441  1.00  0.00    -0.350 OA 
BRANCH  10  12
HETATM   12  C   UNL     1     -11.175  13.201  68.814  1.00  0.00    -0.323 A  
HETATM   13  C   UNL     1     -11.926  14.364  68.679  1.00  0.00    -0.332 A  
HETATM   14  C   UNL     1     -11.309  15.573  68.306  1.00  0.00    -0.360 A  
HETATM   15  C   UNL     1      -9.929  15.670  68.054  1.00  0.00    -0.222 A  
HETATM   16  C   UNL     1      -9.203  14.469  68.187  1.00  0.00    -0.195 A  
HETATM   17  C   UNL     1      -9.802  13.262  68.571  1.00  0.00    -0.169 A  
BRANCH  15  18
HETATM   18  N   UNL     1      -9.317  16.839  67.617  1.00  0.00    -0.227 NA 
HETATM   19  C   UNL     1      -8.245  17.460  68.398  1.00  0.00    -0.262 C  
HETATM   20  C   UNL     1     -10.006  17.767  66.723  1.00  0.00    -0.333 C  
ENDBRANCH  15  18
ENDBRANCH  10  12
ENDBRANCH   9  10
ENDBRANCH   6   9
ENDBRANCH   3   4
ENDBRANCH   2   3
TORSDOF 6
ENDMDL
MODEL       84
REMARK 921   NORMALIZED FREE ENERGY PREDICTED BY IDOCK:   -4.79 KCAL/MOL
REMARK 922        TOTAL FREE ENERGY PREDICTED BY IDOCK:   -7.06 KCAL/MOL
REMARK 923 INTER-LIGAND FREE ENERGY PREDICTED BY IDOCK:   -5.92 KCAL/MOL
REMARK 924 INTRA-LIGAND FREE ENERGY PREDICTED BY IDOCK:   -1.14 KCAL/MOL
REMARK 927      BINDING AFFINITY PREDICTED BY RF-SCORE:    0.00 PKD
ROOT
HETATM    1  C   UNL     1     -11.958  14.890  64.477  1.00  0.00    -0.420 C  
HETATM    2  C   UNL     1     -12.585  13.950  65.495  1.00  0.00    -0.560 C  
ENDROOT
BRANCH   2   3
HETATM    3  C   UNL     1     -12.148  12.507  65.241  1.00  0.00    -0.500 C  
BRANCH   3   4
HETATM    4  C   UNL     1     -10.704  12.248  65.690  1.00  0.00    -0.302 C  
HETATM    5  C   UNL     1     -10.503  12.478  67.207  1.00  0.00    -0.232 C  
HETATM    6  C   UNL     1      -9.035  12.267  67.617  1.00  0.00    -0.181 C  
HETATM    7  C   UNL     1     -11.425  11.625  68.104  1.00  0.00    -0.382 C  
HETATM    8  C   UNL     1     -11.207  10.120  68.015  1.00  0.00    -0.247 C  
BRANCH   6   9
HETATM    9  O   UNL     1      -8.118  13.145  66.946  1.00  0.00    -0.074 OA 
BRANCH   9  10
HETATM   10  C   UNL     1      -7.462  14.028  67.739  1.00  0.00    -0.161 C  
HETATM   11  O   UNL     1      -6.472  13.797  68.412  1.00  0.00    -0.082 OA 
BRANCH  10  12
HETATM   12  C   UNL     1      -8.075  15.380  67.620  1.00  0.00    -0.166 A  
HETATM   13  C   UNL     1      -7.842  16.317  68.620  1.00  0.00    -0.202 A  
HETATM   14  C   UNL     1      -8.356  17.622  68.510  1.00  0.00    -0.291 A  
HETATM   15  C   UNL     1      -9.121  18.042  67.407  1.00  0.00    -0.250 A  
HETATM   16  C   UNL     1      -9.349  17.062  66.420  1.00  0.00    -0.295 A  
HETATM   17  C   UNL     1      -8.831  15.762  66.510  1.00  0.00    -0.345 A  
BRANCH  15  18
HETATM   18  N   UNL     1      -9.695  19.304  67.317  1.00  0.00    -0.318 NA 
HETATM   19  C   UNL     1     -10.239  19.965  68.505  1.00  0.00    -0.409 C  
HETATM   20  C   UNL     1     -10.262  19.792  66.061  1.00  0.00    -0.501 C  
ENDBRANCH  15  18
ENDBRANCH  10  12
ENDBRANCH   9  10
ENDBRANCH   6   9
ENDBRANCH   3   4
ENDBRANCH   2   3
TORSDOF 6
ENDMDL
MODEL       85
REMARK 921   NORMALIZED FREE ENERGY PREDICTED BY IDOCK:   -4.78 KCAL/MOL
REMARK 922        TOTAL FREE ENERGY PREDICTED BY IDOCK:   -7.04 KCAL/MOL
REMARK 923 INTER-LIGAND FREE ENERGY PREDICTED BY IDOCK:   -6.43 KCAL/MOL
REMARK 924 INTRA-LIGAND FREE ENERGY PREDICTED BY IDOCK:   -0.61 KCAL/MOL
REMARK 927      BINDING AFFINITY PREDICTED BY RF-SCORE:    0.00 PKD
ROOT
HETATM    1  C   UNL     1      -5.343  20.435  65.035  1.00  0.00    -0.202 C  
HETATM    2  C   UNL     1      -6.792  20.098  65.355  1.00  0.00    -0.338 C  
ENDROOT
BRANCH   2   3
HETATM    3  C   UNL     1      -6.871  19.004  66.420  1.00  0.00    -0.229 C  
BRANCH   3   4
HETATM    4  C   UNL     1      -7.920  17.936  66.082  1.00  0.00    -0.236 C  
HETATM    5  C   UNL     1      -9.111  17.941  67.070  1.00  0.00    -0.256 C  
HETATM    6  C   UNL     1     -10.117  16.824  66.742  1.00  0.00    -0.294 C  
HETATM    7  C   UNL     1      -9.846  19.295  67.169  1.00  0.00    -0.425 C  
HETATM    8  C   UNL     1     -10.536  19.754  65.891  1.00  0.00    -0.587 C  
BRANCH   6   9
HETATM    9  O   UNL     1      -9.550  15.506  66.792  1.00  0.00    -0.219 OA 
BRANCH   9  10
HETATM   10  C   UNL     1      -9.128  15.093  68.012  1.00  0.00    -0.180 C  
HETATM   11  O   UNL     1      -7.969  14.972  68.371  1.00  0.00    -0.122 OA 
BRANCH  10  12
HETATM   12  C   UNL     1     -10.292  14.872  68.913  1.00  0.00    -0.244 A  
HETATM   13  C   UNL     1     -10.981  13.666  68.843  1.00  0.00    -0.281 A  
HETATM   14  C   UNL     1     -12.048  13.402  69.720  1.00  0.00    -0.374 A  
HETATM   15  C   UNL     1     -12.471  14.323  70.695  1.00  0.00    -0.358 A  
HETATM   16  C   UNL     1     -11.760  15.539  70.727  1.00  0.00    -0.397 A  
HETATM   17  C   UNL     1     -10.686  15.810  69.868  1.00  0.00    -0.332 A  
BRANCH  15  18
HETATM   18  N   UNL     1     -13.567  14.105  71.521  1.00  0.00    -0.344 NA 
HETATM   19  C   UNL     1     -14.294  15.231  72.112  1.00  0.00    -0.555 C  
HETATM   20  C   UNL     1     -13.727  12.852  72.255  1.00  0.00    -0.458 C  
ENDBRANCH  15  18
ENDBRANCH  10  12
ENDBRANCH   9  10
ENDBRANCH   6   9
ENDBRANCH   3   4
ENDBRANCH   2   3
TORSDOF 6
ENDMDL
MODEL       86
REMARK 921   NORMALIZED FREE ENERGY PREDICTED BY IDOCK:   -4.76 KCAL/MOL
REMARK 922        TOTAL FREE ENERGY PREDICTED BY IDOCK:   -7.01 KCAL/MOL
REMARK 923 INTER-LIGAND FREE ENERGY PREDICTED BY IDOCK:   -6.72 KCAL/MOL
REMARK 924 INTRA-LIGAND FREE ENERGY PREDICTED BY IDOCK:   -0.29 KCAL/MOL
REMARK 927      BINDING AFFINITY PREDICTED BY RF-SCORE:    0.00 PKD
ROOT
HETATM    1  C   UNL     1      -9.057   4.808  73.809  1.00  0.00    -0.115 C  
HETATM    2  C   UNL     1     -10.039   5.969  73.876  1.00  0.00    -0.249 C  
ENDROOT
BRANCH   2   3
HETATM    3  C   UNL     1     -11.198   5.755  72.903  1.00  0.00    -0.319 C  
BRANCH   3   4
HETATM    4  C   UNL     1     -11.579   7.041  72.158  1.00  0.00    -0.320 C  
HETATM    5  C   UNL     1     -10.452   7.541  71.222  1.00  0.00    -0.220 C  
HETATM    6  C   UNL     1     -10.840   8.861  70.533  1.00  0.00    -0.236 C  
HETATM    7  C   UNL     1     -10.005   6.510  70.164  1.00  0.00    -0.190 C  
HETATM    8  C   UNL     1     -11.067   6.122  69.145  1.00  0.00    -0.448 C  
BRANCH   6   9
HETATM    9  O   UNL     1     -11.113   9.931  71.451  1.00  0.00    -0.325 OA 
BRANCH   9  10
HETATM   10  C   UNL     1     -12.296  10.570  71.275  1.00  0.00    -0.397 C  
HETATM   11  O   UNL     1     -13.322  10.372  71.902  1.00  0.00    -0.412 OA 
BRANCH  10  12
HETATM   12  C   UNL     1     -12.159  11.631  70.240  1.00  0.00    -0.443 A  
HETATM   13  C   UNL     1     -12.307  12.962  70.615  1.00  0.00    -0.385 A  
HETATM   14  C   UNL     1     -12.125  13.993  69.675  1.00  0.00    -0.408 A  
HETATM   15  C   UNL     1     -11.792  13.740  68.332  1.00  0.00    -0.376 A  
HETATM   16  C   UNL     1     -11.664  12.380  67.985  1.00  0.00    -0.414 A  
HETATM   17  C   UNL     1     -11.830  11.344  68.915  1.00  0.00    -0.413 A  
BRANCH  15  18
HETATM   18  N   UNL     1     -11.679  14.743  67.376  1.00  0.00    -0.375 NA 
HETATM   19  C   UNL     1     -11.859  14.445  65.954  1.00  0.00    -0.367 C  
HETATM   20  C   UNL     1     -10.889  15.946  67.629  1.00  0.00    -0.312 C  
ENDBRANCH  15  18
ENDBRANCH  10  12
ENDBRANCH   9  10
ENDBRANCH   6   9
ENDBRANCH   3   4
ENDBRANCH   2   3
TORSDOF 6
ENDMDL
MODEL       87
REMARK 921   NORMALIZED FREE ENERGY PREDICTED BY IDOCK:   -4.74 KCAL/MOL
REMARK 922        TOTAL FREE ENERGY PREDICTED BY IDOCK:   -6.99 KCAL/MOL
REMARK 923 INTER-LIGAND FREE ENERGY PREDICTED BY IDOCK:   -6.28 KCAL/MOL
REMARK 924 INTRA-LIGAND FREE ENERGY PREDICTED BY IDOCK:   -0.71 KCAL/MOL
REMARK 927      BINDING AFFINITY PREDICTED BY RF-SCORE:    0.00 PKD
ROOT
HETATM    1  C   UNL     1      -8.550  19.276  67.641  1.00  0.00    -0.332 C  
HETATM    2  C   UNL     1      -8.690  18.062  66.735  1.00  0.00    -0.269 C  
ENDROOT
BRANCH   2   3
HETATM    3  C   UNL     1      -7.884  16.884  67.279  1.00  0.00    -0.204 C  
BRANCH   3   4
HETATM    4  C   UNL     1      -8.758  15.648  67.535  1.00  0.00    -0.189 C  
HETATM    5  C   UNL     1      -8.102  14.341  67.028  1.00  0.00    -0.068 C  
HETATM    6  C   UNL     1      -9.024  13.129  67.246  1.00  0.00    -0.216 C  
HETATM    7  C   UNL     1      -6.711  14.056  67.632  1.00  0.00    -0.188 C  
HETATM    8  C   UNL     1      -6.692  13.817  69.136  1.00  0.00    -0.112 C  
BRANCH   6   9
HETATM    9  O   UNL     1     -10.288  13.239  66.574  1.00  0.00    -0.275 OA 
BRANCH   9  10
HETATM   10  C   UNL     1     -11.336  12.636  67.187  1.00  0.00    -0.319 C  
HETATM   11  O   UNL     1     -11.831  11.564  66.881  1.00  0.00    -0.542 OA 
BRANCH  10  12
HETATM   12  C   UNL     1     -11.771  13.433  68.366  1.00  0.00    -0.390 A  
HETATM   13  C   UNL     1     -11.998  12.782  69.575  1.00  0.00    -0.338 A  
HETATM   14  C   UNL     1     -12.351  13.514  70.723  1.00  0.00    -0.440 A  
HETATM   15  C   UNL     1     -12.494  14.913  70.715  1.00  0.00    -0.339 A  
HETATM   16  C   UNL     1     -12.271  15.536  69.470  1.00  0.00    -0.264 A  
HETATM   17  C   UNL     1     -11.905  14.822  68.321  1.00  0.00    -0.316 A  
BRANCH  15  18
HETATM   18  N   UNL     1     -12.912  15.641  71.822  1.00  0.00    -0.449 NA 
HETATM   19  C   UNL     1     -11.937  16.199  72.762  1.00  0.00    -0.536 C  
HETATM   20  C   UNL     1     -14.241  15.448  72.399  1.00  0.00    -0.492 C  
ENDBRANCH  15  18
ENDBRANCH  10  12
ENDBRANCH   9  10
ENDBRANCH   6   9
ENDBRANCH   3   4
ENDBRANCH   2   3
TORSDOF 6
ENDMDL
MODEL       88
REMARK 921   NORMALIZED FREE ENERGY PREDICTED BY IDOCK:   -4.74 KCAL/MOL
REMARK 922        TOTAL FREE ENERGY PREDICTED BY IDOCK:   -6.99 KCAL/MOL
REMARK 923 INTER-LIGAND FREE ENERGY PREDICTED BY IDOCK:   -5.96 KCAL/MOL
REMARK 924 INTRA-LIGAND FREE ENERGY PREDICTED BY IDOCK:   -1.03 KCAL/MOL
REMARK 927      BINDING AFFINITY PREDICTED BY RF-SCORE:    0.00 PKD
ROOT
HETATM    1  C   UNL     1     -10.870  19.727  65.674  1.00  0.00    -0.337 C  
HETATM    2  C   UNL     1     -10.766  19.827  67.189  1.00  0.00    -0.547 C  
ENDROOT
BRANCH   2   3
HETATM    3  C   UNL     1      -9.413  20.405  67.602  1.00  0.00    -0.485 C  
BRANCH   3   4
HETATM    4  C   UNL     1      -8.297  19.351  67.578  1.00  0.00    -0.326 C  
HETATM    5  C   UNL     1      -7.122  19.751  66.655  1.00  0.00    -0.243 C  
HETATM    6  C   UNL     1      -6.047  18.653  66.606  1.00  0.00    -0.155 C  
HETATM    7  C   UNL     1      -6.471  21.105  67.011  1.00  0.00    -0.414 C  
HETATM    8  C   UNL     1      -5.792  21.161  68.373  1.00  0.00    -0.329 C  
BRANCH   6   9
HETATM    9  O   UNL     1      -6.535  17.391  66.121  1.00  0.00    -0.229 OA 
BRANCH   9  10
HETATM   10  C   UNL     1      -6.419  16.347  66.978  1.00  0.00    -0.167 C  
HETATM   11  O   UNL     1      -5.379  15.828  67.346  1.00  0.00    -0.291 OA 
BRANCH  10  12
HETATM   12  C   UNL     1      -7.759  15.951  67.491  1.00  0.00    -0.183 A  
HETATM   13  C   UNL     1      -7.979  15.936  68.864  1.00  0.00    -0.204 A  
HETATM   14  C   UNL     1      -9.251  15.625  69.380  1.00  0.00    -0.279 A  
HETATM   15  C   UNL     1     -10.346  15.315  68.553  1.00  0.00    -0.231 A  
HETATM   16  C   UNL     1     -10.082  15.326  67.169  1.00  0.00    -0.240 A  
HETATM   17  C   UNL     1      -8.824  15.648  66.641  1.00  0.00    -0.327 A  
BRANCH  15  18
HETATM   18  N   UNL     1     -11.588  14.937  69.049  1.00  0.00    -0.289 NA 
HETATM   19  C   UNL     1     -12.150  15.586  70.235  1.00  0.00    -0.386 C  
HETATM   20  C   UNL     1     -12.132  13.604  68.795  1.00  0.00    -0.297 C  
ENDBRANCH  15  18
ENDBRANCH  10  12
ENDBRANCH   9  10
ENDBRANCH   6   9
ENDBRANCH   3   4
ENDBRANCH   2   3
TORSDOF 6
ENDMDL
MODEL       89
REMARK 921   NORMALIZED FREE ENERGY PREDICTED BY IDOCK:   -4.73 KCAL/MOL
REMARK 922        TOTAL FREE ENERGY PREDICTED BY IDOCK:   -6.98 KCAL/MOL
REMARK 923 INTER-LIGAND FREE ENERGY PREDICTED BY IDOCK:   -6.38 KCAL/MOL
REMARK 924 INTRA-LIGAND FREE ENERGY PREDICTED BY IDOCK:   -0.60 KCAL/MOL
REMARK 927      BINDING AFFINITY PREDICTED BY RF-SCORE:    0.00 PKD
ROOT
HETATM    1  C   UNL     1      -9.007   8.906  69.470  1.00  0.00    -0.145 C  
HETATM    2  C   UNL     1      -9.451   8.246  70.768  1.00  0.00    -0.185 C  
ENDROOT
BRANCH   2   3
HETATM    3  C   UNL     1     -10.969   8.321  70.921  1.00  0.00    -0.275 C  
BRANCH   3   4
HETATM    4  C   UNL     1     -11.429   9.651  71.535  1.00  0.00    -0.439 C  
HETATM    5  C   UNL     1     -12.807  10.107  71.000  1.00  0.00    -0.474 C  
HETATM    6  C   UNL     1     -13.214  11.469  71.589  1.00  0.00    -0.286 C  
HETATM    7  C   UNL     1     -13.941   9.083  71.218  1.00  0.00    -0.195 C  
HETATM    8  C   UNL     1     -14.284   8.792  72.673  1.00  0.00    -0.289 C  
BRANCH   6   9
HETATM    9  O   UNL     1     -12.290  12.526  71.289  1.00  0.00    -0.251 OA 
BRANCH   9  10
HETATM   10  C   UNL     1     -12.845  13.727  70.992  1.00  0.00    -0.305 C  
HETATM   11  O   UNL     1     -13.649  14.338  71.674  1.00  0.00    -0.348 OA 
BRANCH  10  12
HETATM   12  C   UNL     1     -12.273  14.259  69.724  1.00  0.00    -0.390 A  
HETATM   13  C   UNL     1     -11.845  15.581  69.680  1.00  0.00    -0.384 A  
HETATM   14  C   UNL     1     -11.245  16.098  68.517  1.00  0.00    -0.365 A  
HETATM   15  C   UNL     1     -11.050  15.324  67.359  1.00  0.00    -0.326 A  
HETATM   16  C   UNL     1     -11.509  13.994  67.436  1.00  0.00    -0.373 A  
HETATM   17  C   UNL     1     -12.096  13.462  68.592  1.00  0.00    -0.281 A  
BRANCH  15  18
HETATM   18  N   UNL     1     -10.524  15.840  66.180  1.00  0.00    -0.305 NA 
HETATM   19  C   UNL     1     -11.023  15.391  64.879  1.00  0.00    -0.437 C  
HETATM   20  C   UNL     1      -9.174  16.396  66.132  1.00  0.00    -0.330 C  
ENDBRANCH  15  18
ENDBRANCH  10  12
ENDBRANCH   9  10
ENDBRANCH   6   9
ENDBRANCH   3   4
ENDBRANCH   2   3
TORSDOF 6
ENDMDL
MODEL       90
REMARK 921   NORMALIZED FREE ENERGY PREDICTED BY IDOCK:   -4.71 KCAL/MOL
REMARK 922        TOTAL FREE ENERGY PREDICTED BY IDOCK:   -6.95 KCAL/MOL
REMARK 923 INTER-LIGAND FREE ENERGY PREDICTED BY IDOCK:   -6.02 KCAL/MOL
REMARK 924 INTRA-LIGAND FREE ENERGY PREDICTED BY IDOCK:   -0.94 KCAL/MOL
REMARK 927      BINDING AFFINITY PREDICTED BY RF-SCORE:    0.00 PKD
ROOT
HETATM    1  C   UNL     1     -10.503   7.531  73.346  1.00  0.00    -0.404 C  
HETATM    2  C   UNL     1     -11.585   7.600  72.278  1.00  0.00    -0.370 C  
ENDROOT
BRANCH   2   3
HETATM    3  C   UNL     1     -11.701   6.267  71.538  1.00  0.00    -0.329 C  
BRANCH   3   4
HETATM    4  C   UNL     1     -11.501   6.421  70.024  1.00  0.00    -0.496 C  
HETATM    5  C   UNL     1     -10.093   6.950  69.662  1.00  0.00    -0.195 C  
HETATM    6  C   UNL     1      -9.942   7.148  68.144  1.00  0.00    -0.151 C  
HETATM    7  C   UNL     1      -8.934   6.081  70.194  1.00  0.00    -0.150 C  
HETATM    8  C   UNL     1      -8.863   4.672  69.621  1.00  0.00    -0.121 C  
BRANCH   6   9
HETATM    9  O   UNL     1     -10.883   8.080  67.588  1.00  0.00    -0.170 OA 
BRANCH   9  10
HETATM   10  C   UNL     1     -10.349   9.188  67.019  1.00  0.00    -0.263 C  
HETATM   11  O   UNL     1      -9.597   9.215  66.059  1.00  0.00    -0.236 OA 
BRANCH  10  12
HETATM   12  C   UNL     1     -10.873  10.412  67.684  1.00  0.00    -0.361 A  
HETATM   13  C   UNL     1     -11.122  10.383  69.052  1.00  0.00    -0.297 A  
HETATM   14  C   UNL     1     -11.561  11.539  69.723  1.00  0.00    -0.401 A  
HETATM   15  C   UNL     1     -11.770  12.763  69.061  1.00  0.00    -0.323 A  
HETATM   16  C   UNL     1     -11.522  12.751  67.674  1.00  0.00    -0.387 A  
HETATM   17  C   UNL     1     -11.072  11.610  66.996  1.00  0.00    -0.359 A  
BRANCH  15  18
HETATM   18  N   UNL     1     -12.271  13.893  69.696  1.00  0.00    -0.338 NA 
HETATM   19  C   UNL     1     -11.916  15.234  69.226  1.00  0.00    -0.299 C  
HETATM   20  C   UNL     1     -12.695  13.853  71.094  1.00  0.00    -0.367 C  
ENDBRANCH  15  18
ENDBRANCH  10  12
ENDBRANCH   9  10
ENDBRANCH   6   9
ENDBRANCH   3   4
ENDBRANCH   2   3
TORSDOF 6
ENDMDL
MODEL       91
REMARK 921   NORMALIZED FREE ENERGY PREDICTED BY IDOCK:   -4.70 KCAL/MOL
REMARK 922        TOTAL FREE ENERGY PREDICTED BY IDOCK:   -6.94 KCAL/MOL
REMARK 923 INTER-LIGAND FREE ENERGY PREDICTED BY IDOCK:   -6.19 KCAL/MOL
REMARK 924 INTRA-LIGAND FREE ENERGY PREDICTED BY IDOCK:   -0.74 KCAL/MOL
REMARK 927      BINDING AFFINITY PREDICTED BY RF-SCORE:    0.00 PKD
ROOT
HETATM    1  C   UNL     1      -6.463  20.982  67.105  1.00  0.00    -0.411 C  
HETATM    2  C   UNL     1      -5.807  20.519  65.814  1.00  0.00    -0.237 C  
ENDROOT
BRANCH   2   3
HETATM    3  C   UNL     1      -6.496  19.265  65.275  1.00  0.00    -0.307 C  
BRANCH   3   4
HETATM    4  C   UNL     1      -7.428  18.621  66.311  1.00  0.00    -0.288 C  
HETATM    5  C   UNL     1      -7.029  17.164  66.645  1.00  0.00    -0.285 C  
HETATM    6  C   UNL     1      -8.013  16.527  67.641  1.00  0.00    -0.163 C  
HETATM    7  C   UNL     1      -5.584  17.008  67.164  1.00  0.00    -0.195 C  
HETATM    8  C   UNL     1      -5.293  17.693  68.493  1.00  0.00    -0.150 C  
BRANCH   6   9
HETATM    9  O   UNL     1      -9.366  16.479  67.162  1.00  0.00    -0.227 OA 
BRANCH   9  10
HETATM   10  C   UNL     1      -9.898  15.240  67.024  1.00  0.00    -0.229 C  
HETATM   11  O   UNL     1      -9.623  14.430  66.155  1.00  0.00    -0.297 OA 
BRANCH  10  12
HETATM   12  C   UNL     1     -10.834  14.953  68.145  1.00  0.00    -0.256 A  
HETATM   13  C   UNL     1     -11.197  13.635  68.401  1.00  0.00    -0.306 A  
HETATM   14  C   UNL     1     -12.032  13.323  69.490  1.00  0.00    -0.366 A  
HETATM   15  C   UNL     1     -12.535  14.305  70.361  1.00  0.00    -0.362 A  
HETATM   16  C   UNL     1     -12.158  15.630  70.064  1.00  0.00    -0.379 A  
HETATM   17  C   UNL     1     -11.317  15.953  68.990  1.00  0.00    -0.371 A  
BRANCH  15  18
HETATM   18  N   UNL     1     -13.417  14.021  71.398  1.00  0.00    -0.318 NA 
HETATM   19  C   UNL     1     -14.134  15.096  72.086  1.00  0.00    -0.554 C  
HETATM   20  C   UNL     1     -13.288  12.799  72.189  1.00  0.00    -0.492 C  
ENDBRANCH  15  18
ENDBRANCH  10  12
ENDBRANCH   9  10
ENDBRANCH   6   9
ENDBRANCH   3   4
ENDBRANCH   2   3
TORSDOF 6
ENDMDL
MODEL       92
REMARK 921   NORMALIZED FREE ENERGY PREDICTED BY IDOCK:   -4.70 KCAL/MOL
REMARK 922        TOTAL FREE ENERGY PREDICTED BY IDOCK:   -6.93 KCAL/MOL
REMARK 923 INTER-LIGAND FREE ENERGY PREDICTED BY IDOCK:   -5.94 KCAL/MOL
REMARK 924 INTRA-LIGAND FREE ENERGY PREDICTED BY IDOCK:   -0.99 KCAL/MOL
REMARK 927      BINDING AFFINITY PREDICTED BY RF-SCORE:    0.00 PKD
ROOT
HETATM    1  C   UNL     1     -10.311   5.808  66.723  1.00  0.00    -0.312 C  
HETATM    2  C   UNL     1     -10.611   7.211  67.230  1.00  0.00    -0.398 C  
ENDROOT
BRANCH   2   3
HETATM    3  C   UNL     1      -9.740   8.243  66.514  1.00  0.00    -0.323 C  
BRANCH   3   4
HETATM    4  C   UNL     1     -10.483   9.563  66.267  1.00  0.00    -0.137 C  
HETATM    5  C   UNL     1      -9.523  10.742  65.983  1.00  0.00    -0.230 C  
HETATM    6  C   UNL     1     -10.292  12.061  65.797  1.00  0.00    -0.254 C  
HETATM    7  C   UNL     1      -8.578  10.513  64.784  1.00  0.00    -0.173 C  
HETATM    8  C   UNL     1      -9.266  10.377  63.432  1.00  0.00    -0.311 C  
BRANCH   6   9
HETATM    9  O   UNL     1     -11.073  12.438  66.942  1.00  0.00    -0.260 OA 
BRANCH   9  10
HETATM   10  C   UNL     1     -10.376  12.653  68.085  1.00  0.00    -0.234 C  
HETATM   11  O   UNL     1      -9.529  13.512  68.263  1.00  0.00    -0.209 OA 
BRANCH  10  12
HETATM   12  C   UNL     1     -10.845  11.730  69.154  1.00  0.00    -0.221 A  
HETATM   13  C   UNL     1     -12.099  11.934  69.720  1.00  0.00    -0.321 A  
HETATM   14  C   UNL     1     -12.598  11.045  70.690  1.00  0.00    -0.427 A  
HETATM   15  C   UNL     1     -11.871   9.926  71.134  1.00  0.00    -0.386 A  
HETATM   16  C   UNL     1     -10.600   9.759  70.550  1.00  0.00    -0.376 A  
HETATM   17  C   UNL     1     -10.096  10.629  69.573  1.00  0.00    -0.164 A  
BRANCH  15  18
HETATM   18  N   UNL     1     -12.320   9.080  72.142  1.00  0.00    -0.377 NA 
HETATM   19  C   UNL     1     -11.543   7.900  72.529  1.00  0.00    -0.386 C  
HETATM   20  C   UNL     1     -13.739   8.986  72.478  1.00  0.00    -0.436 C  
ENDBRANCH  15  18
ENDBRANCH  10  12
ENDBRANCH   9  10
ENDBRANCH   6   9
ENDBRANCH   3   4
ENDBRANCH   2   3
TORSDOF 6
ENDMDL
MODEL       93
REMARK 921   NORMALIZED FREE ENERGY PREDICTED BY IDOCK:   -4.68 KCAL/MOL
REMARK 922        TOTAL FREE ENERGY PREDICTED BY IDOCK:   -6.90 KCAL/MOL
REMARK 923 INTER-LIGAND FREE ENERGY PREDICTED BY IDOCK:   -6.34 KCAL/MOL
REMARK 924 INTRA-LIGAND FREE ENERGY PREDICTED BY IDOCK:   -0.56 KCAL/MOL
REMARK 927      BINDING AFFINITY PREDICTED BY RF-SCORE:    0.00 PKD
ROOT
HETATM    1  C   UNL     1      -5.376  20.287  64.336  1.00  0.00    -0.215 C  
HETATM    2  C   UNL     1      -6.760  20.409  64.956  1.00  0.00    -0.310 C  
ENDROOT
BRANCH   2   3
HETATM    3  C   UNL     1      -6.659  20.621  66.467  1.00  0.00    -0.317 C  
BRANCH   3   4
HETATM    4  C   UNL     1      -7.641  19.737  67.247  1.00  0.00    -0.290 C  
HETATM    5  C   UNL     1      -6.942  18.548  67.947  1.00  0.00    -0.227 C  
HETATM    6  C   UNL     1      -7.957  17.648  68.673  1.00  0.00    -0.275 C  
HETATM    7  C   UNL     1      -5.819  18.960  68.923  1.00  0.00    -0.228 C  
HETATM    8  C   UNL     1      -6.271  19.774  70.128  1.00  0.00    -0.342 C  
BRANCH   6   9
HETATM    9  O   UNL     1      -8.949  17.082  67.802  1.00  0.00    -0.219 OA 
BRANCH   9  10
HETATM   10  C   UNL     1     -10.239  17.315  68.149  1.00  0.00    -0.343 C  
HETATM   11  O   UNL     1     -10.879  18.325  67.909  1.00  0.00    -0.363 OA 
BRANCH  10  12
HETATM   12  C   UNL     1     -10.819  16.115  68.812  1.00  0.00    -0.310 A  
HETATM   13  C   UNL     1     -11.019  16.134  70.188  1.00  0.00    -0.359 A  
HETATM   14  C   UNL     1     -11.620  15.041  70.838  1.00  0.00    -0.364 A  
HETATM   15  C   UNL     1     -12.042  13.890  70.147  1.00  0.00    -0.349 A  
HETATM   16  C   UNL     1     -11.810  13.900  68.757  1.00  0.00    -0.396 A  
HETATM   17  C   UNL     1     -11.225  14.988  68.095  1.00  0.00    -0.316 A  
BRANCH  15  18
HETATM   18  N   UNL     1     -12.571  12.774  70.783  1.00  0.00    -0.276 NA 
HETATM   19  C   UNL     1     -13.223  12.896  72.089  1.00  0.00    -0.448 C  
HETATM   20  C   UNL     1     -12.071  11.431  70.499  1.00  0.00    -0.394 C  
ENDBRANCH  15  18
ENDBRANCH  10  12
ENDBRANCH   9  10
ENDBRANCH   6   9
ENDBRANCH   3   4
ENDBRANCH   2   3
TORSDOF 6
ENDMDL
MODEL       94
REMARK 921   NORMALIZED FREE ENERGY PREDICTED BY IDOCK:   -4.68 KCAL/MOL
REMARK 922        TOTAL FREE ENERGY PREDICTED BY IDOCK:   -6.90 KCAL/MOL
REMARK 923 INTER-LIGAND FREE ENERGY PREDICTED BY IDOCK:   -6.60 KCAL/MOL
REMARK 924 INTRA-LIGAND FREE ENERGY PREDICTED BY IDOCK:   -0.30 KCAL/MOL
REMARK 927      BINDING AFFINITY PREDICTED BY RF-SCORE:    0.00 PKD
ROOT
HETATM    1  C   UNL     1     -11.690   6.565  70.903  1.00  0.00    -0.416 C  
HETATM    2  C   UNL     1     -10.927   7.623  70.120  1.00  0.00    -0.255 C  
ENDROOT
BRANCH   2   3
HETATM    3  C   UNL     1     -10.493   8.767  71.036  1.00  0.00    -0.293 C  
BRANCH   3   4
HETATM    4  C   UNL     1     -10.623  10.138  70.359  1.00  0.00    -0.287 C  
HETATM    5  C   UNL     1     -12.026  10.368  69.748  1.00  0.00    -0.242 C  
HETATM    6  C   UNL     1     -12.109  11.724  69.027  1.00  0.00    -0.214 C  
HETATM    7  C   UNL     1     -13.185  10.241  70.759  1.00  0.00    -0.283 C  
HETATM    8  C   UNL     1     -13.190  11.276  71.875  1.00  0.00    -0.491 C  
BRANCH   6   9
HETATM    9  O   UNL     1     -11.167  11.864  67.952  1.00  0.00    -0.227 OA 
BRANCH   9  10
HETATM   10  C   UNL     1     -11.599  12.570  66.878  1.00  0.00    -0.370 C  
HETATM   11  O   UNL     1     -12.299  12.149  65.972  1.00  0.00    -0.550 OA 
BRANCH  10  12
HETATM   12  C   UNL     1     -11.163  13.989  66.986  1.00  0.00    -0.325 A  
HETATM   13  C   UNL     1     -11.690  14.781  68.001  1.00  0.00    -0.360 A  
HETATM   14  C   UNL     1     -11.255  16.109  68.168  1.00  0.00    -0.311 A  
HETATM   15  C   UNL     1     -10.286  16.697  67.336  1.00  0.00    -0.286 A  
HETATM   16  C   UNL     1      -9.786  15.870  66.310  1.00  0.00    -0.332 A  
HETATM   17  C   UNL     1     -10.200  14.541  66.141  1.00  0.00    -0.317 A  
BRANCH  15  18
HETATM   18  N   UNL     1      -9.898  18.027  67.444  1.00  0.00    -0.299 NA 
HETATM   19  C   UNL     1     -10.336  19.017  66.457  1.00  0.00    -0.439 C  
HETATM   20  C   UNL     1      -8.680  18.407  68.156  1.00  0.00    -0.302 C  
ENDBRANCH  15  18
ENDBRANCH  10  12
ENDBRANCH   9  10
ENDBRANCH   6   9
ENDBRANCH   3   4
ENDBRANCH   2   3
TORSDOF 6
ENDMDL
MODEL       95
REMARK 921   NORMALIZED FREE ENERGY PREDICTED BY IDOCK:   -4.65 KCAL/MOL
REMARK 922        TOTAL FREE ENERGY PREDICTED BY IDOCK:   -6.86 KCAL/MOL
REMARK 923 INTER-LIGAND FREE ENERGY PREDICTED BY IDOCK:   -6.04 KCAL/MOL
REMARK 924 INTRA-LIGAND FREE ENERGY PREDICTED BY IDOCK:   -0.82 KCAL/MOL
REMARK 927      BINDING AFFINITY PREDICTED BY RF-SCORE:    0.00 PKD
ROOT
HETATM    1  C   UNL     1     -12.400  12.033  63.353  1.00  0.00    -0.635 C  
HETATM    2  C   UNL     1     -10.929  12.321  63.612  1.00  0.00    -0.532 C  
ENDROOT
BRANCH   2   3
HETATM    3  C   UNL     1     -10.769  13.368  64.714  1.00  0.00    -0.403 C  
BRANCH   3   4
HETATM    4  C   UNL     1     -11.554  13.006  65.982  1.00  0.00    -0.409 C  
HETATM    5  C   UNL     1     -10.703  13.139  67.267  1.00  0.00    -0.262 C  
HETATM    6  C   UNL     1     -11.499  12.716  68.514  1.00  0.00    -0.311 C  
HETATM    7  C   UNL     1     -10.101  14.544  67.483  1.00  0.00    -0.228 C  
HETATM    8  C   UNL     1     -11.114  15.660  67.698  1.00  0.00    -0.305 C  
BRANCH   6   9
HETATM    9  O   UNL     1     -11.959  11.356  68.468  1.00  0.00    -0.498 OA 
BRANCH   9  10
HETATM   10  C   UNL     1     -11.306  10.486  69.278  1.00  0.00    -0.262 C  
HETATM   11  O   UNL     1     -11.214  10.561  70.492  1.00  0.00    -0.314 OA 
BRANCH  10  12
HETATM   12  C   UNL     1     -10.763   9.350  68.483  1.00  0.00    -0.203 A  
HETATM   13  C   UNL     1     -10.783   8.073  69.032  1.00  0.00    -0.107 A  
HETATM   14  C   UNL     1     -10.333   6.968  68.285  1.00  0.00    -0.223 A  
HETATM   15  C   UNL     1      -9.847   7.092  66.971  1.00  0.00    -0.198 A  
HETATM   16  C   UNL     1      -9.829   8.403  66.453  1.00  0.00    -0.310 A  
HETATM   17  C   UNL     1     -10.286   9.510  67.181  1.00  0.00    -0.320 A  
BRANCH  15  18
HETATM   18  N   UNL     1      -9.334   6.023  66.246  1.00  0.00    -0.159 NA 
HETATM   19  C   UNL     1     -10.047   4.745  66.193  1.00  0.00    -0.262 C  
HETATM   20  C   UNL     1      -7.903   5.910  65.972  1.00  0.00    -0.105 C  
ENDBRANCH  15  18
ENDBRANCH  10  12
ENDBRANCH   9  10
ENDBRANCH   6   9
ENDBRANCH   3   4
ENDBRANCH   2   3
TORSDOF 6
ENDMDL
MODEL       96
REMARK 921   NORMALIZED FREE ENERGY PREDICTED BY IDOCK:   -4.61 KCAL/MOL
REMARK 922        TOTAL FREE ENERGY PREDICTED BY IDOCK:   -6.82 KCAL/MOL
REMARK 923 INTER-LIGAND FREE ENERGY PREDICTED BY IDOCK:   -5.94 KCAL/MOL
REMARK 924 INTRA-LIGAND FREE ENERGY PREDICTED BY IDOCK:   -0.88 KCAL/MOL
REMARK 927      BINDING AFFINITY PREDICTED BY RF-SCORE:    0.00 PKD
ROOT
HETATM    1  C   UNL     1     -12.927   9.692  72.114  1.00  0.00    -0.493 C  
HETATM    2  C   UNL     1     -13.880   8.675  71.504  1.00  0.00    -0.384 C  
ENDROOT
BRANCH   2   3
HETATM    3  C   UNL     1     -13.336   7.257  71.665  1.00  0.00    -0.421 C  
BRANCH   3   4
HETATM    4  C   UNL     1     -12.015   7.049  70.911  1.00  0.00    -0.409 C  
HETATM    5  C   UNL     1     -10.777   7.239  71.818  1.00  0.00    -0.243 C  
HETATM    6  C   UNL     1      -9.469   7.081  71.023  1.00  0.00    -0.159 C  
HETATM    7  C   UNL     1     -10.751   6.315  73.055  1.00  0.00    -0.278 C  
HETATM    8  C   UNL     1     -10.655   4.826  72.751  1.00  0.00    -0.272 C  
BRANCH   6   9
HETATM    9  O   UNL     1      -9.334   8.022  69.946  1.00  0.00    -0.156 OA 
BRANCH   9  10
HETATM   10  C   UNL     1      -9.008   9.288  70.307  1.00  0.00    -0.229 C  
HETATM   11  O   UNL     1      -8.242   9.609  71.199  1.00  0.00    -0.239 OA 
BRANCH  10  12
HETATM   12  C   UNL     1      -9.665  10.267  69.398  1.00  0.00    -0.242 A  
HETATM   13  C   UNL     1      -8.874  11.164  68.688  1.00  0.00    -0.155 A  
HETATM   14  C   UNL     1      -9.457  12.062  67.775  1.00  0.00    -0.190 A  
HETATM   15  C   UNL     1     -10.842  12.104  67.537  1.00  0.00    -0.243 A  
HETATM   16  C   UNL     1     -11.613  11.192  68.285  1.00  0.00    -0.359 A  
HETATM   17  C   UNL     1     -11.044  10.282  69.187  1.00  0.00    -0.283 A  
BRANCH  15  18
HETATM   18  N   UNL     1     -11.440  13.033  66.693  1.00  0.00    -0.319 NA 
HETATM   19  C   UNL     1     -11.858  14.342  67.197  1.00  0.00    -0.410 C  
HETATM   20  C   UNL     1     -12.148  12.614  65.485  1.00  0.00    -0.458 C  
ENDBRANCH  15  18
ENDBRANCH  10  12
ENDBRANCH   9  10
ENDBRANCH   6   9
ENDBRANCH   3   4
ENDBRANCH   2   3
TORSDOF 6
ENDMDL
MODEL       97
REMARK 921   NORMALIZED FREE ENERGY PREDICTED BY IDOCK:   -4.60 KCAL/MOL
REMARK 922        TOTAL FREE ENERGY PREDICTED BY IDOCK:   -6.81 KCAL/MOL
REMARK 923 INTER-LIGAND FREE ENERGY PREDICTED BY IDOCK:   -5.78 KCAL/MOL
REMARK 924 INTRA-LIGAND FREE ENERGY PREDICTED BY IDOCK:   -1.03 KCAL/MOL
REMARK 927      BINDING AFFINITY PREDICTED BY RF-SCORE:    0.00 PKD
ROOT
HETATM    1  C   UNL     1     -12.507  12.152  63.353  1.00  0.00    -0.625 C  
HETATM    2  C   UNL     1     -11.607  13.327  63.708  1.00  0.00    -0.427 C  
ENDROOT
BRANCH   2   3
HETATM    3  C   UNL     1     -12.230  14.170  64.819  1.00  0.00    -0.457 C  
BRANCH   3   4
HETATM    4  C   UNL     1     -12.526  13.347  66.081  1.00  0.00    -0.389 C  
HETATM    5  C   UNL     1     -11.316  13.279  67.043  1.00  0.00    -0.346 C  
HETATM    6  C   UNL     1     -11.622  12.402  68.268  1.00  0.00    -0.333 C  
HETATM    7  C   UNL     1     -10.796  14.658  67.503  1.00  0.00    -0.286 C  
HETATM    8  C   UNL     1     -11.775  15.476  68.335  1.00  0.00    -0.323 C  
BRANCH   6   9
HETATM    9  O   UNL     1     -11.955  11.045  67.936  1.00  0.00    -0.620 OA 
BRANCH   9  10
HETATM   10  C   UNL     1     -11.035  10.111  68.283  1.00  0.00    -0.248 C  
HETATM   11  O   UNL     1     -10.983   9.507  69.341  1.00  0.00    -0.230 OA 
BRANCH  10  12
HETATM   12  C   UNL     1     -10.113   9.849  67.144  1.00  0.00    -0.270 A  
HETATM   13  C   UNL     1     -10.518  10.186  65.857  1.00  0.00    -0.141 A  
HETATM   14  C   UNL     1      -9.648  10.008  64.765  1.00  0.00    -0.374 A  
HETATM   15  C   UNL     1      -8.349   9.488  64.911  1.00  0.00    -0.146 A  
HETATM   16  C   UNL     1      -7.979   9.144  66.227  1.00  0.00    -0.103 A  
HETATM   17  C   UNL     1      -8.830   9.330  67.325  1.00  0.00    -0.132 A  
BRANCH  15  18
HETATM   18  N   UNL     1      -7.505   9.240  63.835  1.00  0.00    -0.107 NA 
HETATM   19  C   UNL     1      -7.363  10.218  62.755  1.00  0.00    -0.140 C  
HETATM   20  C   UNL     1      -7.157   7.876  63.443  1.00  0.00    -0.079 C  
ENDBRANCH  15  18
ENDBRANCH  10  12
ENDBRANCH   9  10
ENDBRANCH   6   9
ENDBRANCH   3   4
ENDBRANCH   2   3
TORSDOF 6
ENDMDL
MODEL       98
REMARK 921   NORMALIZED FREE ENERGY PREDICTED BY IDOCK:   -4.60 KCAL/MOL
REMARK 922        TOTAL FREE ENERGY PREDICTED BY IDOCK:   -6.80 KCAL/MOL
REMARK 923 INTER-LIGAND FREE ENERGY PREDICTED BY IDOCK:   -5.44 KCAL/MOL
REMARK 924 INTRA-LIGAND FREE ENERGY PREDICTED BY IDOCK:   -1.36 KCAL/MOL
REMARK 927      BINDING AFFINITY PREDICTED BY RF-SCORE:    0.00 PKD
ROOT
HETATM    1  C   UNL     1     -11.231   6.320  69.017  1.00  0.00    -0.415 C  
HETATM    2  C   UNL     1     -10.118   5.592  68.278  1.00  0.00    -0.226 C  
ENDROOT
BRANCH   2   3
HETATM    3  C   UNL     1      -9.618   4.398  69.091  1.00  0.00    -0.252 C  
BRANCH   3   4
HETATM    4  C   UNL     1      -8.881   4.830  70.366  1.00  0.00    -0.138 C  
HETATM    5  C   UNL     1      -9.534   4.265  71.650  1.00  0.00    -0.211 C  
HETATM    6  C   UNL     1      -8.809   4.760  72.913  1.00  0.00    -0.116 C  
HETATM    7  C   UNL     1      -9.644   2.725  71.679  1.00  0.00    -0.222 C  
HETATM    8  C   UNL     1      -8.317   1.979  71.685  1.00  0.00    -0.066 C  
BRANCH   6   9
HETATM    9  O   UNL     1      -8.805   6.189  73.053  1.00  0.00    -0.126 OA 
BRANCH   9  10
HETATM   10  C   UNL     1      -9.960   6.740  73.502  1.00  0.00    -0.243 C  
HETATM   11  O   UNL     1     -10.521   6.482  74.553  1.00  0.00    -0.275 OA 
BRANCH  10  12
HETATM   12  C   UNL     1     -10.431   7.789  72.557  1.00  0.00    -0.343 A  
HETATM   13  C   UNL     1     -11.776   8.144  72.559  1.00  0.00    -0.457 A  
HETATM   14  C   UNL     1     -12.244   9.173  71.722  1.00  0.00    -0.442 A  
HETATM   15  C   UNL     1     -11.397   9.885  70.853  1.00  0.00    -0.370 A  
HETATM   16  C   UNL     1     -10.044   9.488  70.868  1.00  0.00    -0.330 A  
HETATM   17  C   UNL     1      -9.562   8.474  71.707  1.00  0.00    -0.337 A  
BRANCH  15  18
HETATM   18  N   UNL     1     -11.856  10.854  69.970  1.00  0.00    -0.315 NA 
HETATM   19  C   UNL     1     -11.607  10.734  68.532  1.00  0.00    -0.255 C  
HETATM   20  C   UNL     1     -12.105  12.225  70.411  1.00  0.00    -0.300 C  
ENDBRANCH  15  18
ENDBRANCH  10  12
ENDBRANCH   9  10
ENDBRANCH   6   9
ENDBRANCH   3   4
ENDBRANCH   2   3
TORSDOF 6
ENDMDL
MODEL       99
REMARK 921   NORMALIZED FREE ENERGY PREDICTED BY IDOCK:   -4.60 KCAL/MOL
REMARK 922        TOTAL FREE ENERGY PREDICTED BY IDOCK:   -6.80 KCAL/MOL
REMARK 923 INTER-LIGAND FREE ENERGY PREDICTED BY IDOCK:   -5.60 KCAL/MOL
REMARK 924 INTRA-LIGAND FREE ENERGY PREDICTED BY IDOCK:   -1.20 KCAL/MOL
REMARK 927      BINDING AFFINITY PREDICTED BY RF-SCORE:    0.00 PKD
ROOT
HETATM    1  C   UNL     1     -11.728  16.087  69.455  1.00  0.00    -0.275 C  
HETATM    2  C   UNL     1     -12.513  14.945  70.085  1.00  0.00    -0.353 C  
ENDROOT
BRANCH   2   3
HETATM    3  C   UNL     1     -12.060  13.600  69.519  1.00  0.00    -0.368 C  
BRANCH   3   4
HETATM    4  C   UNL     1     -10.743  13.708  68.739  1.00  0.00    -0.265 C  
HETATM    5  C   UNL     1     -10.285  12.351  68.154  1.00  0.00    -0.225 C  
HETATM    6  C   UNL     1      -8.935  12.479  67.428  1.00  0.00    -0.188 C  
HETATM    7  C   UNL     1     -11.319  11.683  67.222  1.00  0.00    -0.372 C  
HETATM    8  C   UNL     1     -11.634  12.451  65.945  1.00  0.00    -0.449 C  
BRANCH   6   9
HETATM    9  O   UNL     1      -7.869  12.940  68.272  1.00  0.00    -0.129 OA 
BRANCH   9  10
HETATM   10  C   UNL     1      -7.007  13.820  67.706  1.00  0.00    -0.171 C  
HETATM   11  O   UNL     1      -5.925  13.553  67.210  1.00  0.00    -0.339 OA 
BRANCH  10  12
HETATM   12  C   UNL     1      -7.599  15.185  67.694  1.00  0.00    -0.194 A  
HETATM   13  C   UNL     1      -7.966  15.752  66.478  1.00  0.00    -0.172 A  
HETATM   14  C   UNL     1      -8.583  17.016  66.437  1.00  0.00    -0.311 A  
HETATM   15  C   UNL     1      -8.856  17.762  67.598  1.00  0.00    -0.248 A  
HETATM   16  C   UNL     1      -8.458  17.163  68.810  1.00  0.00    -0.225 A  
HETATM   17  C   UNL     1      -7.854  15.899  68.867  1.00  0.00    -0.198 A  
BRANCH  15  18
HETATM   18  N   UNL     1      -9.400  19.041  67.568  1.00  0.00    -0.295 NA 
HETATM   19  C   UNL     1     -10.784  19.255  67.143  1.00  0.00    -0.480 C  
HETATM   20  C   UNL     1      -8.551  20.222  67.428  1.00  0.00    -0.343 C  
ENDBRANCH  15  18
ENDBRANCH  10  12
ENDBRANCH   9  10
ENDBRANCH   6   9
ENDBRANCH   3   4
ENDBRANCH   2   3
TORSDOF 6
ENDMDL
MODEL      100
REMARK 921   NORMALIZED FREE ENERGY PREDICTED BY IDOCK:   -4.59 KCAL/MOL
REMARK 922        TOTAL FREE ENERGY PREDICTED BY IDOCK:   -6.78 KCAL/MOL
REMARK 923 INTER-LIGAND FREE ENERGY PREDICTED BY IDOCK:   -5.83 KCAL/MOL
REMARK 924 INTRA-LIGAND FREE ENERGY PREDICTED BY IDOCK:   -0.96 KCAL/MOL
REMARK 927      BINDING AFFINITY PREDICTED BY RF-SCORE:    0.00 PKD
ROOT
HETATM    1  C   UNL     1      -7.303  11.774  67.587  1.00  0.00    -0.119 C  
HETATM    2  C   UNL     1      -7.167  13.285  67.464  1.00  0.00    -0.157 C  
ENDROOT
BRANCH   2   3
HETATM    3  C   UNL     1      -8.321  13.992  68.173  1.00  0.00    -0.164 C  
BRANCH   3   4
HETATM    4  C   UNL     1      -9.663  13.777  67.461  1.00  0.00    -0.230 C  
HETATM    5  C   UNL     1     -10.838  13.591  68.450  1.00  0.00    -0.286 C  
HETATM    6  C   UNL     1     -12.159  13.321  67.709  1.00  0.00    -0.237 C  
HETATM    7  C   UNL     1     -11.023  14.762  69.439  1.00  0.00    -0.282 C  
HETATM    8  C   UNL     1     -11.396  16.096  68.804  1.00  0.00    -0.359 C  
BRANCH   6   9
HETATM    9  O   UNL     1     -12.127  12.143  66.888  1.00  0.00    -0.600 OA 
BRANCH   9  10
HETATM   10  C   UNL     1     -12.034  12.359  65.553  1.00  0.00    -0.391 C  
HETATM   11  O   UNL     1     -12.707  13.138  64.899  1.00  0.00    -0.639 OA 
BRANCH  10  12
HETATM   12  C   UNL     1     -10.920  11.556  64.978  1.00  0.00    -0.305 A  
HETATM   13  C   UNL     1     -10.347  10.549  65.747  1.00  0.00    -0.270 A  
HETATM   14  C   UNL     1      -9.333   9.733  65.214  1.00  0.00    -0.315 A  
HETATM   15  C   UNL     1      -8.850   9.888  63.902  1.00  0.00    -0.227 A  
HETATM   16  C   UNL     1      -9.443  10.927  63.158  1.00  0.00    -0.361 A  
HETATM   17  C   UNL     1     -10.463  11.739  63.672  1.00  0.00    -0.490 A  
BRANCH  15  18
HETATM   18  N   UNL     1      -7.801   9.137  63.385  1.00  0.00    -0.125 NA 
HETATM   19  C   UNL     1      -6.438   9.672  63.361  1.00  0.00    -0.108 C  
HETATM   20  C   UNL     1      -8.036   8.082  62.401  1.00  0.00    -0.163 C  
ENDBRANCH  15  18
ENDBRANCH  10  12
ENDBRANCH   9  10
ENDBRANCH   6   9
ENDBRANCH   3   4
ENDBRANCH   2   3
TORSDOF 6
ENDMDL
MODEL      101
REMARK 921   NORMALIZED FREE ENERGY PREDICTED BY IDOCK:   -4.58 KCAL/MOL
REMARK 922        TOTAL FREE ENERGY PREDICTED BY IDOCK:   -6.77 KCAL/MOL
REMARK 923 INTER-LIGAND FREE ENERGY PREDICTED BY IDOCK:   -6.51 KCAL/MOL
REMARK 924 INTRA-LIGAND FREE ENERGY PREDICTED BY IDOCK:   -0.26 KCAL/MOL
REMARK 927      BINDING AFFINITY PREDICTED BY RF-SCORE:    0.00 PKD
ROOT
HETATM    1  C   UNL     1     -11.879  16.092  69.285  1.00  0.00    -0.264 C  
HETATM    2  C   UNL     1     -11.241  15.882  67.920  1.00  0.00    -0.297 C  
ENDROOT
BRANCH   2   3
HETATM    3  C   UNL     1     -11.782  14.615  67.258  1.00  0.00    -0.406 C  
BRANCH   3   4
HETATM    4  C   UNL     1     -11.637  13.379  68.157  1.00  0.00    -0.376 C  
HETATM    5  C   UNL     1     -11.591  12.060  67.351  1.00  0.00    -0.388 C  
HETATM    6  C   UNL     1     -11.504  10.837  68.280  1.00  0.00    -0.280 C  
HETATM    7  C   UNL     1     -10.463  12.000  66.300  1.00  0.00    -0.273 C  
HETATM    8  C   UNL     1      -9.048  12.037  66.862  1.00  0.00    -0.196 C  
BRANCH   6   9
HETATM    9  O   UNL     1     -12.611  10.723  69.188  1.00  0.00    -0.312 OA 
BRANCH   9  10
HETATM   10  C   UNL     1     -12.346  11.028  70.482  1.00  0.00    -0.373 C  
HETATM   11  O   UNL     1     -12.503  12.114  71.014  1.00  0.00    -0.370 OA 
BRANCH  10  12
HETATM   12  C   UNL     1     -11.898   9.813  71.216  1.00  0.00    -0.481 A  
HETATM   13  C   UNL     1     -12.854   8.966  71.766  1.00  0.00    -0.419 A  
HETATM   14  C   UNL     1     -12.467   7.778  72.414  1.00  0.00    -0.157 A  
HETATM   15  C   UNL     1     -11.121   7.391  72.541  1.00  0.00    -0.304 A  
HETATM   16  C   UNL     1     -10.179   8.280  71.984  1.00  0.00    -0.339 A  
HETATM   17  C   UNL     1     -10.552   9.459  71.324  1.00  0.00    -0.400 A  
BRANCH  15  18
HETATM   18  N   UNL     1     -10.719   6.258  73.239  1.00  0.00    -0.257 NA 
HETATM   19  C   UNL     1     -11.416   4.983  73.062  1.00  0.00    -0.265 C  
HETATM   20  C   UNL     1     -10.001   6.364  74.507  1.00  0.00    -0.351 C  
ENDBRANCH  15  18
ENDBRANCH  10  12
ENDBRANCH   9  10
ENDBRANCH   6   9
ENDBRANCH   3   4
ENDBRANCH   2   3
TORSDOF 6
ENDMDL
MODEL      102
REMARK 921   NORMALIZED FREE ENERGY PREDICTED BY IDOCK:   -4.58 KCAL/MOL
REMARK 922        TOTAL FREE ENERGY PREDICTED BY IDOCK:   -6.77 KCAL/MOL
REMARK 923 INTER-LIGAND FREE ENERGY PREDICTED BY IDOCK:   -6.25 KCAL/MOL
REMARK 924 INTRA-LIGAND FREE ENERGY PREDICTED BY IDOCK:   -0.52 KCAL/MOL
REMARK 927      BINDING AFFINITY PREDICTED BY RF-SCORE:    0.00 PKD
ROOT
HETATM    1  C   UNL     1     -10.378  17.528  67.558  1.00  0.00    -0.356 C  
HETATM    2  C   UNL     1     -10.581  16.884  68.921  1.00  0.00    -0.353 C  
ENDROOT
BRANCH   2   3
HETATM    3  C   UNL     1     -11.582  15.733  68.834  1.00  0.00    -0.400 C  
BRANCH   3   4
HETATM    4  C   UNL     1     -10.896  14.378  68.611  1.00  0.00    -0.260 C  
HETATM    5  C   UNL     1     -11.787  13.382  67.831  1.00  0.00    -0.392 C  
HETATM    6  C   UNL     1     -11.097  12.017  67.673  1.00  0.00    -0.264 C  
HETATM    7  C   UNL     1     -12.251  13.896  66.451  1.00  0.00    -0.487 C  
HETATM    8  C   UNL     1     -11.138  14.135  65.439  1.00  0.00    -0.321 C  
BRANCH   6   9
HETATM    9  O   UNL     1     -10.778  11.385  68.923  1.00  0.00    -0.196 OA 
BRANCH   9  10
HETATM   10  C   UNL     1     -11.802  10.743  69.537  1.00  0.00    -0.308 C  
HETATM   11  O   UNL     1     -12.985  10.844  69.261  1.00  0.00    -0.038 OA 
BRANCH  10  12
HETATM   12  C   UNL     1     -11.278   9.810  70.572  1.00  0.00    -0.381 A  
HETATM   13  C   UNL     1      -9.912   9.557  70.623  1.00  0.00    -0.342 A  
HETATM   14  C   UNL     1      -9.376   8.728  71.625  1.00  0.00    -0.345 A  
HETATM   15  C   UNL     1     -10.176   8.120  72.610  1.00  0.00    -0.318 A  
HETATM   16  C   UNL     1     -11.557   8.388  72.519  1.00  0.00    -0.426 A  
HETATM   17  C   UNL     1     -12.101   9.223  71.534  1.00  0.00    -0.435 A  
BRANCH  15  18
HETATM   18  N   UNL     1      -9.672   7.243  73.563  1.00  0.00    -0.241 NA 
HETATM   19  C   UNL     1      -8.228   7.118  73.775  1.00  0.00    -0.131 C  
HETATM   20  C   UNL     1     -10.433   6.072  73.994  1.00  0.00    -0.258 C  
ENDBRANCH  15  18
ENDBRANCH  10  12
ENDBRANCH   9  10
ENDBRANCH   6   9
ENDBRANCH   3   4
ENDBRANCH   2   3
TORSDOF 6
ENDMDL
MODEL      103
REMARK 921   NORMALIZED FREE ENERGY PREDICTED BY IDOCK:   -4.57 KCAL/MOL
REMARK 922        TOTAL FREE ENERGY PREDICTED BY IDOCK:   -6.76 KCAL/MOL
REMARK 923 INTER-LIGAND FREE ENERGY PREDICTED BY IDOCK:   -5.83 KCAL/MOL
REMARK 924 INTRA-LIGAND FREE ENERGY PREDICTED BY IDOCK:   -0.93 KCAL/MOL
REMARK 927      BINDING AFFINITY PREDICTED BY RF-SCORE:    0.00 PKD
ROOT
HETATM    1  C   UNL     1      -6.439  18.666  65.442  1.00  0.00    -0.299 C  
HETATM    2  C   UNL     1      -5.656  17.588  66.177  1.00  0.00    -0.219 C  
ENDROOT
BRANCH   2   3
HETATM    3  C   UNL     1      -6.601  16.648  66.925  1.00  0.00    -0.242 C  
BRANCH   3   4
HETATM    4  C   UNL     1      -8.074  17.041  66.750  1.00  0.00    -0.277 C  
HETATM    5  C   UNL     1      -8.742  17.450  68.084  1.00  0.00    -0.256 C  
HETATM    6  C   UNL     1     -10.231  17.783  67.888  1.00  0.00    -0.361 C  
HETATM    7  C   UNL     1      -8.037  18.614  68.813  1.00  0.00    -0.307 C  
HETATM    8  C   UNL     1      -8.046  19.945  68.072  1.00  0.00    -0.307 C  
BRANCH   6   9
HETATM    9  O   UNL     1     -11.001  16.689  67.365  1.00  0.00    -0.238 OA 
BRANCH   9  10
HETATM   10  C   UNL     1     -11.349  15.733  68.261  1.00  0.00    -0.354 C  
HETATM   11  O   UNL     1     -11.922  15.913  69.322  1.00  0.00    -0.356 OA 
BRANCH  10  12
HETATM   12  C   UNL     1     -11.004  14.384  67.735  1.00  0.00    -0.283 A  
HETATM   13  C   UNL     1      -9.803  13.797  68.120  1.00  0.00    -0.239 A  
HETATM   14  C   UNL     1      -9.473  12.499  67.689  1.00  0.00    -0.188 A  
HETATM   15  C   UNL     1     -10.319  11.740  66.860  1.00  0.00    -0.217 A  
HETATM   16  C   UNL     1     -11.519  12.372  66.479  1.00  0.00    -0.427 A  
HETATM   17  C   UNL     1     -11.867  13.659  66.912  1.00  0.00    -0.451 A  
BRANCH  15  18
HETATM   18  N   UNL     1      -9.975  10.486  66.369  1.00  0.00    -0.210 NA 
HETATM   19  C   UNL     1      -9.798  10.269  64.932  1.00  0.00    -0.336 C  
HETATM   20  C   UNL     1     -10.288   9.268  67.114  1.00  0.00    -0.260 C  
ENDBRANCH  15  18
ENDBRANCH  10  12
ENDBRANCH   9  10
ENDBRANCH   6   9
ENDBRANCH   3   4
ENDBRANCH   2   3
TORSDOF 6
ENDMDL
MODEL      104
REMARK 921   NORMALIZED FREE ENERGY PREDICTED BY IDOCK:   -4.53 KCAL/MOL
REMARK 922        TOTAL FREE ENERGY PREDICTED BY IDOCK:   -6.71 KCAL/MOL
REMARK 923 INTER-LIGAND FREE ENERGY PREDICTED BY IDOCK:   -5.72 KCAL/MOL
REMARK 924 INTRA-LIGAND FREE ENERGY PREDICTED BY IDOCK:   -0.98 KCAL/MOL
REMARK 927      BINDING AFFINITY PREDICTED BY RF-SCORE:    0.00 PKD
ROOT
HETATM    1  C   UNL     1      -5.374  16.409  67.378  1.00  0.00    -0.158 C  
HETATM    2  C   UNL     1      -6.810  15.972  67.132  1.00  0.00    -0.223 C  
ENDROOT
BRANCH   2   3
HETATM    3  C   UNL     1      -7.570  17.032  66.334  1.00  0.00    -0.350 C  
BRANCH   3   4
HETATM    4  C   UNL     1      -9.076  17.019  66.634  1.00  0.00    -0.278 C  
HETATM    5  C   UNL     1      -9.392  17.383  68.105  1.00  0.00    -0.277 C  
HETATM    6  C   UNL     1     -10.901  17.306  68.390  1.00  0.00    -0.273 C  
HETATM    7  C   UNL     1      -8.844  18.756  68.548  1.00  0.00    -0.378 C  
HETATM    8  C   UNL     1      -9.440  19.957  67.826  1.00  0.00    -0.474 C  
BRANCH   6   9
HETATM    9  O   UNL     1     -11.465  16.005  68.161  1.00  0.00    -0.338 OA 
BRANCH   9  10
HETATM   10  C   UNL     1     -11.716  15.269  69.271  1.00  0.00    -0.338 C  
HETATM   11  O   UNL     1     -12.343  15.633  70.252  1.00  0.00    -0.400 OA 
BRANCH  10  12
HETATM   12  C   UNL     1     -11.181  13.890  69.106  1.00  0.00    -0.311 A  
HETATM   13  C   UNL     1     -11.874  12.825  69.671  1.00  0.00    -0.384 A  
HETATM   14  C   UNL     1     -11.429  11.503  69.483  1.00  0.00    -0.378 A  
HETATM   15  C   UNL     1     -10.281  11.192  68.732  1.00  0.00    -0.206 A  
HETATM   16  C   UNL     1      -9.596  12.297  68.187  1.00  0.00    -0.213 A  
HETATM   17  C   UNL     1     -10.037  13.617  68.355  1.00  0.00    -0.241 A  
BRANCH  15  18
HETATM   18  N   UNL     1      -9.789   9.899  68.597  1.00  0.00    -0.154 NA 
HETATM   19  C   UNL     1      -8.372   9.611  68.825  1.00  0.00    -0.111 C  
HETATM   20  C   UNL     1     -10.460   8.918  67.747  1.00  0.00    -0.239 C  
ENDBRANCH  15  18
ENDBRANCH  10  12
ENDBRANCH   9  10
ENDBRANCH   6   9
ENDBRANCH   3   4
ENDBRANCH   2   3
TORSDOF 6
ENDMDL
MODEL      105
REMARK 921   NORMALIZED FREE ENERGY PREDICTED BY IDOCK:   -4.53 KCAL/MOL
REMARK 922        TOTAL FREE ENERGY PREDICTED BY IDOCK:   -6.70 KCAL/MOL
REMARK 923 INTER-LIGAND FREE ENERGY PREDICTED BY IDOCK:   -5.82 KCAL/MOL
REMARK 924 INTRA-LIGAND FREE ENERGY PREDICTED BY IDOCK:   -0.88 KCAL/MOL
REMARK 927      BINDING AFFINITY PREDICTED BY RF-SCORE:    0.00 PKD
ROOT
HETATM    1  C   UNL     1      -8.943   8.444  67.352  1.00  0.00    -0.143 C  
HETATM    2  C   UNL     1      -8.765   8.958  65.932  1.00  0.00    -0.197 C  
ENDROOT
BRANCH   2   3
HETATM    3  C   UNL     1      -9.901   9.908  65.553  1.00  0.00    -0.381 C  
BRANCH   3   4
HETATM    4  C   UNL     1     -10.688  10.394  66.778  1.00  0.00    -0.235 C  
HETATM    5  C   UNL     1     -10.449  11.891  67.082  1.00  0.00    -0.249 C  
HETATM    6  C   UNL     1     -11.205  12.335  68.346  1.00  0.00    -0.266 C  
HETATM    7  C   UNL     1     -10.790  12.837  65.910  1.00  0.00    -0.295 C  
HETATM    8  C   UNL     1     -12.256  12.862  65.500  1.00  0.00    -0.527 C  
BRANCH   6   9
HETATM    9  O   UNL     1     -10.824  11.613  69.528  1.00  0.00    -0.160 OA 
BRANCH   9  10
HETATM   10  C   UNL     1     -11.840  11.238  70.342  1.00  0.00    -0.350 C  
HETATM   11  O   UNL     1     -12.908  11.812  70.474  1.00  0.00    -0.094 OA 
BRANCH  10  12
HETATM   12  C   UNL     1     -11.511   9.954  71.019  1.00  0.00    -0.466 A  
HETATM   13  C   UNL     1     -12.412   9.423  71.935  1.00  0.00    -0.468 A  
HETATM   14  C   UNL     1     -12.160   8.182  72.548  1.00  0.00    -0.377 A  
HETATM   15  C   UNL     1     -11.006   7.426  72.276  1.00  0.00    -0.254 A  
HETATM   16  C   UNL     1     -10.108   8.002  71.354  1.00  0.00    -0.228 A  
HETATM   17  C   UNL     1     -10.354   9.230  70.726  1.00  0.00    -0.348 A  
BRANCH  15  18
HETATM   18  N   UNL     1     -10.708   6.234  72.925  1.00  0.00    -0.236 NA 
HETATM   19  C   UNL     1     -10.281   6.231  74.326  1.00  0.00    -0.335 C  
HETATM   20  C   UNL     1     -10.288   5.049  72.180  1.00  0.00    -0.215 C  
ENDBRANCH  15  18
ENDBRANCH  10  12
ENDBRANCH   9  10
ENDBRANCH   6   9
ENDBRANCH   3   4
ENDBRANCH   2   3
TORSDOF 6
ENDMDL
MODEL      106
REMARK 921   NORMALIZED FREE ENERGY PREDICTED BY IDOCK:   -4.53 KCAL/MOL
REMARK 922        TOTAL FREE ENERGY PREDICTED BY IDOCK:   -6.70 KCAL/MOL
REMARK 923 INTER-LIGAND FREE ENERGY PREDICTED BY IDOCK:   -5.98 KCAL/MOL
REMARK 924 INTRA-LIGAND FREE ENERGY PREDICTED BY IDOCK:   -0.72 KCAL/MOL
REMARK 927      BINDING AFFINITY PREDICTED BY RF-SCORE:    0.00 PKD
ROOT
HETATM    1  C   UNL     1      -9.047   5.620  69.708  1.00  0.00    -0.157 C  
HETATM    2  C   UNL     1     -10.199   4.983  70.471  1.00  0.00    -0.316 C  
ENDROOT
BRANCH   2   3
HETATM    3  C   UNL     1     -11.270   6.022  70.802  1.00  0.00    -0.340 C  
BRANCH   3   4
HETATM    4  C   UNL     1     -10.961   7.395  70.188  1.00  0.00    -0.272 C  
HETATM    5  C   UNL     1     -11.032   8.540  71.226  1.00  0.00    -0.316 C  
HETATM    6  C   UNL     1     -10.774   9.908  70.571  1.00  0.00    -0.317 C  
HETATM    7  C   UNL     1     -10.093   8.354  72.437  1.00  0.00    -0.386 C  
HETATM    8  C   UNL     1      -8.605   8.358  72.112  1.00  0.00    -0.257 C  
BRANCH   6   9
HETATM    9  O   UNL     1     -11.714  10.237  69.536  1.00  0.00    -0.207 OA 
BRANCH   9  10
HETATM   10  C   UNL     1     -11.183  10.468  68.310  1.00  0.00    -0.291 C  
HETATM   11  O   UNL     1     -10.877   9.624  67.486  1.00  0.00    -0.286 OA 
BRANCH  10  12
HETATM   12  C   UNL     1     -11.089  11.932  68.058  1.00  0.00    -0.293 A  
HETATM   13  C   UNL     1     -10.298  12.387  67.008  1.00  0.00    -0.235 A  
HETATM   14  C   UNL     1     -10.235  13.759  66.705  1.00  0.00    -0.276 A  
HETATM   15  C   UNL     1     -10.950  14.728  67.432  1.00  0.00    -0.313 A  
HETATM   16  C   UNL     1     -11.729  14.232  68.497  1.00  0.00    -0.376 A  
HETATM   17  C   UNL     1     -11.812  12.866  68.802  1.00  0.00    -0.353 A  
BRANCH  15  18
HETATM   18  N   UNL     1     -10.843  16.092  67.190  1.00  0.00    -0.268 NA 
HETATM   19  C   UNL     1     -10.380  16.587  65.892  1.00  0.00    -0.350 C  
HETATM   20  C   UNL     1     -10.656  17.044  68.283  1.00  0.00    -0.372 C  
ENDBRANCH  15  18
ENDBRANCH  10  12
ENDBRANCH   9  10
ENDBRANCH   6   9
ENDBRANCH   3   4
ENDBRANCH   2   3
TORSDOF 6
ENDMDL
MODEL      107
REMARK 921   NORMALIZED FREE ENERGY PREDICTED BY IDOCK:   -4.52 KCAL/MOL
REMARK 922        TOTAL FREE ENERGY PREDICTED BY IDOCK:   -6.69 KCAL/MOL
REMARK 923 INTER-LIGAND FREE ENERGY PREDICTED BY IDOCK:   -5.80 KCAL/MOL
REMARK 924 INTRA-LIGAND FREE ENERGY PREDICTED BY IDOCK:   -0.89 KCAL/MOL
REMARK 927      BINDING AFFINITY PREDICTED BY RF-SCORE:    0.00 PKD
ROOT
HETATM    1  C   UNL     1     -13.240   9.954  71.118  1.00  0.00    -0.424 C  
HETATM    2  C   UNL     1     -13.615   9.137  72.346  1.00  0.00    -0.544 C  
ENDROOT
BRANCH   2   3
HETATM    3  C   UNL     1     -12.520   8.124  72.677  1.00  0.00    -0.168 C  
BRANCH   3   4
HETATM    4  C   UNL     1     -12.320   7.094  71.557  1.00  0.00    -0.406 C  
HETATM    5  C   UNL     1     -10.862   6.585  71.471  1.00  0.00    -0.288 C  
HETATM    6  C   UNL     1     -10.679   5.598  70.304  1.00  0.00    -0.294 C  
HETATM    7  C   UNL     1     -10.334   5.953  72.777  1.00  0.00    -0.222 C  
HETATM    8  C   UNL     1     -11.051   4.685  73.221  1.00  0.00    -0.403 C  
BRANCH   6   9
HETATM    9  O   UNL     1     -10.991   6.161  69.020  1.00  0.00    -0.312 OA 
BRANCH   9  10
HETATM   10  C   UNL     1      -9.952   6.726  68.357  1.00  0.00    -0.151 C  
HETATM   11  O   UNL     1      -8.893   6.188  68.084  1.00  0.00    -0.114 OA 
BRANCH  10  12
HETATM   12  C   UNL     1     -10.308   8.105  67.922  1.00  0.00    -0.280 A  
HETATM   13  C   UNL     1     -10.675   9.042  68.882  1.00  0.00    -0.149 A  
HETATM   14  C   UNL     1     -10.959  10.369  68.512  1.00  0.00    -0.302 A  
HETATM   15  C   UNL     1     -10.891  10.813  67.179  1.00  0.00    -0.277 A  
HETATM   16  C   UNL     1     -10.530   9.833  66.232  1.00  0.00    -0.160 A  
HETATM   17  C   UNL     1     -10.231   8.511  66.589  1.00  0.00    -0.345 A  
BRANCH  15  18
HETATM   18  N   UNL     1     -11.237  12.101  66.789  1.00  0.00    -0.303 NA 
HETATM   19  C   UNL     1     -11.813  12.353  65.466  1.00  0.00    -0.412 C  
HETATM   20  C   UNL     1     -10.595  13.271  67.383  1.00  0.00    -0.246 C  
ENDBRANCH  15  18
ENDBRANCH  10  12
ENDBRANCH   9  10
ENDBRANCH   6   9
ENDBRANCH   3   4
ENDBRANCH   2   3
TORSDOF 6
ENDMDL
MODEL      108
REMARK 921   NORMALIZED FREE ENERGY PREDICTED BY IDOCK:   -4.47 KCAL/MOL
REMARK 922        TOTAL FREE ENERGY PREDICTED BY IDOCK:   -6.62 KCAL/MOL
REMARK 923 INTER-LIGAND FREE ENERGY PREDICTED BY IDOCK:   -6.13 KCAL/MOL
REMARK 924 INTRA-LIGAND FREE ENERGY PREDICTED BY IDOCK:   -0.49 KCAL/MOL
REMARK 927      BINDING AFFINITY PREDICTED BY RF-SCORE:    0.00 PKD
ROOT
HETATM    1  C   UNL     1     -12.177  10.022  71.213  1.00  0.00    -0.498 C  
HETATM    2  C   UNL     1     -12.310  11.295  70.390  1.00  0.00    -0.415 C  
ENDROOT
BRANCH   2   3
HETATM    3  C   UNL     1     -11.839  11.064  68.955  1.00  0.00    -0.378 C  
BRANCH   3   4
HETATM    4  C   UNL     1     -10.767  12.073  68.523  1.00  0.00    -0.261 C  
HETATM    5  C   UNL     1     -10.301  11.857  67.064  1.00  0.00    -0.239 C  
HETATM    6  C   UNL     1      -9.187  12.846  66.678  1.00  0.00    -0.221 C  
HETATM    7  C   UNL     1     -11.438  11.918  66.021  1.00  0.00    -0.344 C  
HETATM    8  C   UNL     1     -12.136  13.265  65.899  1.00  0.00    -0.493 C  
BRANCH   6   9
HETATM    9  O   UNL     1      -8.014  12.741  67.500  1.00  0.00    -0.154 OA 
BRANCH   9  10
HETATM   10  C   UNL     1      -7.175  13.805  67.468  1.00  0.00    -0.158 C  
HETATM   11  O   UNL     1      -5.965  13.766  67.325  1.00  0.00    -0.327 OA 
BRANCH  10  12
HETATM   12  C   UNL     1      -7.949  15.074  67.553  1.00  0.00    -0.198 A  
HETATM   13  C   UNL     1      -8.677  15.344  68.707  1.00  0.00    -0.195 A  
HETATM   14  C   UNL     1      -9.371  16.560  68.845  1.00  0.00    -0.256 A  
HETATM   15  C   UNL     1      -9.370  17.548  67.845  1.00  0.00    -0.265 A  
HETATM   16  C   UNL     1      -8.635  17.234  66.684  1.00  0.00    -0.286 A  
HETATM   17  C   UNL     1      -7.927  16.033  66.539  1.00  0.00    -0.271 A  
BRANCH  15  18
HETATM   18  N   UNL     1     -10.108  18.722  67.936  1.00  0.00    -0.348 NA 
HETATM   19  C   UNL     1     -10.760  19.290  66.755  1.00  0.00    -0.431 C  
HETATM   20  C   UNL     1      -9.851  19.699  68.993  1.00  0.00    -0.393 C  
ENDBRANCH  15  18
ENDBRANCH  10  12
ENDBRANCH   9  10
ENDBRANCH   6   9
ENDBRANCH   3   4
ENDBRANCH   2   3
TORSDOF 6
ENDMDL
MODEL      109
REMARK 921   NORMALIZED FREE ENERGY PREDICTED BY IDOCK:   -4.45 KCAL/MOL
REMARK 922        TOTAL FREE ENERGY PREDICTED BY IDOCK:   -6.60 KCAL/MOL
REMARK 923 INTER-LIGAND FREE ENERGY PREDICTED BY IDOCK:   -6.02 KCAL/MOL
REMARK 924 INTRA-LIGAND FREE ENERGY PREDICTED BY IDOCK:   -0.58 KCAL/MOL
REMARK 927      BINDING AFFINITY PREDICTED BY RF-SCORE:    0.00 PKD
ROOT
HETATM    1  C   UNL     1     -10.202  15.879  68.436  1.00  0.00    -0.226 C  
HETATM    2  C   UNL     1     -11.225  15.179  67.554  1.00  0.00    -0.331 C  
ENDROOT
BRANCH   2   3
HETATM    3  C   UNL     1     -10.706  15.049  66.122  1.00  0.00    -0.328 C  
BRANCH   3   4
HETATM    4  C   UNL     1     -10.168  13.643  65.823  1.00  0.00    -0.317 C  
HETATM    5  C   UNL     1     -11.281  12.569  65.819  1.00  0.00    -0.356 C  
HETATM    6  C   UNL     1     -10.705  11.164  65.573  1.00  0.00    -0.185 C  
HETATM    7  C   UNL     1     -12.425  12.847  64.820  1.00  0.00    -0.517 C  
HETATM    8  C   UNL     1     -12.021  12.842  63.352  1.00  0.00    -0.613 C  
BRANCH   6   9
HETATM    9  O   UNL     1      -9.746  10.754  66.561  1.00  0.00    -0.186 OA 
BRANCH   9  10
HETATM   10  C   UNL     1      -9.651   9.418  66.770  1.00  0.00    -0.179 C  
HETATM   11  O   UNL     1      -9.140   8.604  66.019  1.00  0.00    -0.179 OA 
BRANCH  10  12
HETATM   12  C   UNL     1     -10.197   9.067  68.110  1.00  0.00    -0.247 A  
HETATM   13  C   UNL     1     -10.814  10.056  68.868  1.00  0.00    -0.250 A  
HETATM   14  C   UNL     1     -11.393   9.745  70.112  1.00  0.00    -0.305 A  
HETATM   15  C   UNL     1     -11.379   8.446  70.648  1.00  0.00    -0.244 A  
HETATM   16  C   UNL     1     -10.732   7.472  69.860  1.00  0.00    -0.254 A  
HETATM   17  C   UNL     1     -10.163   7.765  68.613  1.00  0.00    -0.217 A  
BRANCH  15  18
HETATM   18  N   UNL     1     -11.883   8.137  71.906  1.00  0.00    -0.297 NA 
HETATM   19  C   UNL     1     -13.123   8.752  72.386  1.00  0.00    -0.391 C  
HETATM   20  C   UNL     1     -11.011   7.659  72.977  1.00  0.00    -0.400 C  
ENDBRANCH  15  18
ENDBRANCH  10  12
ENDBRANCH   9  10
ENDBRANCH   6   9
ENDBRANCH   3   4
ENDBRANCH   2   3
TORSDOF 6
ENDMDL
MODEL      110
REMARK 921   NORMALIZED FREE ENERGY PREDICTED BY IDOCK:   -4.44 KCAL/MOL
REMARK 922        TOTAL FREE ENERGY PREDICTED BY IDOCK:   -6.59 KCAL/MOL
REMARK 923 INTER-LIGAND FREE ENERGY PREDICTED BY IDOCK:   -5.69 KCAL/MOL
REMARK 924 INTRA-LIGAND FREE ENERGY PREDICTED BY IDOCK:   -0.90 KCAL/MOL
REMARK 927      BINDING AFFINITY PREDICTED BY RF-SCORE:    0.00 PKD
ROOT
HETATM    1  C   UNL     1      -6.114  11.321  67.745  1.00  0.00    -0.048 C  
HETATM    2  C   UNL     1      -6.653  12.726  67.519  1.00  0.00    -0.158 C  
ENDROOT
BRANCH   2   3
HETATM    3  C   UNL     1      -7.607  13.127  68.644  1.00  0.00    -0.089 C  
BRANCH   3   4
HETATM    4  C   UNL     1      -8.971  13.591  68.115  1.00  0.00    -0.187 C  
HETATM    5  C   UNL     1      -9.451  14.903  68.779  1.00  0.00    -0.214 C  
HETATM    6  C   UNL     1     -10.844  15.312  68.272  1.00  0.00    -0.262 C  
HETATM    7  C   UNL     1      -8.470  16.085  68.624  1.00  0.00    -0.208 C  
HETATM    8  C   UNL     1      -8.243  16.558  67.194  1.00  0.00    -0.207 C  
BRANCH   6   9
HETATM    9  O   UNL     1     -11.861  14.330  68.527  1.00  0.00    -0.329 OA 
BRANCH   9  10
HETATM   10  C   UNL     1     -12.240  14.199  69.823  1.00  0.00    -0.344 C  
HETATM   11  O   UNL     1     -12.603  15.098  70.563  1.00  0.00    -0.347 OA 
BRANCH  10  12
HETATM   12  C   UNL     1     -12.231  12.764  70.218  1.00  0.00    -0.351 A  
HETATM   13  C   UNL     1     -12.933  12.373  71.353  1.00  0.00    -0.348 A  
HETATM   14  C   UNL     1     -12.995  11.016  71.722  1.00  0.00    -0.544 A  
HETATM   15  C   UNL     1     -12.363  10.002  70.980  1.00  0.00    -0.360 A  
HETATM   16  C   UNL     1     -11.649  10.437  69.846  1.00  0.00    -0.358 A  
HETATM   17  C   UNL     1     -11.590  11.783  69.459  1.00  0.00    -0.398 A  
BRANCH  15  18
HETATM   18  N   UNL     1     -12.355   8.668  71.370  1.00  0.00    -0.305 NA 
HETATM   19  C   UNL     1     -13.601   7.986  71.726  1.00  0.00    -0.348 C  
HETATM   20  C   UNL     1     -11.162   8.054  71.949  1.00  0.00    -0.280 C  
ENDBRANCH  15  18
ENDBRANCH  10  12
ENDBRANCH   9  10
ENDBRANCH   6   9
ENDBRANCH   3   4
ENDBRANCH   2   3
TORSDOF 6
ENDMDL
MODEL      111
REMARK 921   NORMALIZED FREE ENERGY PREDICTED BY IDOCK:   -4.44 KCAL/MOL
REMARK 922        TOTAL FREE ENERGY PREDICTED BY IDOCK:   -6.59 KCAL/MOL
REMARK 923 INTER-LIGAND FREE ENERGY PREDICTED BY IDOCK:   -5.71 KCAL/MOL
REMARK 924 INTRA-LIGAND FREE ENERGY PREDICTED BY IDOCK:   -0.87 KCAL/MOL
REMARK 927      BINDING AFFINITY PREDICTED BY RF-SCORE:    0.00 PKD
ROOT
HETATM    1  C   UNL     1      -6.338  15.611  69.762  1.00  0.00    -0.170 C  
HETATM    2  C   UNL     1      -5.668  16.480  68.709  1.00  0.00    -0.126 C  
ENDROOT
BRANCH   2   3
HETATM    3  C   UNL     1      -6.303  17.870  68.669  1.00  0.00    -0.209 C  
BRANCH   3   4
HETATM    4  C   UNL     1      -7.442  17.961  67.644  1.00  0.00    -0.208 C  
HETATM    5  C   UNL     1      -8.057  19.379  67.564  1.00  0.00    -0.315 C  
HETATM    6  C   UNL     1      -9.232  19.426  66.572  1.00  0.00    -0.356 C  
HETATM    7  C   UNL     1      -7.041  20.491  67.225  1.00  0.00    -0.362 C  
HETATM    8  C   UNL     1      -6.396  20.384  65.850  1.00  0.00    -0.250 C  
BRANCH   6   9
HETATM    9  O   UNL     1     -10.306  18.534  66.909  1.00  0.00    -0.360 OA 
BRANCH   9  10
HETATM   10  C   UNL     1     -10.663  17.651  65.944  1.00  0.00    -0.113 C  
HETATM   11  O   UNL     1     -10.923  17.919  64.783  1.00  0.00    -0.783 OA 
BRANCH  10  12
HETATM   12  C   UNL     1     -10.622  16.262  66.476  1.00  0.00    -0.256 A  
HETATM   13  C   UNL     1     -10.765  16.059  67.844  1.00  0.00    -0.316 A  
HETATM   14  C   UNL     1     -10.790  14.755  68.374  1.00  0.00    -0.248 A  
HETATM   15  C   UNL     1     -10.673  13.610  67.566  1.00  0.00    -0.259 A  
HETATM   16  C   UNL     1     -10.515  13.854  66.187  1.00  0.00    -0.297 A  
HETATM   17  C   UNL     1     -10.501  15.147  65.645  1.00  0.00    -0.378 A  
BRANCH  15  18
HETATM   18  N   UNL     1     -10.625  12.319  68.081  1.00  0.00    -0.207 NA 
HETATM   19  C   UNL     1     -11.620  11.865  69.054  1.00  0.00    -0.317 C  
HETATM   20  C   UNL     1      -9.373  11.566  68.124  1.00  0.00    -0.185 C  
ENDBRANCH  15  18
ENDBRANCH  10  12
ENDBRANCH   9  10
ENDBRANCH   6   9
ENDBRANCH   3   4
ENDBRANCH   2   3
TORSDOF 6
ENDMDL
MODEL      112
REMARK 921   NORMALIZED FREE ENERGY PREDICTED BY IDOCK:   -4.43 KCAL/MOL
REMARK 922        TOTAL FREE ENERGY PREDICTED BY IDOCK:   -6.58 KCAL/MOL
REMARK 923 INTER-LIGAND FREE ENERGY PREDICTED BY IDOCK:   -5.71 KCAL/MOL
REMARK 924 INTRA-LIGAND FREE ENERGY PREDICTED BY IDOCK:   -0.87 KCAL/MOL
REMARK 927      BINDING AFFINITY PREDICTED BY RF-SCORE:    0.00 PKD
ROOT
HETATM    1  C   UNL     1      -6.430  15.155  67.792  1.00  0.00    -0.182 C  
HETATM    2  C   UNL     1      -6.299  16.292  68.793  1.00  0.00    -0.125 C  
ENDROOT
BRANCH   2   3
HETATM    3  C   UNL     1      -6.743  17.616  68.171  1.00  0.00    -0.205 C  
BRANCH   3   4
HETATM    4  C   UNL     1      -7.969  17.451  67.262  1.00  0.00    -0.218 C  
HETATM    5  C   UNL     1      -9.281  17.902  67.946  1.00  0.00    -0.263 C  
HETATM    6  C   UNL     1     -10.498  17.672  67.033  1.00  0.00    -0.305 C  
HETATM    7  C   UNL     1      -9.266  19.365  68.439  1.00  0.00    -0.415 C  
HETATM    8  C   UNL     1      -9.140  20.418  67.346  1.00  0.00    -0.484 C  
BRANCH   6   9
HETATM    9  O   UNL     1     -10.685  16.298  66.659  1.00  0.00    -0.291 OA 
BRANCH   9  10
HETATM   10  C   UNL     1     -11.178  15.486  67.626  1.00  0.00    -0.291 C  
HETATM   11  O   UNL     1     -11.850  15.830  68.583  1.00  0.00    -0.385 OA 
BRANCH  10  12
HETATM   12  C   UNL     1     -10.850  14.066  67.323  1.00  0.00    -0.288 A  
HETATM   13  C   UNL     1     -11.763  13.074  67.666  1.00  0.00    -0.415 A  
HETATM   14  C   UNL     1     -11.512  11.729  67.340  1.00  0.00    -0.375 A  
HETATM   15  C   UNL     1     -10.348  11.320  66.665  1.00  0.00    -0.237 A  
HETATM   16  C   UNL     1      -9.439  12.349  66.346  1.00  0.00    -0.240 A  
HETATM   17  C   UNL     1      -9.683  13.695  66.652  1.00  0.00    -0.287 A  
BRANCH  15  18
HETATM   18  N   UNL     1     -10.052   9.988  66.399  1.00  0.00    -0.239 NA 
HETATM   19  C   UNL     1     -10.467   8.931  67.323  1.00  0.00    -0.277 C  
HETATM   20  C   UNL     1      -8.922   9.617  65.549  1.00  0.00    -0.183 C  
ENDBRANCH  15  18
ENDBRANCH  10  12
ENDBRANCH   9  10
ENDBRANCH   6   9
ENDBRANCH   3   4
ENDBRANCH   2   3
TORSDOF 6
ENDMDL
MODEL      113
REMARK 921   NORMALIZED FREE ENERGY PREDICTED BY IDOCK:   -4.43 KCAL/MOL
REMARK 922        TOTAL FREE ENERGY PREDICTED BY IDOCK:   -6.56 KCAL/MOL
REMARK 923 INTER-LIGAND FREE ENERGY PREDICTED BY IDOCK:   -5.86 KCAL/MOL
REMARK 924 INTRA-LIGAND FREE ENERGY PREDICTED BY IDOCK:   -0.70 KCAL/MOL
REMARK 927      BINDING AFFINITY PREDICTED BY RF-SCORE:    0.00 PKD
ROOT
HETATM    1  C   UNL     1      -6.300  11.002  67.608  1.00  0.00    -0.060 C  
HETATM    2  C   UNL     1      -7.106  12.247  67.272  1.00  0.00    -0.138 C  
ENDROOT
BRANCH   2   3
HETATM    3  C   UNL     1      -8.085  12.579  68.398  1.00  0.00    -0.136 C  
BRANCH   3   4
HETATM    4  C   UNL     1      -9.498  12.048  68.119  1.00  0.00    -0.200 C  
HETATM    5  C   UNL     1     -10.600  13.068  68.493  1.00  0.00    -0.274 C  
HETATM    6  C   UNL     1     -12.005  12.487  68.256  1.00  0.00    -0.221 C  
HETATM    7  C   UNL     1     -10.470  14.430  67.778  1.00  0.00    -0.245 C  
HETATM    8  C   UNL     1     -10.625  14.387  66.264  1.00  0.00    -0.292 C  
BRANCH   6   9
HETATM    9  O   UNL     1     -12.272  11.300  69.018  1.00  0.00    -0.444 OA 
BRANCH   9  10
HETATM   10  C   UNL     1     -12.275  11.453  70.365  1.00  0.00    -0.362 C  
HETATM   11  O   UNL     1     -12.609  12.453  70.977  1.00  0.00    -0.360 OA 
BRANCH  10  12
HETATM   12  C   UNL     1     -11.882  10.179  71.029  1.00  0.00    -0.475 A  
HETATM   13  C   UNL     1     -12.803   9.529  71.842  1.00  0.00    -0.508 A  
HETATM   14  C   UNL     1     -12.485   8.294  72.436  1.00  0.00    -0.355 A  
HETATM   15  C   UNL     1     -11.243   7.662  72.246  1.00  0.00    -0.293 A  
HETATM   16  C   UNL     1     -10.329   8.357  71.428  1.00  0.00    -0.285 A  
HETATM   17  C   UNL     1     -10.638   9.581  70.819  1.00  0.00    -0.387 A  
BRANCH  15  18
HETATM   18  N   UNL     1     -10.887   6.478  72.882  1.00  0.00    -0.248 NA 
HETATM   19  C   UNL     1     -10.259   6.499  74.204  1.00  0.00    -0.358 C  
HETATM   20  C   UNL     1     -10.616   5.261  72.121  1.00  0.00    -0.221 C  
ENDBRANCH  15  18
ENDBRANCH  10  12
ENDBRANCH   9  10
ENDBRANCH   6   9
ENDBRANCH   3   4
ENDBRANCH   2   3
TORSDOF 6
ENDMDL
MODEL      114
REMARK 921   NORMALIZED FREE ENERGY PREDICTED BY IDOCK:   -4.41 KCAL/MOL
REMARK 922        TOTAL FREE ENERGY PREDICTED BY IDOCK:   -6.54 KCAL/MOL
REMARK 923 INTER-LIGAND FREE ENERGY PREDICTED BY IDOCK:   -5.91 KCAL/MOL
REMARK 924 INTRA-LIGAND FREE ENERGY PREDICTED BY IDOCK:   -0.63 KCAL/MOL
REMARK 927      BINDING AFFINITY PREDICTED BY RF-SCORE:    0.00 PKD
ROOT
HETATM    1  C   UNL     1     -12.161   8.684  71.906  1.00  0.00    -0.422 C  
HETATM    2  C   UNL     1     -11.161   9.713  71.402  1.00  0.00    -0.397 C  
ENDROOT
BRANCH   2   3
HETATM    3  C   UNL     1     -10.915   9.542  69.904  1.00  0.00    -0.263 C  
BRANCH   3   4
HETATM    4  C   UNL     1     -11.608  10.629  69.071  1.00  0.00    -0.332 C  
HETATM    5  C   UNL     1     -10.611  11.664  68.498  1.00  0.00    -0.241 C  
HETATM    6  C   UNL     1     -11.338  12.772  67.717  1.00  0.00    -0.294 C  
HETATM    7  C   UNL     1      -9.497  11.052  67.622  1.00  0.00    -0.173 C  
HETATM    8  C   UNL     1      -9.973  10.379  66.342  1.00  0.00    -0.277 C  
BRANCH   6   9
HETATM    9  O   UNL     1     -12.282  13.510  68.509  1.00  0.00    -0.320 OA 
BRANCH   9  10
HETATM   10  C   UNL     1     -11.767  14.166  69.578  1.00  0.00    -0.312 C  
HETATM   11  O   UNL     1     -11.916  13.864  70.750  1.00  0.00    -0.326 OA 
BRANCH  10  12
HETATM   12  C   UNL     1     -10.907  15.293  69.125  1.00  0.00    -0.250 A  
HETATM   13  C   UNL     1      -9.555  15.284  69.452  1.00  0.00    -0.245 A  
HETATM   14  C   UNL     1      -8.702  16.302  68.989  1.00  0.00    -0.246 A  
HETATM   15  C   UNL     1      -9.158  17.365  68.188  1.00  0.00    -0.267 A  
HETATM   16  C   UNL     1     -10.535  17.349  67.889  1.00  0.00    -0.383 A  
HETATM   17  C   UNL     1     -11.394  16.334  68.332  1.00  0.00    -0.312 A  
BRANCH  15  18
HETATM   18  N   UNL     1      -8.342  18.415  67.783  1.00  0.00    -0.258 NA 
HETATM   19  C   UNL     1      -8.093  18.662  66.361  1.00  0.00    -0.281 C  
HETATM   20  C   UNL     1      -7.311  18.958  68.664  1.00  0.00    -0.310 C  
ENDBRANCH  15  18
ENDBRANCH  10  12
ENDBRANCH   9  10
ENDBRANCH   6   9
ENDBRANCH   3   4
ENDBRANCH   2   3
TORSDOF 6
ENDMDL
MODEL      115
REMARK 921   NORMALIZED FREE ENERGY PREDICTED BY IDOCK:   -4.40 KCAL/MOL
REMARK 922        TOTAL FREE ENERGY PREDICTED BY IDOCK:   -6.53 KCAL/MOL
REMARK 923 INTER-LIGAND FREE ENERGY PREDICTED BY IDOCK:   -6.31 KCAL/MOL
REMARK 924 INTRA-LIGAND FREE ENERGY PREDICTED BY IDOCK:   -0.22 KCAL/MOL
REMARK 927      BINDING AFFINITY PREDICTED BY RF-SCORE:    0.00 PKD
ROOT
HETATM    1  C   UNL     1      -8.406  17.913  67.007  1.00  0.00    -0.248 C  
HETATM    2  C   UNL     1      -9.558  18.525  67.791  1.00  0.00    -0.311 C  
ENDROOT
BRANCH   2   3
HETATM    3  C   UNL     1     -10.161  17.503  68.754  1.00  0.00    -0.363 C  
BRANCH   3   4
HETATM    4  C   UNL     1     -11.111  16.525  68.048  1.00  0.00    -0.275 C  
HETATM    5  C   UNL     1     -11.055  15.102  68.652  1.00  0.00    -0.276 C  
HETATM    6  C   UNL     1     -11.974  14.132  67.889  1.00  0.00    -0.343 C  
HETATM    7  C   UNL     1     -11.371  15.043  70.162  1.00  0.00    -0.303 C  
HETATM    8  C   UNL     1     -12.785  15.459  70.547  1.00  0.00    -0.455 C  
BRANCH   6   9
HETATM    9  O   UNL     1     -11.641  13.998  66.498  1.00  0.00    -0.341 OA 
BRANCH   9  10
HETATM   10  C   UNL     1     -12.156  12.912  65.872  1.00  0.00    -0.444 C  
HETATM   11  O   UNL     1     -13.072  12.910  65.067  1.00  0.00    -0.794 OA 
BRANCH  10  12
HETATM   12  C   UNL     1     -11.388  11.692  66.242  1.00  0.00    -0.293 A  
HETATM   13  C   UNL     1     -10.480  11.163  65.330  1.00  0.00    -0.326 A  
HETATM   14  C   UNL     1      -9.695  10.047  65.671  1.00  0.00    -0.336 A  
HETATM   15  C   UNL     1      -9.782   9.415  66.924  1.00  0.00    -0.186 A  
HETATM   16  C   UNL     1     -10.722   9.969  67.817  1.00  0.00    -0.333 A  
HETATM   17  C   UNL     1     -11.501  11.089  67.496  1.00  0.00    -0.266 A  
BRANCH  15  18
HETATM   18  N   UNL     1      -9.065   8.270  67.249  1.00  0.00    -0.136 NA 
HETATM   19  C   UNL     1      -8.886   7.196  66.270  1.00  0.00    -0.148 C  
HETATM   20  C   UNL     1      -8.926   7.831  68.636  1.00  0.00    -0.133 C  
ENDBRANCH  15  18
ENDBRANCH  10  12
ENDBRANCH   9  10
ENDBRANCH   6   9
ENDBRANCH   3   4
ENDBRANCH   2   3
TORSDOF 6
ENDMDL
MODEL      116
REMARK 921   NORMALIZED FREE ENERGY PREDICTED BY IDOCK:   -4.40 KCAL/MOL
REMARK 922        TOTAL FREE ENERGY PREDICTED BY IDOCK:   -6.53 KCAL/MOL
REMARK 923 INTER-LIGAND FREE ENERGY PREDICTED BY IDOCK:   -5.70 KCAL/MOL
REMARK 924 INTRA-LIGAND FREE ENERGY PREDICTED BY IDOCK:   -0.82 KCAL/MOL
REMARK 927      BINDING AFFINITY PREDICTED BY RF-SCORE:    0.00 PKD
ROOT
HETATM    1  C   UNL     1     -10.396  11.259  63.224  1.00  0.00    -0.406 C  
HETATM    2  C   UNL     1     -11.507  12.245  63.551  1.00  0.00    -0.558 C  
ENDROOT
BRANCH   2   3
HETATM    3  C   UNL     1     -11.777  12.279  65.055  1.00  0.00    -0.405 C  
BRANCH   3   4
HETATM    4  C   UNL     1     -10.497  12.499  65.872  1.00  0.00    -0.289 C  
HETATM    5  C   UNL     1     -10.508  11.727  67.213  1.00  0.00    -0.242 C  
HETATM    6  C   UNL     1      -9.240  12.011  68.036  1.00  0.00    -0.192 C  
HETATM    7  C   UNL     1     -10.705  10.203  67.064  1.00  0.00    -0.264 C  
HETATM    8  C   UNL     1      -9.590   9.473  66.328  1.00  0.00    -0.287 C  
BRANCH   6   9
HETATM    9  O   UNL     1      -9.066  13.398  68.365  1.00  0.00    -0.189 OA 
BRANCH   9  10
HETATM   10  C   UNL     1      -8.011  14.015  67.777  1.00  0.00    -0.171 C  
HETATM   11  O   UNL     1      -6.987  13.480  67.390  1.00  0.00    -0.166 OA 
BRANCH  10  12
HETATM   12  C   UNL     1      -8.302  15.463  67.588  1.00  0.00    -0.174 A  
HETATM   13  C   UNL     1      -7.393  16.248  66.886  1.00  0.00    -0.266 A  
HETATM   14  C   UNL     1      -7.665  17.605  66.638  1.00  0.00    -0.284 A  
HETATM   15  C   UNL     1      -8.845  18.232  67.077  1.00  0.00    -0.266 A  
HETATM   16  C   UNL     1      -9.736  17.410  67.796  1.00  0.00    -0.268 A  
HETATM   17  C   UNL     1      -9.484  16.053  68.039  1.00  0.00    -0.207 A  
BRANCH  15  18
HETATM   18  N   UNL     1      -9.096  19.588  66.901  1.00  0.00    -0.316 NA 
HETATM   19  C   UNL     1     -10.139  20.043  65.979  1.00  0.00    -0.450 C  
HETATM   20  C   UNL     1      -8.065  20.590  67.162  1.00  0.00    -0.302 C  
ENDBRANCH  15  18
ENDBRANCH  10  12
ENDBRANCH   9  10
ENDBRANCH   6   9
ENDBRANCH   3   4
ENDBRANCH   2   3
TORSDOF 6
ENDMDL
MODEL      117
REMARK 921   NORMALIZED FREE ENERGY PREDICTED BY IDOCK:   -4.39 KCAL/MOL
REMARK 922        TOTAL FREE ENERGY PREDICTED BY IDOCK:   -6.52 KCAL/MOL
REMARK 923 INTER-LIGAND FREE ENERGY PREDICTED BY IDOCK:   -5.74 KCAL/MOL
REMARK 924 INTRA-LIGAND FREE ENERGY PREDICTED BY IDOCK:   -0.78 KCAL/MOL
REMARK 927      BINDING AFFINITY PREDICTED BY RF-SCORE:    0.00 PKD
ROOT
HETATM    1  C   UNL     1      -9.724   4.793  68.583  1.00  0.00    -0.223 C  
HETATM    2  C   UNL     1      -9.581   4.222  69.986  1.00  0.00    -0.274 C  
ENDROOT
BRANCH   2   3
HETATM    3  C   UNL     1      -8.868   5.213  70.905  1.00  0.00    -0.154 C  
BRANCH   3   4
HETATM    4  C   UNL     1      -9.801   6.328  71.397  1.00  0.00    -0.195 C  
HETATM    5  C   UNL     1     -11.073   5.778  72.086  1.00  0.00    -0.327 C  
HETATM    6  C   UNL     1     -12.015   6.915  72.517  1.00  0.00    -0.047 C  
HETATM    7  C   UNL     1     -10.790   4.850  73.287  1.00  0.00    -0.355 C  
HETATM    8  C   UNL     1     -10.091   5.510  74.468  1.00  0.00    -0.293 C  
BRANCH   6   9
HETATM    9  O   UNL     1     -12.464   7.734  71.426  1.00  0.00    -0.316 OA 
BRANCH   9  10
HETATM   10  C   UNL     1     -12.834   8.997  71.752  1.00  0.00    -0.374 C  
HETATM   11  O   UNL     1     -13.567   9.320  72.671  1.00  0.00    -0.455 OA 
BRANCH  10  12
HETATM   12  C   UNL     1     -12.148   9.978  70.866  1.00  0.00    -0.448 A  
HETATM   13  C   UNL     1     -11.154   9.529  70.003  1.00  0.00    -0.268 A  
HETATM   14  C   UNL     1     -10.529  10.419  69.111  1.00  0.00    -0.248 A  
HETATM   15  C   UNL     1     -10.864  11.783  69.044  1.00  0.00    -0.195 A  
HETATM   16  C   UNL     1     -11.865  12.205  69.943  1.00  0.00    -0.392 A  
HETATM   17  C   UNL     1     -12.506  11.327  70.827  1.00  0.00    -0.471 A  
BRANCH  15  18
HETATM   18  N   UNL     1     -10.207  12.687  68.219  1.00  0.00    -0.235 NA 
HETATM   19  C   UNL     1     -10.171  14.113  68.550  1.00  0.00    -0.247 C  
HETATM   20  C   UNL     1     -10.002  12.408  66.799  1.00  0.00    -0.225 C  
ENDBRANCH  15  18
ENDBRANCH  10  12
ENDBRANCH   9  10
ENDBRANCH   6   9
ENDBRANCH   3   4
ENDBRANCH   2   3
TORSDOF 6
ENDMDL
MODEL      118
REMARK 921   NORMALIZED FREE ENERGY PREDICTED BY IDOCK:   -4.36 KCAL/MOL
REMARK 922        TOTAL FREE ENERGY PREDICTED BY IDOCK:   -6.48 KCAL/MOL
REMARK 923 INTER-LIGAND FREE ENERGY PREDICTED BY IDOCK:   -5.98 KCAL/MOL
REMARK 924 INTRA-LIGAND FREE ENERGY PREDICTED BY IDOCK:   -0.50 KCAL/MOL
REMARK 927      BINDING AFFINITY PREDICTED BY RF-SCORE:    0.00 PKD
ROOT
HETATM    1  C   UNL     1     -10.998   7.826  72.082  1.00  0.00    -0.318 C  
HETATM    2  C   UNL     1     -12.017   8.678  71.339  1.00  0.00    -0.355 C  
ENDROOT
BRANCH   2   3
HETATM    3  C   UNL     1     -11.425  10.041  70.982  1.00  0.00    -0.463 C  
BRANCH   3   4
HETATM    4  C   UNL     1     -11.928  10.558  69.627  1.00  0.00    -0.279 C  
HETATM    5  C   UNL     1     -10.773  10.918  68.662  1.00  0.00    -0.238 C  
HETATM    6  C   UNL     1     -11.305  11.486  67.336  1.00  0.00    -0.298 C  
HETATM    7  C   UNL     1      -9.799   9.754  68.380  1.00  0.00    -0.168 C  
HETATM    8  C   UNL     1     -10.407   8.559  67.659  1.00  0.00    -0.317 C  
BRANCH   6   9
HETATM    9  O   UNL     1     -12.091  12.678  67.494  1.00  0.00    -0.411 OA 
BRANCH   9  10
HETATM   10  C   UNL     1     -11.990  13.587  66.493  1.00  0.00    -0.413 C  
HETATM   11  O   UNL     1     -12.769  13.729  65.566  1.00  0.00    -0.515 OA 
BRANCH  10  12
HETATM   12  C   UNL     1     -10.812  14.470  66.717  1.00  0.00    -0.305 A  
HETATM   13  C   UNL     1     -10.143  14.407  67.935  1.00  0.00    -0.228 A  
HETATM   14  C   UNL     1      -8.991  15.183  68.157  1.00  0.00    -0.174 A  
HETATM   15  C   UNL     1      -8.464  16.049  67.182  1.00  0.00    -0.196 A  
HETATM   16  C   UNL     1      -9.176  16.098  65.967  1.00  0.00    -0.363 A  
HETATM   17  C   UNL     1     -10.317  15.320  65.727  1.00  0.00    -0.364 A  
BRANCH  15  18
HETATM   18  N   UNL     1      -7.370  16.875  67.412  1.00  0.00    -0.153 NA 
HETATM   19  C   UNL     1      -6.005  16.376  67.229  1.00  0.00    -0.158 C  
HETATM   20  C   UNL     1      -7.461  18.022  68.312  1.00  0.00    -0.266 C  
ENDBRANCH  15  18
ENDBRANCH  10  12
ENDBRANCH   9  10
ENDBRANCH   6   9
ENDBRANCH   3   4
ENDBRANCH   2   3
TORSDOF 6
ENDMDL
MODEL      119
REMARK 921   NORMALIZED FREE ENERGY PREDICTED BY IDOCK:   -4.35 KCAL/MOL
REMARK 922        TOTAL FREE ENERGY PREDICTED BY IDOCK:   -6.46 KCAL/MOL
REMARK 923 INTER-LIGAND FREE ENERGY PREDICTED BY IDOCK:   -5.87 KCAL/MOL
REMARK 924 INTRA-LIGAND FREE ENERGY PREDICTED BY IDOCK:   -0.59 KCAL/MOL
REMARK 927      BINDING AFFINITY PREDICTED BY RF-SCORE:    0.00 PKD
ROOT
HETATM    1  C   UNL     1     -13.657   9.756  71.202  1.00  0.00    -0.233 C  
HETATM    2  C   UNL     1     -14.316   8.409  71.464  1.00  0.00    -0.499 C  
ENDROOT
BRANCH   2   3
HETATM    3  C   UNL     1     -13.263   7.309  71.601  1.00  0.00    -0.421 C  
BRANCH   3   4
HETATM    4  C   UNL     1     -11.899   7.734  71.039  1.00  0.00    -0.290 C  
HETATM    5  C   UNL     1     -10.916   8.186  72.145  1.00  0.00    -0.372 C  
HETATM    6  C   UNL     1      -9.579   8.658  71.549  1.00  0.00    -0.257 C  
HETATM    7  C   UNL     1     -10.656   7.122  73.233  1.00  0.00    -0.405 C  
HETATM    8  C   UNL     1      -9.973   5.850  72.749  1.00  0.00    -0.197 C  
BRANCH   6   9
HETATM    9  O   UNL     1      -9.713   9.766  70.644  1.00  0.00    -0.228 OA 
BRANCH   9  10
HETATM   10  C   UNL     1      -9.410   9.507  69.348  1.00  0.00    -0.180 C  
HETATM   11  O   UNL     1      -8.895   8.490  68.917  1.00  0.00    -0.137 OA 
BRANCH  10  12
HETATM   12  C   UNL     1      -9.872  10.624  68.479  1.00  0.00    -0.175 A  
HETATM   13  C   UNL     1     -11.147  11.146  68.671  1.00  0.00    -0.293 A  
HETATM   14  C   UNL     1     -11.592  12.241  67.907  1.00  0.00    -0.416 A  
HETATM   15  C   UNL     1     -10.792  12.854  66.927  1.00  0.00    -0.257 A  
HETATM   16  C   UNL     1      -9.512  12.289  66.750  1.00  0.00    -0.222 A  
HETATM   17  C   UNL     1      -9.051  11.208  67.513  1.00  0.00    -0.146 A  
BRANCH  15  18
HETATM   18  N   UNL     1     -11.243  13.889  66.116  1.00  0.00    -0.299 NA 
HETATM   19  C   UNL     1     -10.697  15.240  66.256  1.00  0.00    -0.315 C  
HETATM   20  C   UNL     1     -12.570  13.851  65.506  1.00  0.00    -0.526 C  
ENDBRANCH  15  18
ENDBRANCH  10  12
ENDBRANCH   9  10
ENDBRANCH   6   9
ENDBRANCH   3   4
ENDBRANCH   2   3
TORSDOF 6
ENDMDL
MODEL      120
REMARK 921   NORMALIZED FREE ENERGY PREDICTED BY IDOCK:   -4.34 KCAL/MOL
REMARK 922        TOTAL FREE ENERGY PREDICTED BY IDOCK:   -6.46 KCAL/MOL
REMARK 923 INTER-LIGAND FREE ENERGY PREDICTED BY IDOCK:   -6.14 KCAL/MOL
REMARK 924 INTRA-LIGAND FREE ENERGY PREDICTED BY IDOCK:   -0.31 KCAL/MOL
REMARK 927      BINDING AFFINITY PREDICTED BY RF-SCORE:    0.00 PKD
ROOT
HETATM    1  C   UNL     1      -5.902  17.230  69.706  1.00  0.00    -0.236 C  
HETATM    2  C   UNL     1      -6.856  18.192  69.012  1.00  0.00    -0.257 C  
ENDROOT
BRANCH   2   3
HETATM    3  C   UNL     1      -7.286  17.641  67.653  1.00  0.00    -0.202 C  
BRANCH   3   4
HETATM    4  C   UNL     1      -8.483  16.686  67.762  1.00  0.00    -0.191 C  
HETATM    5  C   UNL     1      -8.269  15.372  66.973  1.00  0.00    -0.270 C  
HETATM    6  C   UNL     1      -9.505  14.461  67.054  1.00  0.00    -0.248 C  
HETATM    7  C   UNL     1      -7.009  14.583  67.390  1.00  0.00    -0.106 C  
HETATM    8  C   UNL     1      -7.015  14.058  68.819  1.00  0.00    -0.106 C  
BRANCH   6   9
HETATM    9  O   UNL     1     -10.699  15.063  66.528  1.00  0.00    -0.300 OA 
BRANCH   9  10
HETATM   10  C   UNL     1     -11.777  14.246  66.433  1.00  0.00    -0.391 C  
HETATM   11  O   UNL     1     -12.552  14.182  65.494  1.00  0.00    -0.485 OA 
BRANCH  10  12
HETATM   12  C   UNL     1     -11.854  13.354  67.622  1.00  0.00    -0.394 A  
HETATM   13  C   UNL     1     -11.683  11.985  67.451  1.00  0.00    -0.352 A  
HETATM   14  C   UNL     1     -11.690  11.120  68.561  1.00  0.00    -0.368 A  
HETATM   15  C   UNL     1     -11.869  11.583  69.878  1.00  0.00    -0.355 A  
HETATM   16  C   UNL     1     -12.053  12.974  70.011  1.00  0.00    -0.367 A  
HETATM   17  C   UNL     1     -12.034  13.847  68.916  1.00  0.00    -0.393 A  
BRANCH  15  18
HETATM   18  N   UNL     1     -11.949  10.735  70.976  1.00  0.00    -0.328 NA 
HETATM   19  C   UNL     1     -11.243   9.452  70.984  1.00  0.00    -0.342 C  
HETATM   20  C   UNL     1     -13.087  10.785  71.891  1.00  0.00    -0.451 C  
ENDBRANCH  15  18
ENDBRANCH  10  12
ENDBRANCH   9  10
ENDBRANCH   6   9
ENDBRANCH   3   4
ENDBRANCH   2   3
TORSDOF 6
ENDMDL
MODEL      121
REMARK 921   NORMALIZED FREE ENERGY PREDICTED BY IDOCK:   -4.33 KCAL/MOL
REMARK 922        TOTAL FREE ENERGY PREDICTED BY IDOCK:   -6.44 KCAL/MOL
REMARK 923 INTER-LIGAND FREE ENERGY PREDICTED BY IDOCK:   -5.92 KCAL/MOL
REMARK 924 INTRA-LIGAND FREE ENERGY PREDICTED BY IDOCK:   -0.51 KCAL/MOL
REMARK 927      BINDING AFFINITY PREDICTED BY RF-SCORE:    0.00 PKD
ROOT
HETATM    1  C   UNL     1     -12.735  11.968  63.514  1.00  0.00    -0.567 C  
HETATM    2  C   UNL     1     -11.340  12.540  63.717  1.00  0.00    -0.534 C  
ENDROOT
BRANCH   2   3
HETATM    3  C   UNL     1     -10.323  11.422  63.939  1.00  0.00    -0.434 C  
BRANCH   3   4
HETATM    4  C   UNL     1     -10.186  11.043  65.420  1.00  0.00    -0.333 C  
HETATM    5  C   UNL     1      -9.771   9.566  65.620  1.00  0.00    -0.361 C  
HETATM    6  C   UNL     1      -9.698   9.201  67.112  1.00  0.00    -0.182 C  
HETATM    7  C   UNL     1      -8.450   9.180  64.921  1.00  0.00    -0.191 C  
HETATM    8  C   UNL     1      -7.209   9.895  65.438  1.00  0.00    -0.125 C  
BRANCH   6   9
HETATM    9  O   UNL     1     -10.942   9.373  67.809  1.00  0.00    -0.219 OA 
BRANCH   9  10
HETATM   10  C   UNL     1     -10.867  10.020  68.998  1.00  0.00    -0.222 C  
HETATM   11  O   UNL     1     -10.917  11.227  69.167  1.00  0.00    -0.215 OA 
BRANCH  10  12
HETATM   12  C   UNL     1     -10.790   9.039  70.114  1.00  0.00    -0.261 A  
HETATM   13  C   UNL     1     -10.318   9.460  71.352  1.00  0.00    -0.326 A  
HETATM   14  C   UNL     1     -10.288   8.574  72.445  1.00  0.00    -0.372 A  
HETATM   15  C   UNL     1     -10.723   7.240  72.347  1.00  0.00    -0.246 A  
HETATM   16  C   UNL     1     -11.181   6.844  71.074  1.00  0.00    -0.323 A  
HETATM   17  C   UNL     1     -11.228   7.720  69.982  1.00  0.00    -0.126 A  
BRANCH  15  18
HETATM   18  N   UNL     1     -10.634   6.333  73.397  1.00  0.00    -0.260 NA 
HETATM   19  C   UNL     1      -9.689   6.550  74.495  1.00  0.00    -0.309 C  
HETATM   20  C   UNL     1     -11.028   4.936  73.228  1.00  0.00    -0.320 C  
ENDBRANCH  15  18
ENDBRANCH  10  12
ENDBRANCH   9  10
ENDBRANCH   6   9
ENDBRANCH   3   4
ENDBRANCH   2   3
TORSDOF 6
ENDMDL
MODEL      122
REMARK 921   NORMALIZED FREE ENERGY PREDICTED BY IDOCK:   -4.33 KCAL/MOL
REMARK 922        TOTAL FREE ENERGY PREDICTED BY IDOCK:   -6.43 KCAL/MOL
REMARK 923 INTER-LIGAND FREE ENERGY PREDICTED BY IDOCK:   -5.65 KCAL/MOL
REMARK 924 INTRA-LIGAND FREE ENERGY PREDICTED BY IDOCK:   -0.79 KCAL/MOL
REMARK 927      BINDING AFFINITY PREDICTED BY RF-SCORE:    0.00 PKD
ROOT
HETATM    1  C   UNL     1     -12.168  14.929  64.431  1.00  0.00    -0.399 C  
HETATM    2  C   UNL     1     -12.698  14.078  65.576  1.00  0.00    -0.517 C  
ENDROOT
BRANCH   2   3
HETATM    3  C   UNL     1     -12.112  12.667  65.519  1.00  0.00    -0.515 C  
BRANCH   3   4
HETATM    4  C   UNL     1     -10.638  12.630  65.943  1.00  0.00    -0.297 C  
HETATM    5  C   UNL     1      -9.982  11.251  65.695  1.00  0.00    -0.292 C  
HETATM    6  C   UNL     1      -8.524  11.227  66.182  1.00  0.00    -0.135 C  
HETATM    7  C   UNL     1     -10.053  10.772  64.229  1.00  0.00    -0.427 C  
HETATM    8  C   UNL     1      -9.292  11.630  63.228  1.00  0.00    -0.176 C  
BRANCH   6   9
HETATM    9  O   UNL     1      -8.380  11.500  67.585  1.00  0.00    -0.127 OA 
BRANCH   9  10
HETATM   10  C   UNL     1      -7.983  10.454  68.351  1.00  0.00    -0.110 C  
HETATM   11  O   UNL     1      -6.861   9.979  68.398  1.00  0.00    -0.061 OA 
BRANCH  10  12
HETATM   12  C   UNL     1      -9.106   9.992  69.213  1.00  0.00    -0.208 A  
HETATM   13  C   UNL     1      -8.863   9.015  70.172  1.00  0.00    -0.196 A  
HETATM   14  C   UNL     1      -9.887   8.599  71.042  1.00  0.00    -0.267 A  
HETATM   15  C   UNL     1     -11.186   9.135  70.992  1.00  0.00    -0.312 A  
HETATM   16  C   UNL     1     -11.399  10.112  69.999  1.00  0.00    -0.351 A  
HETATM   17  C   UNL     1     -10.385  10.546  69.134  1.00  0.00    -0.240 A  
BRANCH  15  18
HETATM   18  N   UNL     1     -12.226   8.685  71.797  1.00  0.00    -0.321 NA 
HETATM   19  C   UNL     1     -12.453   7.252  71.993  1.00  0.00    -0.242 C  
HETATM   20  C   UNL     1     -13.410   9.506  72.036  1.00  0.00    -0.452 C  
ENDBRANCH  15  18
ENDBRANCH  10  12
ENDBRANCH   9  10
ENDBRANCH   6   9
ENDBRANCH   3   4
ENDBRANCH   2   3
TORSDOF 6
ENDMDL
MODEL      123
REMARK 921   NORMALIZED FREE ENERGY PREDICTED BY IDOCK:   -4.32 KCAL/MOL
REMARK 922        TOTAL FREE ENERGY PREDICTED BY IDOCK:   -6.43 KCAL/MOL
REMARK 923 INTER-LIGAND FREE ENERGY PREDICTED BY IDOCK:   -5.53 KCAL/MOL
REMARK 924 INTRA-LIGAND FREE ENERGY PREDICTED BY IDOCK:   -0.90 KCAL/MOL
REMARK 927      BINDING AFFINITY PREDICTED BY RF-SCORE:    0.00 PKD
ROOT
HETATM    1  C   UNL     1      -7.612   9.572  70.286  1.00  0.00    -0.162 C  
HETATM    2  C   UNL     1      -6.530   9.648  69.220  1.00  0.00    -0.044 C  
ENDROOT
BRANCH   2   3
HETATM    3  C   UNL     1      -6.672  10.927  68.395  1.00  0.00    -0.059 C  
BRANCH   3   4
HETATM    4  C   UNL     1      -8.085  11.097  67.822  1.00  0.00    -0.117 C  
HETATM    5  C   UNL     1      -8.122  10.963  66.281  1.00  0.00    -0.165 C  
HETATM    6  C   UNL     1      -9.539  11.196  65.730  1.00  0.00    -0.221 C  
HETATM    7  C   UNL     1      -7.567   9.624  65.749  1.00  0.00    -0.103 C  
HETATM    8  C   UNL     1      -8.353   8.387  66.160  1.00  0.00    -0.127 C  
BRANCH   6   9
HETATM    9  O   UNL     1     -10.071  12.493  66.040  1.00  0.00    -0.244 OA 
BRANCH   9  10
HETATM   10  C   UNL     1     -11.413  12.550  66.227  1.00  0.00    -0.370 C  
HETATM   11  O   UNL     1     -12.267  12.137  65.461  1.00  0.00    -0.549 OA 
BRANCH  10  12
HETATM   12  C   UNL     1     -11.721  13.129  67.564  1.00  0.00    -0.414 A  
HETATM   13  C   UNL     1     -11.763  12.287  68.670  1.00  0.00    -0.377 A  
HETATM   14  C   UNL     1     -11.992  12.809  69.956  1.00  0.00    -0.371 A  
HETATM   15  C   UNL     1     -12.190  14.182  70.190  1.00  0.00    -0.351 A  
HETATM   16  C   UNL     1     -12.156  15.002  69.044  1.00  0.00    -0.243 A  
HETATM   17  C   UNL     1     -11.915  14.497  67.760  1.00  0.00    -0.345 A  
BRANCH  15  18
HETATM   18  N   UNL     1     -12.488  14.704  71.443  1.00  0.00    -0.324 NA 
HETATM   19  C   UNL     1     -11.799  15.896  71.940  1.00  0.00    -0.506 C  
HETATM   20  C   UNL     1     -13.048  13.865  72.501  1.00  0.00    -0.437 C  
ENDBRANCH  15  18
ENDBRANCH  10  12
ENDBRANCH   9  10
ENDBRANCH   6   9
ENDBRANCH   3   4
ENDBRANCH   2   3
TORSDOF 6
ENDMDL
MODEL      124
REMARK 921   NORMALIZED FREE ENERGY PREDICTED BY IDOCK:   -4.32 KCAL/MOL
REMARK 922        TOTAL FREE ENERGY PREDICTED BY IDOCK:   -6.42 KCAL/MOL
REMARK 923 INTER-LIGAND FREE ENERGY PREDICTED BY IDOCK:   -5.69 KCAL/MOL
REMARK 924 INTRA-LIGAND FREE ENERGY PREDICTED BY IDOCK:   -0.73 KCAL/MOL
REMARK 927      BINDING AFFINITY PREDICTED BY RF-SCORE:    0.00 PKD
ROOT
HETATM    1  C   UNL     1      -6.366  16.726  66.964  1.00  0.00    -0.222 C  
HETATM    2  C   UNL     1      -6.467  16.593  68.477  1.00  0.00    -0.139 C  
ENDROOT
BRANCH   2   3
HETATM    3  C   UNL     1      -7.904  16.292  68.899  1.00  0.00    -0.224 C  
BRANCH   3   4
HETATM    4  C   UNL     1      -8.718  15.637  67.775  1.00  0.00    -0.173 C  
HETATM    5  C   UNL     1     -10.209  16.049  67.803  1.00  0.00    -0.260 C  
HETATM    6  C   UNL     1     -11.010  15.334  66.702  1.00  0.00    -0.297 C  
HETATM    7  C   UNL     1     -10.446  17.572  67.717  1.00  0.00    -0.381 C  
HETATM    8  C   UNL     1      -9.996  18.227  66.418  1.00  0.00    -0.385 C  
BRANCH   6   9
HETATM    9  O   UNL     1     -10.981  13.901  66.806  1.00  0.00    -0.294 OA 
BRANCH   9  10
HETATM   10  C   UNL     1     -10.758  13.231  65.649  1.00  0.00    -0.282 C  
HETATM   11  O   UNL     1     -10.640  13.725  64.541  1.00  0.00    -0.423 OA 
BRANCH  10  12
HETATM   12  C   UNL     1     -10.591  11.777  65.921  1.00  0.00    -0.314 A  
HETATM   13  C   UNL     1      -9.950  10.983  64.976  1.00  0.00    -0.340 A  
HETATM   14  C   UNL     1      -9.723   9.617  65.228  1.00  0.00    -0.330 A  
HETATM   15  C   UNL     1     -10.125   8.991  66.421  1.00  0.00    -0.281 A  
HETATM   16  C   UNL     1     -10.785   9.823  67.348  1.00  0.00    -0.314 A  
HETATM   17  C   UNL     1     -11.005  11.188  67.117  1.00  0.00    -0.350 A  
BRANCH  15  18
HETATM   18  N   UNL     1      -9.972   7.630  66.654  1.00  0.00    -0.232 NA 
HETATM   19  C   UNL     1     -11.067   6.839  67.219  1.00  0.00    -0.324 C  
HETATM   20  C   UNL     1      -8.651   7.041  66.866  1.00  0.00    -0.120 C  
ENDBRANCH  15  18
ENDBRANCH  10  12
ENDBRANCH   9  10
ENDBRANCH   6   9
ENDBRANCH   3   4
ENDBRANCH   2   3
TORSDOF 6
ENDMDL
MODEL      125
REMARK 921   NORMALIZED FREE ENERGY PREDICTED BY IDOCK:   -4.28 KCAL/MOL
REMARK 922        TOTAL FREE ENERGY PREDICTED BY IDOCK:   -6.37 KCAL/MOL
REMARK 923 INTER-LIGAND FREE ENERGY PREDICTED BY IDOCK:   -5.48 KCAL/MOL
REMARK 924 INTRA-LIGAND FREE ENERGY PREDICTED BY IDOCK:   -0.89 KCAL/MOL
REMARK 927      BINDING AFFINITY PREDICTED BY RF-SCORE:    0.00 PKD
ROOT
HETATM    1  C   UNL     1      -5.529  11.182  66.538  1.00  0.00    -0.124 C  
HETATM    2  C   UNL     1      -5.700  11.089  68.047  1.00  0.00    -0.042 C  
ENDROOT
BRANCH   2   3
HETATM    3  C   UNL     1      -6.704  12.129  68.543  1.00  0.00    -0.071 C  
BRANCH   3   4
HETATM    4  C   UNL     1      -7.429  12.836  67.390  1.00  0.00    -0.145 C  
HETATM    5  C   UNL     1      -8.062  14.181  67.822  1.00  0.00    -0.170 C  
HETATM    6  C   UNL     1      -8.829  14.838  66.662  1.00  0.00    -0.229 C  
HETATM    7  C   UNL     1      -7.058  15.188  68.423  1.00  0.00    -0.107 C  
HETATM    8  C   UNL     1      -5.978  15.677  67.467  1.00  0.00    -0.123 C  
BRANCH   6   9
HETATM    9  O   UNL     1      -9.899  14.030  66.148  1.00  0.00    -0.292 OA 
BRANCH   9  10
HETATM   10  C   UNL     1     -11.147  14.539  66.302  1.00  0.00    -0.332 C  
HETATM   11  O   UNL     1     -11.888  14.913  65.409  1.00  0.00    -0.299 OA 
BRANCH  10  12
HETATM   12  C   UNL     1     -11.541  14.511  67.737  1.00  0.00    -0.390 A  
HETATM   13  C   UNL     1     -11.631  13.286  68.389  1.00  0.00    -0.372 A  
HETATM   14  C   UNL     1     -11.942  13.227  69.760  1.00  0.00    -0.391 A  
HETATM   15  C   UNL     1     -12.177  14.380  70.531  1.00  0.00    -0.341 A  
HETATM   16  C   UNL     1     -12.092  15.602  69.834  1.00  0.00    -0.360 A  
HETATM   17  C   UNL     1     -11.769  15.675  68.472  1.00  0.00    -0.339 A  
BRANCH  15  18
HETATM   18  N   UNL     1     -12.555  14.335  71.868  1.00  0.00    -0.331 NA 
HETATM   19  C   UNL     1     -13.598  13.413  72.320  1.00  0.00    -0.605 C  
HETATM   20  C   UNL     1     -12.366  15.487  72.748  1.00  0.00    -0.420 C  
ENDBRANCH  15  18
ENDBRANCH  10  12
ENDBRANCH   9  10
ENDBRANCH   6   9
ENDBRANCH   3   4
ENDBRANCH   2   3
TORSDOF 6
ENDMDL
MODEL      126
REMARK 921   NORMALIZED FREE ENERGY PREDICTED BY IDOCK:   -4.25 KCAL/MOL
REMARK 922        TOTAL FREE ENERGY PREDICTED BY IDOCK:   -6.32 KCAL/MOL
REMARK 923 INTER-LIGAND FREE ENERGY PREDICTED BY IDOCK:   -5.72 KCAL/MOL
REMARK 924 INTRA-LIGAND FREE ENERGY PREDICTED BY IDOCK:   -0.60 KCAL/MOL
REMARK 927      BINDING AFFINITY PREDICTED BY RF-SCORE:    0.00 PKD
ROOT
HETATM    1  C   UNL     1     -13.614  14.417  72.191  1.00  0.00    -0.529 C  
HETATM    2  C   UNL     1     -13.196  15.391  71.099  1.00  0.00    -0.583 C  
ENDROOT
BRANCH   2   3
HETATM    3  C   UNL     1     -11.715  15.746  71.228  1.00  0.00    -0.496 C  
BRANCH   3   4
HETATM    4  C   UNL     1     -10.851  15.034  70.178  1.00  0.00    -0.217 C  
HETATM    5  C   UNL     1     -11.171  15.493  68.735  1.00  0.00    -0.316 C  
HETATM    6  C   UNL     1     -10.331  14.722  67.702  1.00  0.00    -0.237 C  
HETATM    7  C   UNL     1     -11.018  17.012  68.506  1.00  0.00    -0.247 C  
HETATM    8  C   UNL     1      -9.604  17.554  68.668  1.00  0.00    -0.303 C  
BRANCH   6   9
HETATM    9  O   UNL     1     -10.541  13.302  67.734  1.00  0.00    -0.235 OA 
BRANCH   9  10
HETATM   10  C   UNL     1      -9.423  12.540  67.645  1.00  0.00    -0.188 C  
HETATM   11  O   UNL     1      -8.276  12.947  67.571  1.00  0.00    -0.161 OA 
BRANCH  10  12
HETATM   12  C   UNL     1      -9.776  11.096  67.729  1.00  0.00    -0.183 A  
HETATM   13  C   UNL     1     -10.121  10.556  68.963  1.00  0.00    -0.230 A  
HETATM   14  C   UNL     1     -10.517   9.210  69.068  1.00  0.00    -0.238 A  
HETATM   15  C   UNL     1     -10.585   8.353  67.955  1.00  0.00    -0.154 A  
HETATM   16  C   UNL     1     -10.215   8.931  66.723  1.00  0.00    -0.348 A  
HETATM   17  C   UNL     1      -9.831  10.273  66.603  1.00  0.00    -0.256 A  
BRANCH  15  18
HETATM   18  N   UNL     1     -10.906   7.005  68.053  1.00  0.00    -0.191 NA 
HETATM   19  C   UNL     1     -10.674   6.269  69.297  1.00  0.00    -0.305 C  
HETATM   20  C   UNL     1     -10.967   6.152  66.868  1.00  0.00    -0.305 C  
ENDBRANCH  15  18
ENDBRANCH  10  12
ENDBRANCH   9  10
ENDBRANCH   6   9
ENDBRANCH   3   4
ENDBRANCH   2   3
TORSDOF 6
ENDMDL
MODEL      127
REMARK 921   NORMALIZED FREE ENERGY PREDICTED BY IDOCK:   -4.24 KCAL/MOL
REMARK 922        TOTAL FREE ENERGY PREDICTED BY IDOCK:   -6.32 KCAL/MOL
REMARK 923 INTER-LIGAND FREE ENERGY PREDICTED BY IDOCK:   -5.90 KCAL/MOL
REMARK 924 INTRA-LIGAND FREE ENERGY PREDICTED BY IDOCK:   -0.41 KCAL/MOL
REMARK 927      BINDING AFFINITY PREDICTED BY RF-SCORE:    0.00 PKD
ROOT
HETATM    1  C   UNL     1     -10.789  15.635  68.214  1.00  0.00    -0.298 C  
HETATM    2  C   UNL     1     -11.434  15.209  66.903  1.00  0.00    -0.215 C  
ENDROOT
BRANCH   2   3
HETATM    3  C   UNL     1     -10.381  14.694  65.923  1.00  0.00    -0.334 C  
BRANCH   3   4
HETATM    4  C   UNL     1      -9.948  13.255  66.235  1.00  0.00    -0.291 C  
HETATM    5  C   UNL     1     -11.094  12.234  66.038  1.00  0.00    -0.347 C  
HETATM    6  C   UNL     1     -10.648  10.810  66.412  1.00  0.00    -0.203 C  
HETATM    7  C   UNL     1     -11.705  12.235  64.621  1.00  0.00    -0.420 C  
HETATM    8  C   UNL     1     -10.758  11.816  63.504  1.00  0.00    -0.501 C  
BRANCH   6   9
HETATM    9  O   UNL     1     -10.217  10.682  67.776  1.00  0.00    -0.169 OA 
BRANCH   9  10
HETATM   10  C   UNL     1     -11.204  10.527  68.693  1.00  0.00    -0.270 C  
HETATM   11  O   UNL     1     -12.261  11.133  68.725  1.00  0.00    -0.555 OA 
BRANCH  10  12
HETATM   12  C   UNL     1     -10.857   9.435  69.643  1.00  0.00    -0.245 A  
HETATM   13  C   UNL     1     -10.798   9.717  71.004  1.00  0.00    -0.412 A  
HETATM   14  C   UNL     1     -10.532   8.695  71.934  1.00  0.00    -0.410 A  
HETATM   15  C   UNL     1     -10.313   7.361  71.548  1.00  0.00    -0.200 A  
HETATM   16  C   UNL     1     -10.365   7.115  70.161  1.00  0.00    -0.218 A  
HETATM   17  C   UNL     1     -10.643   8.120  69.225  1.00  0.00    -0.191 A  
BRANCH  15  18
HETATM   18  N   UNL     1      -9.979   6.355  72.447  1.00  0.00    -0.171 NA 
HETATM   19  C   UNL     1     -10.371   6.449  73.855  1.00  0.00    -0.322 C  
HETATM   20  C   UNL     1      -8.832   5.479  72.214  1.00  0.00    -0.132 C  
ENDBRANCH  15  18
ENDBRANCH  10  12
ENDBRANCH   9  10
ENDBRANCH   6   9
ENDBRANCH   3   4
ENDBRANCH   2   3
TORSDOF 6
ENDMDL
MODEL      128
REMARK 921   NORMALIZED FREE ENERGY PREDICTED BY IDOCK:   -4.24 KCAL/MOL
REMARK 922        TOTAL FREE ENERGY PREDICTED BY IDOCK:   -6.31 KCAL/MOL
REMARK 923 INTER-LIGAND FREE ENERGY PREDICTED BY IDOCK:   -5.74 KCAL/MOL
REMARK 924 INTRA-LIGAND FREE ENERGY PREDICTED BY IDOCK:   -0.57 KCAL/MOL
REMARK 927      BINDING AFFINITY PREDICTED BY RF-SCORE:    0.00 PKD
ROOT
HETATM    1  C   UNL     1     -13.200  13.238  71.551  1.00  0.00    -0.383 C  
HETATM    2  C   UNL     1     -13.025  11.764  71.885  1.00  0.00    -0.435 C  
ENDROOT
BRANCH   2   3
HETATM    3  C   UNL     1     -12.135  11.075  70.850  1.00  0.00    -0.444 C  
BRANCH   3   4
HETATM    4  C   UNL     1     -12.112  11.823  69.510  1.00  0.00    -0.314 C  
HETATM    5  C   UNL     1     -10.698  11.880  68.886  1.00  0.00    -0.236 C  
HETATM    6  C   UNL     1     -10.696  12.684  67.574  1.00  0.00    -0.225 C  
HETATM    7  C   UNL     1     -10.054  10.497  68.653  1.00  0.00    -0.190 C  
HETATM    8  C   UNL     1     -10.772   9.607  67.647  1.00  0.00    -0.324 C  
BRANCH   6   9
HETATM    9  O   UNL     1     -11.127  14.045  67.732  1.00  0.00    -0.255 OA 
BRANCH   9  10
HETATM   10  C   UNL     1     -10.856  14.873  66.693  1.00  0.00    -0.319 C  
HETATM   11  O   UNL     1     -11.427  14.888  65.616  1.00  0.00    -0.343 OA 
BRANCH  10  12
HETATM   12  C   UNL     1      -9.792  15.843  67.071  1.00  0.00    -0.236 A  
HETATM   13  C   UNL     1      -9.559  16.097  68.418  1.00  0.00    -0.209 A  
HETATM   14  C   UNL     1      -8.522  16.962  68.812  1.00  0.00    -0.244 A  
HETATM   15  C   UNL     1      -7.683  17.607  67.885  1.00  0.00    -0.216 A  
HETATM   16  C   UNL     1      -7.958  17.337  66.529  1.00  0.00    -0.318 A  
HETATM   17  C   UNL     1      -8.979  16.467  66.124  1.00  0.00    -0.367 A  
BRANCH  15  18
HETATM   18  N   UNL     1      -6.701  18.519  68.255  1.00  0.00    -0.219 NA 
HETATM   19  C   UNL     1      -7.025  19.935  68.434  1.00  0.00    -0.300 C  
HETATM   20  C   UNL     1      -5.289  18.269  67.972  1.00  0.00    -0.158 C  
ENDBRANCH  15  18
ENDBRANCH  10  12
ENDBRANCH   9  10
ENDBRANCH   6   9
ENDBRANCH   3   4
ENDBRANCH   2   3
TORSDOF 6
ENDMDL
MODEL      129
REMARK 921   NORMALIZED FREE ENERGY PREDICTED BY IDOCK:   -4.22 KCAL/MOL
REMARK 922        TOTAL FREE ENERGY PREDICTED BY IDOCK:   -6.29 KCAL/MOL
REMARK 923 INTER-LIGAND FREE ENERGY PREDICTED BY IDOCK:   -5.86 KCAL/MOL
REMARK 924 INTRA-LIGAND FREE ENERGY PREDICTED BY IDOCK:   -0.43 KCAL/MOL
REMARK 927      BINDING AFFINITY PREDICTED BY RF-SCORE:    0.00 PKD
ROOT
HETATM    1  C   UNL     1      -8.340  16.674  66.173  1.00  0.00    -0.305 C  
HETATM    2  C   UNL     1      -9.165  15.570  66.816  1.00  0.00    -0.272 C  
ENDROOT
BRANCH   2   3
HETATM    3  C   UNL     1     -10.636  15.975  66.905  1.00  0.00    -0.300 C  
BRANCH   3   4
HETATM    4  C   UNL     1     -11.499  14.897  67.574  1.00  0.00    -0.361 C  
HETATM    5  C   UNL     1     -10.823  14.285  68.823  1.00  0.00    -0.265 C  
HETATM    6  C   UNL     1     -11.684  13.169  69.438  1.00  0.00    -0.327 C  
HETATM    7  C   UNL     1     -10.449  15.316  69.910  1.00  0.00    -0.277 C  
HETATM    8  C   UNL     1     -11.626  16.039  70.551  1.00  0.00    -0.383 C  
BRANCH   6   9
HETATM    9  O   UNL     1     -11.942  12.079  68.539  1.00  0.00    -0.325 OA 
BRANCH   9  10
HETATM   10  C   UNL     1     -10.879  11.287  68.253  1.00  0.00    -0.205 C  
HETATM   11  O   UNL     1     -10.210  11.318  67.233  1.00  0.00    -0.186 OA 
BRANCH  10  12
HETATM   12  C   UNL     1     -10.571  10.401  69.408  1.00  0.00    -0.267 A  
HETATM   13  C   UNL     1      -9.247  10.064  69.666  1.00  0.00    -0.236 A  
HETATM   14  C   UNL     1      -8.916   9.277  70.785  1.00  0.00    -0.292 A  
HETATM   15  C   UNL     1      -9.884   8.797  71.684  1.00  0.00    -0.308 A  
HETATM   16  C   UNL     1     -11.216   9.146  71.383  1.00  0.00    -0.419 A  
HETATM   17  C   UNL     1     -11.559   9.940  70.281  1.00  0.00    -0.319 A  
BRANCH  15  18
HETATM   18  N   UNL     1      -9.581   7.961  72.753  1.00  0.00    -0.220 NA 
HETATM   19  C   UNL     1     -10.642   7.263  73.482  1.00  0.00    -0.362 C  
HETATM   20  C   UNL     1      -8.352   8.132  73.524  1.00  0.00    -0.236 C  
ENDBRANCH  15  18
ENDBRANCH  10  12
ENDBRANCH   9  10
ENDBRANCH   6   9
ENDBRANCH   3   4
ENDBRANCH   2   3
TORSDOF 6
ENDMDL
MODEL      130
REMARK 921   NORMALIZED FREE ENERGY PREDICTED BY IDOCK:   -4.22 KCAL/MOL
REMARK 922        TOTAL FREE ENERGY PREDICTED BY IDOCK:   -6.28 KCAL/MOL
REMARK 923 INTER-LIGAND FREE ENERGY PREDICTED BY IDOCK:   -5.53 KCAL/MOL
REMARK 924 INTRA-LIGAND FREE ENERGY PREDICTED BY IDOCK:   -0.75 KCAL/MOL
REMARK 927      BINDING AFFINITY PREDICTED BY RF-SCORE:    0.00 PKD
ROOT
HETATM    1  C   UNL     1      -9.715   3.322  72.006  1.00  0.00    -0.235 C  
HETATM    2  C   UNL     1     -10.527   3.194  73.286  1.00  0.00    -0.255 C  
ENDROOT
BRANCH   2   3
HETATM    3  C   UNL     1     -11.460   4.393  73.458  1.00  0.00    -0.274 C  
BRANCH   3   4
HETATM    4  C   UNL     1     -11.025   5.596  72.610  1.00  0.00    -0.316 C  
HETATM    5  C   UNL     1     -10.661   6.829  73.471  1.00  0.00    -0.358 C  
HETATM    6  C   UNL     1     -10.285   8.035  72.593  1.00  0.00    -0.316 C  
HETATM    7  C   UNL     1      -9.547   6.569  74.508  1.00  0.00    -0.305 C  
HETATM    8  C   UNL     1      -8.185   6.219  73.924  1.00  0.00    -0.108 C  
BRANCH   6   9
HETATM    9  O   UNL     1     -11.336   8.452  71.708  1.00  0.00    -0.264 OA 
BRANCH   9  10
HETATM   10  C   UNL     1     -11.024   8.464  70.388  1.00  0.00    -0.239 C  
HETATM   11  O   UNL     1     -10.845   7.487  69.681  1.00  0.00    -0.243 OA 
BRANCH  10  12
HETATM   12  C   UNL     1     -11.003   9.861  69.876  1.00  0.00    -0.321 A  
HETATM   13  C   UNL     1     -12.036  10.724  70.228  1.00  0.00    -0.438 A  
HETATM   14  C   UNL     1     -12.016  12.068  69.811  1.00  0.00    -0.370 A  
HETATM   15  C   UNL     1     -10.975  12.601  69.030  1.00  0.00    -0.191 A  
HETATM   16  C   UNL     1      -9.954  11.695  68.680  1.00  0.00    -0.192 A  
HETATM   17  C   UNL     1      -9.954  10.357  69.101  1.00  0.00    -0.237 A  
BRANCH  15  18
HETATM   18  N   UNL     1     -10.977  13.906  68.551  1.00  0.00    -0.248 NA 
HETATM   19  C   UNL     1     -10.447  15.002  69.365  1.00  0.00    -0.247 C  
HETATM   20  C   UNL     1     -11.930  14.338  67.531  1.00  0.00    -0.376 C  
ENDBRANCH  15  18
ENDBRANCH  10  12
ENDBRANCH   9  10
ENDBRANCH   6   9
ENDBRANCH   3   4
ENDBRANCH   2   3
TORSDOF 6
ENDMDL
MODEL      131
REMARK 921   NORMALIZED FREE ENERGY PREDICTED BY IDOCK:   -4.19 KCAL/MOL
REMARK 922        TOTAL FREE ENERGY PREDICTED BY IDOCK:   -6.25 KCAL/MOL
REMARK 923 INTER-LIGAND FREE ENERGY PREDICTED BY IDOCK:   -5.49 KCAL/MOL
REMARK 924 INTRA-LIGAND FREE ENERGY PREDICTED BY IDOCK:   -0.76 KCAL/MOL
REMARK 927      BINDING AFFINITY PREDICTED BY RF-SCORE:    0.00 PKD
ROOT
HETATM    1  C   UNL     1     -11.482   8.972  70.380  1.00  0.00    -0.202 C  
HETATM    2  C   UNL     1     -10.707   7.679  70.588  1.00  0.00    -0.237 C  
ENDROOT
BRANCH   2   3
HETATM    3  C   UNL     1     -11.407   6.511  69.895  1.00  0.00    -0.469 C  
BRANCH   3   4
HETATM    4  C   UNL     1     -10.924   6.315  68.451  1.00  0.00    -0.409 C  
HETATM    5  C   UNL     1      -9.397   6.086  68.362  1.00  0.00    -0.120 C  
HETATM    6  C   UNL     1      -8.934   5.950  66.902  1.00  0.00    -0.115 C  
HETATM    7  C   UNL     1      -8.888   4.884  69.186  1.00  0.00    -0.118 C  
HETATM    8  C   UNL     1      -9.404   3.524  68.737  1.00  0.00    -0.233 C  
BRANCH   6   9
HETATM    9  O   UNL     1      -9.221   7.105  66.097  1.00  0.00    -0.155 OA 
BRANCH   9  10
HETATM   10  C   UNL     1      -8.645   8.264  66.502  1.00  0.00    -0.132 C  
HETATM   11  O   UNL     1      -7.584   8.374  67.093  1.00  0.00    -0.091 OA 
BRANCH  10  12
HETATM   12  C   UNL     1      -9.459   9.427  66.054  1.00  0.00    -0.304 A  
HETATM   13  C   UNL     1     -10.057  10.240  67.010  1.00  0.00    -0.268 A  
HETATM   14  C   UNL     1     -10.783  11.382  66.623  1.00  0.00    -0.316 A  
HETATM   15  C   UNL     1     -10.942  11.755  65.277  1.00  0.00    -0.295 A  
HETATM   16  C   UNL     1     -10.334  10.900  64.335  1.00  0.00    -0.430 A  
HETATM   17  C   UNL     1      -9.597   9.768  64.708  1.00  0.00    -0.284 A  
BRANCH  15  18
HETATM   18  N   UNL     1     -11.714  12.839  64.875  1.00  0.00    -0.334 NA 
HETATM   19  C   UNL     1     -12.598  13.520  65.823  1.00  0.00    -0.434 C  
HETATM   20  C   UNL     1     -12.102  13.017  63.477  1.00  0.00    -0.542 C  
ENDBRANCH  15  18
ENDBRANCH  10  12
ENDBRANCH   9  10
ENDBRANCH   6   9
ENDBRANCH   3   4
ENDBRANCH   2   3
TORSDOF 6
ENDMDL
MODEL      132
REMARK 921   NORMALIZED FREE ENERGY PREDICTED BY IDOCK:   -4.19 KCAL/MOL
REMARK 922        TOTAL FREE ENERGY PREDICTED BY IDOCK:   -6.25 KCAL/MOL
REMARK 923 INTER-LIGAND FREE ENERGY PREDICTED BY IDOCK:   -5.94 KCAL/MOL
REMARK 924 INTRA-LIGAND FREE ENERGY PREDICTED BY IDOCK:   -0.30 KCAL/MOL
REMARK 927      BINDING AFFINITY PREDICTED BY RF-SCORE:    0.00 PKD
ROOT
HETATM    1  C   UNL     1      -5.313  20.031  63.773  1.00  0.00    -0.254 C  
HETATM    2  C   UNL     1      -5.794  20.460  65.151  1.00  0.00    -0.246 C  
ENDROOT
BRANCH   2   3
HETATM    3  C   UNL     1      -5.963  19.249  66.068  1.00  0.00    -0.190 C  
BRANCH   3   4
HETATM    4  C   UNL     1      -7.280  18.504  65.814  1.00  0.00    -0.224 C  
HETATM    5  C   UNL     1      -8.102  18.293  67.108  1.00  0.00    -0.232 C  
HETATM    6  C   UNL     1      -9.388  17.495  66.832  1.00  0.00    -0.269 C  
HETATM    7  C   UNL     1      -8.448  19.598  67.857  1.00  0.00    -0.356 C  
HETATM    8  C   UNL     1      -9.352  20.562  67.100  1.00  0.00    -0.513 C  
BRANCH   6   9
HETATM    9  O   UNL     1      -9.148  16.189  66.284  1.00  0.00    -0.280 OA 
BRANCH   9  10
HETATM   10  C   UNL     1     -10.239  15.540  65.808  1.00  0.00    -0.366 C  
HETATM   11  O   UNL     1     -10.701  15.635  64.683  1.00  0.00    -0.431 OA 
BRANCH  10  12
HETATM   12  C   UNL     1     -10.775  14.610  66.839  1.00  0.00    -0.294 A  
HETATM   13  C   UNL     1     -11.037  13.290  66.486  1.00  0.00    -0.313 A  
HETATM   14  C   UNL     1     -11.488  12.370  67.450  1.00  0.00    -0.418 A  
HETATM   15  C   UNL     1     -11.696  12.725  68.795  1.00  0.00    -0.323 A  
HETATM   16  C   UNL     1     -11.434  14.073  69.113  1.00  0.00    -0.340 A  
HETATM   17  C   UNL     1     -10.972  14.997  68.165  1.00  0.00    -0.281 A  
BRANCH  15  18
HETATM   18  N   UNL     1     -12.208  11.846  69.743  1.00  0.00    -0.219 NA 
HETATM   19  C   UNL     1     -12.907  12.348  70.927  1.00  0.00    -0.090 C  
HETATM   20  C   UNL     1     -11.652  10.506  69.911  1.00  0.00    -0.307 C  
ENDBRANCH  15  18
ENDBRANCH  10  12
ENDBRANCH   9  10
ENDBRANCH   6   9
ENDBRANCH   3   4
ENDBRANCH   2   3
TORSDOF 6
ENDMDL
MODEL      133
REMARK 921   NORMALIZED FREE ENERGY PREDICTED BY IDOCK:   -4.19 KCAL/MOL
REMARK 922        TOTAL FREE ENERGY PREDICTED BY IDOCK:   -6.25 KCAL/MOL
REMARK 923 INTER-LIGAND FREE ENERGY PREDICTED BY IDOCK:   -5.09 KCAL/MOL
REMARK 924 INTRA-LIGAND FREE ENERGY PREDICTED BY IDOCK:   -1.16 KCAL/MOL
REMARK 927      BINDING AFFINITY PREDICTED BY RF-SCORE:    0.00 PKD
ROOT
HETATM    1  C   UNL     1     -12.592  12.488  64.392  1.00  0.00    -0.497 C  
HETATM    2  C   UNL     1     -11.883  12.272  65.721  1.00  0.00    -0.417 C  
ENDROOT
BRANCH   2   3
HETATM    3  C   UNL     1     -12.125  13.452  66.662  1.00  0.00    -0.429 C  
BRANCH   3   4
HETATM    4  C   UNL     1     -10.903  13.758  67.539  1.00  0.00    -0.274 C  
HETATM    5  C   UNL     1      -9.606  13.928  66.713  1.00  0.00    -0.288 C  
HETATM    6  C   UNL     1      -8.390  14.177  67.621  1.00  0.00    -0.182 C  
HETATM    7  C   UNL     1      -9.685  15.027  65.631  1.00  0.00    -0.344 C  
HETATM    8  C   UNL     1      -9.874  16.443  66.157  1.00  0.00    -0.362 C  
BRANCH   6   9
HETATM    9  O   UNL     1      -8.142  13.115  68.556  1.00  0.00    -0.144 OA 
BRANCH   9  10
HETATM   10  C   UNL     1      -7.702  11.950  68.019  1.00  0.00    -0.132 C  
HETATM   11  O   UNL     1      -6.749  11.815  67.271  1.00  0.00    -0.107 OA 
BRANCH  10  12
HETATM   12  C   UNL     1      -8.506  10.809  68.537  1.00  0.00    -0.143 A  
HETATM   13  C   UNL     1      -8.129  10.204  69.731  1.00  0.00    -0.167 A  
HETATM   14  C   UNL     1      -8.901   9.163  70.278  1.00  0.00    -0.238 A  
HETATM   15  C   UNL     1     -10.071   8.685  69.661  1.00  0.00    -0.201 A  
HETATM   16  C   UNL     1     -10.414   9.311  68.446  1.00  0.00    -0.246 A  
HETATM   17  C   UNL     1      -9.662  10.359  67.896  1.00  0.00    -0.168 A  
BRANCH  15  18
HETATM   18  N   UNL     1     -10.804   7.611  70.152  1.00  0.00    -0.248 NA 
HETATM   19  C   UNL     1     -10.658   7.180  71.544  1.00  0.00    -0.207 C  
HETATM   20  C   UNL     1     -11.308   6.567  69.263  1.00  0.00    -0.294 C  
ENDBRANCH  15  18
ENDBRANCH  10  12
ENDBRANCH   9  10
ENDBRANCH   6   9
ENDBRANCH   3   4
ENDBRANCH   2   3
TORSDOF 6
ENDMDL
MODEL      134
REMARK 921   NORMALIZED FREE ENERGY PREDICTED BY IDOCK:   -4.18 KCAL/MOL
REMARK 922        TOTAL FREE ENERGY PREDICTED BY IDOCK:   -6.24 KCAL/MOL
REMARK 923 INTER-LIGAND FREE ENERGY PREDICTED BY IDOCK:   -5.39 KCAL/MOL
REMARK 924 INTRA-LIGAND FREE ENERGY PREDICTED BY IDOCK:   -0.84 KCAL/MOL
REMARK 927      BINDING AFFINITY PREDICTED BY RF-SCORE:    0.00 PKD
ROOT
HETATM    1  C   UNL     1     -10.199  13.891  68.433  1.00  0.00    -0.243 C  
HETATM    2  C   UNL     1     -11.363  12.956  68.724  1.00  0.00    -0.333 C  
ENDROOT
BRANCH   2   3
HETATM    3  C   UNL     1     -11.654  12.061  67.519  1.00  0.00    -0.401 C  
BRANCH   3   4
HETATM    4  C   UNL     1     -11.024  10.669  67.661  1.00  0.00    -0.370 C  
HETATM    5  C   UNL     1     -10.362  10.179  66.351  1.00  0.00    -0.258 C  
HETATM    6  C   UNL     1      -9.791   8.760  66.507  1.00  0.00    -0.279 C  
HETATM    7  C   UNL     1      -9.272  11.125  65.802  1.00  0.00    -0.234 C  
HETATM    8  C   UNL     1      -8.048  11.291  66.693  1.00  0.00    -0.160 C  
BRANCH   6   9
HETATM    9  O   UNL     1     -10.778   7.777  66.856  1.00  0.00    -0.345 OA 
BRANCH   9  10
HETATM   10  C   UNL     1     -10.301   6.547  67.169  1.00  0.00    -0.247 C  
HETATM   11  O   UNL     1      -9.837   5.734  66.388  1.00  0.00    -0.157 OA 
BRANCH  10  12
HETATM   12  C   UNL     1     -10.343   6.338  68.642  1.00  0.00    -0.243 A  
HETATM   13  C   UNL     1      -9.168   6.012  69.311  1.00  0.00    -0.133 A  
HETATM   14  C   UNL     1      -9.161   5.866  70.711  1.00  0.00    -0.167 A  
HETATM   15  C   UNL     1     -10.317   6.035  71.494  1.00  0.00    -0.214 A  
HETATM   16  C   UNL     1     -11.491   6.350  70.780  1.00  0.00    -0.415 A  
HETATM   17  C   UNL     1     -11.510   6.512  69.388  1.00  0.00    -0.346 A  
BRANCH  15  18
HETATM   18  N   UNL     1     -10.341   5.824  72.867  1.00  0.00    -0.190 NA 
HETATM   19  C   UNL     1     -11.164   4.761  73.447  1.00  0.00    -0.343 C  
HETATM   20  C   UNL     1     -10.025   6.900  73.805  1.00  0.00    -0.312 C  
ENDBRANCH  15  18
ENDBRANCH  10  12
ENDBRANCH   9  10
ENDBRANCH   6   9
ENDBRANCH   3   4
ENDBRANCH   2   3
TORSDOF 6
ENDMDL
MODEL      135
REMARK 921   NORMALIZED FREE ENERGY PREDICTED BY IDOCK:   -4.16 KCAL/MOL
REMARK 922        TOTAL FREE ENERGY PREDICTED BY IDOCK:   -6.21 KCAL/MOL
REMARK 923 INTER-LIGAND FREE ENERGY PREDICTED BY IDOCK:   -5.11 KCAL/MOL
REMARK 924 INTRA-LIGAND FREE ENERGY PREDICTED BY IDOCK:   -1.10 KCAL/MOL
REMARK 927      BINDING AFFINITY PREDICTED BY RF-SCORE:    0.00 PKD
ROOT
HETATM    1  C   UNL     1      -5.454  12.244  68.566  1.00  0.00    -0.054 C  
HETATM    2  C   UNL     1      -5.864  13.329  67.581  1.00  0.00    -0.107 C  
ENDROOT
BRANCH   2   3
HETATM    3  C   UNL     1      -7.135  14.035  68.052  1.00  0.00    -0.147 C  
BRANCH   3   4
HETATM    4  C   UNL     1      -7.672  15.027  67.011  1.00  0.00    -0.120 C  
HETATM    5  C   UNL     1      -7.589  16.495  67.490  1.00  0.00    -0.170 C  
HETATM    6  C   UNL     1      -8.186  17.460  66.451  1.00  0.00    -0.271 C  
HETATM    7  C   UNL     1      -6.167  16.955  67.875  1.00  0.00    -0.145 C  
HETATM    8  C   UNL     1      -5.159  16.973  66.734  1.00  0.00    -0.168 C  
BRANCH   6   9
HETATM    9  O   UNL     1      -9.568  17.205  66.156  1.00  0.00    -0.364 OA 
BRANCH   9  10
HETATM   10  C   UNL     1     -10.449  17.537  67.131  1.00  0.00    -0.312 C  
HETATM   11  O   UNL     1     -10.908  18.647  67.341  1.00  0.00    -0.439 OA 
BRANCH  10  12
HETATM   12  C   UNL     1     -10.860  16.323  67.889  1.00  0.00    -0.330 A  
HETATM   13  C   UNL     1     -11.300  15.206  67.188  1.00  0.00    -0.291 A  
HETATM   14  C   UNL     1     -11.638  14.022  67.870  1.00  0.00    -0.377 A  
HETATM   15  C   UNL     1     -11.554  13.906  69.269  1.00  0.00    -0.309 A  
HETATM   16  C   UNL     1     -11.118  15.062  69.947  1.00  0.00    -0.298 A  
HETATM   17  C   UNL     1     -10.765  16.243  69.280  1.00  0.00    -0.307 A  
BRANCH  15  18
HETATM   18  N   UNL     1     -11.951  12.769  69.962  1.00  0.00    -0.335 NA 
HETATM   19  C   UNL     1     -12.020  11.469  69.290  1.00  0.00    -0.330 C  
HETATM   20  C   UNL     1     -12.796  12.862  71.150  1.00  0.00    -0.238 C  
ENDBRANCH  15  18
ENDBRANCH  10  12
ENDBRANCH   9  10
ENDBRANCH   6   9
ENDBRANCH   3   4
ENDBRANCH   2   3
TORSDOF 6
ENDMDL
MODEL      136
REMARK 921   NORMALIZED FREE ENERGY PREDICTED BY IDOCK:   -4.15 KCAL/MOL
REMARK 922        TOTAL FREE ENERGY PREDICTED BY IDOCK:   -6.19 KCAL/MOL
REMARK 923 INTER-LIGAND FREE ENERGY PREDICTED BY IDOCK:   -5.37 KCAL/MOL
REMARK 924 INTRA-LIGAND FREE ENERGY PREDICTED BY IDOCK:   -0.82 KCAL/MOL
REMARK 927      BINDING AFFINITY PREDICTED BY RF-SCORE:    0.00 PKD
ROOT
HETATM    1  C   UNL     1     -13.783  15.652  72.962  1.00  0.00    -0.560 C  
HETATM    2  C   UNL     1     -12.376  16.173  73.211  1.00  0.00    -0.647 C  
ENDROOT
BRANCH   2   3
HETATM    3  C   UNL     1     -11.402  15.621  72.170  1.00  0.00    -0.368 C  
BRANCH   3   4
HETATM    4  C   UNL     1     -12.044  15.489  70.782  1.00  0.00    -0.435 C  
HETATM    5  C   UNL     1     -11.670  14.164  70.077  1.00  0.00    -0.358 C  
HETATM    6  C   UNL     1     -12.280  14.086  68.667  1.00  0.00    -0.183 C  
HETATM    7  C   UNL     1     -12.037  12.896  70.877  1.00  0.00    -0.162 C  
HETATM    8  C   UNL     1     -13.527  12.683  71.108  1.00  0.00     0.363 C  
BRANCH   6   9
HETATM    9  O   UNL     1     -11.855  15.146  67.796  1.00  0.00    -0.310 OA 
BRANCH   9  10
HETATM   10  C   UNL     1     -10.532  15.170  67.501  1.00  0.00    -0.258 C  
HETATM   11  O   UNL     1      -9.716  15.979  67.909  1.00  0.00    -0.219 OA 
BRANCH  10  12
HETATM   12  C   UNL     1     -10.174  14.002  66.650  1.00  0.00    -0.275 A  
HETATM   13  C   UNL     1      -9.261  13.070  67.133  1.00  0.00    -0.226 A  
HETATM   14  C   UNL     1      -8.945  11.924  66.381  1.00  0.00    -0.180 A  
HETATM   15  C   UNL     1      -9.521  11.663  65.124  1.00  0.00    -0.133 A  
HETATM   16  C   UNL     1     -10.429  12.635  64.661  1.00  0.00    -0.361 A  
HETATM   17  C   UNL     1     -10.763  13.775  65.406  1.00  0.00    -0.320 A  
BRANCH  15  18
HETATM   18  N   UNL     1      -9.166  10.573  64.338  1.00  0.00    -0.224 NA 
HETATM   19  C   UNL     1      -9.575  10.499  62.934  1.00  0.00    -0.322 C  
HETATM   20  C   UNL     1      -8.873   9.271  64.935  1.00  0.00    -0.193 C  
ENDBRANCH  15  18
ENDBRANCH  10  12
ENDBRANCH   9  10
ENDBRANCH   6   9
ENDBRANCH   3   4
ENDBRANCH   2   3
TORSDOF 6
ENDMDL
MODEL      137
REMARK 921   NORMALIZED FREE ENERGY PREDICTED BY IDOCK:   -4.15 KCAL/MOL
REMARK 922        TOTAL FREE ENERGY PREDICTED BY IDOCK:   -6.19 KCAL/MOL
REMARK 923 INTER-LIGAND FREE ENERGY PREDICTED BY IDOCK:   -5.47 KCAL/MOL
REMARK 924 INTRA-LIGAND FREE ENERGY PREDICTED BY IDOCK:   -0.72 KCAL/MOL
REMARK 927      BINDING AFFINITY PREDICTED BY RF-SCORE:    0.00 PKD
ROOT
HETATM    1  C   UNL     1     -12.744  11.969  63.520  1.00  0.00    -0.567 C  
HETATM    2  C   UNL     1     -11.920  13.246  63.595  1.00  0.00    -0.547 C  
ENDROOT
BRANCH   2   3
HETATM    3  C   UNL     1     -10.550  12.970  64.213  1.00  0.00    -0.434 C  
BRANCH   3   4
HETATM    4  C   UNL     1     -10.629  12.004  65.402  1.00  0.00    -0.319 C  
HETATM    5  C   UNL     1      -9.967  12.575  66.678  1.00  0.00    -0.243 C  
HETATM    6  C   UNL     1     -10.011  11.563  67.836  1.00  0.00    -0.183 C  
HETATM    7  C   UNL     1     -10.551  13.927  67.142  1.00  0.00    -0.277 C  
HETATM    8  C   UNL     1     -12.010  13.890  67.574  1.00  0.00    -0.421 C  
BRANCH   6   9
HETATM    9  O   UNL     1      -9.339  10.328  67.546  1.00  0.00    -0.147 OA 
BRANCH   9  10
HETATM   10  C   UNL     1     -10.042   9.199  67.810  1.00  0.00    -0.203 C  
HETATM   11  O   UNL     1     -10.721   8.570  67.017  1.00  0.00    -0.275 OA 
BRANCH  10  12
HETATM   12  C   UNL     1      -9.811   8.767  69.216  1.00  0.00    -0.180 A  
HETATM   13  C   UNL     1     -10.907   8.547  70.043  1.00  0.00    -0.225 A  
HETATM   14  C   UNL     1     -10.727   8.080  71.358  1.00  0.00    -0.270 A  
HETATM   15  C   UNL     1      -9.456   7.818  71.899  1.00  0.00    -0.153 A  
HETATM   16  C   UNL     1      -8.368   8.065  71.038  1.00  0.00    -0.120 A  
HETATM   17  C   UNL     1      -8.534   8.517  69.721  1.00  0.00    -0.129 A  
BRANCH  15  18
HETATM   18  N   UNL     1      -9.258   7.425  73.218  1.00  0.00    -0.166 NA 
HETATM   19  C   UNL     1     -10.307   6.715  73.953  1.00  0.00    -0.360 C  
HETATM   20  C   UNL     1      -8.301   8.116  74.079  1.00  0.00    -0.247 C  
ENDBRANCH  15  18
ENDBRANCH  10  12
ENDBRANCH   9  10
ENDBRANCH   6   9
ENDBRANCH   3   4
ENDBRANCH   2   3
TORSDOF 6
ENDMDL
MODEL      138
REMARK 921   NORMALIZED FREE ENERGY PREDICTED BY IDOCK:   -4.13 KCAL/MOL
REMARK 922        TOTAL FREE ENERGY PREDICTED BY IDOCK:   -6.17 KCAL/MOL
REMARK 923 INTER-LIGAND FREE ENERGY PREDICTED BY IDOCK:   -5.37 KCAL/MOL
REMARK 924 INTRA-LIGAND FREE ENERGY PREDICTED BY IDOCK:   -0.80 KCAL/MOL
REMARK 927      BINDING AFFINITY PREDICTED BY RF-SCORE:    0.00 PKD
ROOT
HETATM    1  C   UNL     1      -5.992  14.567  68.886  1.00  0.00    -0.086 C  
HETATM    2  C   UNL     1      -7.121  14.070  67.996  1.00  0.00    -0.147 C  
ENDROOT
BRANCH   2   3
HETATM    3  C   UNL     1      -7.908  15.244  67.413  1.00  0.00    -0.220 C  
BRANCH   3   4
HETATM    4  C   UNL     1      -9.409  14.944  67.307  1.00  0.00    -0.210 C  
HETATM    5  C   UNL     1     -10.191  15.371  68.572  1.00  0.00    -0.219 C  
HETATM    6  C   UNL     1     -11.682  15.006  68.460  1.00  0.00    -0.320 C  
HETATM    7  C   UNL     1     -10.043  16.864  68.934  1.00  0.00    -0.297 C  
HETATM    8  C   UNL     1     -10.608  17.839  67.910  1.00  0.00    -0.389 C  
BRANCH   6   9
HETATM    9  O   UNL     1     -11.919  13.600  68.288  1.00  0.00    -0.354 OA 
BRANCH   9  10
HETATM   10  C   UNL     1     -11.895  12.856  69.421  1.00  0.00    -0.312 C  
HETATM   11  O   UNL     1     -12.272  13.211  70.526  1.00  0.00    -0.357 OA 
BRANCH  10  12
HETATM   12  C   UNL     1     -11.406  11.482  69.124  1.00  0.00    -0.351 A  
HETATM   13  C   UNL     1     -11.270  10.573  70.168  1.00  0.00    -0.389 A  
HETATM   14  C   UNL     1     -10.868   9.249  69.914  1.00  0.00    -0.252 A  
HETATM   15  C   UNL     1     -10.585   8.781  68.618  1.00  0.00    -0.139 A  
HETATM   16  C   UNL     1     -10.719   9.733  67.588  1.00  0.00    -0.334 A  
HETATM   17  C   UNL     1     -11.132  11.051  67.825  1.00  0.00    -0.356 A  
BRANCH  15  18
HETATM   18  N   UNL     1     -10.119   7.497  68.360  1.00  0.00    -0.175 NA 
HETATM   19  C   UNL     1      -9.218   7.241  67.234  1.00  0.00    -0.131 C  
HETATM   20  C   UNL     1     -10.863   6.318  68.798  1.00  0.00    -0.333 C  
ENDBRANCH  15  18
ENDBRANCH  10  12
ENDBRANCH   9  10
ENDBRANCH   6   9
ENDBRANCH   3   4
ENDBRANCH   2   3
TORSDOF 6
ENDMDL
MODEL      139
REMARK 921   NORMALIZED FREE ENERGY PREDICTED BY IDOCK:   -4.11 KCAL/MOL
REMARK 922        TOTAL FREE ENERGY PREDICTED BY IDOCK:   -6.14 KCAL/MOL
REMARK 923 INTER-LIGAND FREE ENERGY PREDICTED BY IDOCK:   -5.49 KCAL/MOL
REMARK 924 INTRA-LIGAND FREE ENERGY PREDICTED BY IDOCK:   -0.65 KCAL/MOL
REMARK 927      BINDING AFFINITY PREDICTED BY RF-SCORE:    0.00 PKD
ROOT
HETATM    1  C   UNL     1      -8.385  18.552  68.567  1.00  0.00    -0.359 C  
HETATM    2  C   UNL     1      -9.050  17.203  68.338  1.00  0.00    -0.263 C  
ENDROOT
BRANCH   2   3
HETATM    3  C   UNL     1     -10.566  17.311  68.502  1.00  0.00    -0.350 C  
BRANCH   3   4
HETATM    4  C   UNL     1     -11.285  16.000  68.158  1.00  0.00    -0.325 C  
HETATM    5  C   UNL     1     -10.987  14.874  69.176  1.00  0.00    -0.266 C  
HETATM    6  C   UNL     1     -11.675  13.558  68.775  1.00  0.00    -0.337 C  
HETATM    7  C   UNL     1     -11.347  15.229  70.635  1.00  0.00    -0.345 C  
HETATM    8  C   UNL     1     -12.828  15.465  70.899  1.00  0.00    -0.536 C  
BRANCH   6   9
HETATM    9  O   UNL     1     -11.267  13.064  67.489  1.00  0.00    -0.261 OA 
BRANCH   9  10
HETATM   10  C   UNL     1     -10.017  12.540  67.429  1.00  0.00    -0.207 C  
HETATM   11  O   UNL     1      -8.999  13.136  67.122  1.00  0.00    -0.211 OA 
BRANCH  10  12
HETATM   12  C   UNL     1     -10.033  11.119  67.874  1.00  0.00    -0.189 A  
HETATM   13  C   UNL     1     -10.619  10.161  67.054  1.00  0.00    -0.290 A  
HETATM   14  C   UNL     1     -10.598   8.802  67.416  1.00  0.00    -0.304 A  
HETATM   15  C   UNL     1      -9.999   8.346  68.604  1.00  0.00    -0.184 A  
HETATM   16  C   UNL     1      -9.428   9.346  69.417  1.00  0.00    -0.177 A  
HETATM   17  C   UNL     1      -9.430  10.701  69.061  1.00  0.00    -0.202 A  
BRANCH  15  18
HETATM   18  N   UNL     1     -10.032   7.017  69.009  1.00  0.00    -0.160 NA 
HETATM   19  C   UNL     1      -9.092   6.041  68.455  1.00  0.00    -0.112 C  
HETATM   20  C   UNL     1     -11.253   6.418  69.545  1.00  0.00    -0.412 C  
ENDBRANCH  15  18
ENDBRANCH  10  12
ENDBRANCH   9  10
ENDBRANCH   6   9
ENDBRANCH   3   4
ENDBRANCH   2   3
TORSDOF 6
ENDMDL
MODEL      140
REMARK 921   NORMALIZED FREE ENERGY PREDICTED BY IDOCK:   -4.09 KCAL/MOL
REMARK 922        TOTAL FREE ENERGY PREDICTED BY IDOCK:   -6.12 KCAL/MOL
REMARK 923 INTER-LIGAND FREE ENERGY PREDICTED BY IDOCK:   -5.46 KCAL/MOL
REMARK 924 INTRA-LIGAND FREE ENERGY PREDICTED BY IDOCK:   -0.65 KCAL/MOL
REMARK 927      BINDING AFFINITY PREDICTED BY RF-SCORE:    0.00 PKD
ROOT
HETATM    1  C   UNL     1     -11.130   6.560  67.147  1.00  0.00    -0.434 C  
HETATM    2  C   UNL     1     -11.003   6.141  68.604  1.00  0.00    -0.415 C  
ENDROOT
BRANCH   2   3
HETATM    3  C   UNL     1      -9.684   6.637  69.198  1.00  0.00    -0.148 C  
BRANCH   3   4
HETATM    4  C   UNL     1      -9.216   7.952  68.560  1.00  0.00    -0.138 C  
HETATM    5  C   UNL     1      -9.536   9.185  69.438  1.00  0.00    -0.161 C  
HETATM    6  C   UNL     1      -9.107  10.492  68.748  1.00  0.00    -0.166 C  
HETATM    7  C   UNL     1      -8.936   9.123  70.859  1.00  0.00    -0.298 C  
HETATM    8  C   UNL     1      -7.415   9.117  70.922  1.00  0.00    -0.136 C  
BRANCH   6   9
HETATM    9  O   UNL     1      -9.751  10.714  67.484  1.00  0.00    -0.163 OA 
BRANCH   9  10
HETATM   10  C   UNL     1     -10.930  11.381  67.532  1.00  0.00    -0.260 C  
HETATM   11  O   UNL     1     -12.030  10.889  67.720  1.00  0.00    -0.553 OA 
BRANCH  10  12
HETATM   12  C   UNL     1     -10.699  12.845  67.401  1.00  0.00    -0.252 A  
HETATM   13  C   UNL     1     -11.296  13.708  68.315  1.00  0.00    -0.322 A  
HETATM   14  C   UNL     1     -11.050  15.092  68.256  1.00  0.00    -0.292 A  
HETATM   15  C   UNL     1     -10.206  15.669  67.290  1.00  0.00    -0.266 A  
HETATM   16  C   UNL     1      -9.630  14.767  66.372  1.00  0.00    -0.324 A  
HETATM   17  C   UNL     1      -9.856  13.385  66.428  1.00  0.00    -0.299 A  
BRANCH  15  18
HETATM   18  N   UNL     1     -10.010  17.040  67.174  1.00  0.00    -0.273 NA 
HETATM   19  C   UNL     1     -10.292  17.933  68.300  1.00  0.00    -0.383 C  
HETATM   20  C   UNL     1     -10.044  17.704  65.873  1.00  0.00    -0.181 C  
ENDBRANCH  15  18
ENDBRANCH  10  12
ENDBRANCH   9  10
ENDBRANCH   6   9
ENDBRANCH   3   4
ENDBRANCH   2   3
TORSDOF 6
ENDMDL
MODEL      141
REMARK 921   NORMALIZED FREE ENERGY PREDICTED BY IDOCK:   -4.09 KCAL/MOL
REMARK 922        TOTAL FREE ENERGY PREDICTED BY IDOCK:   -6.11 KCAL/MOL
REMARK 923 INTER-LIGAND FREE ENERGY PREDICTED BY IDOCK:   -5.10 KCAL/MOL
REMARK 924 INTRA-LIGAND FREE ENERGY PREDICTED BY IDOCK:   -1.01 KCAL/MOL
REMARK 927      BINDING AFFINITY PREDICTED BY RF-SCORE:    0.00 PKD
ROOT
HETATM    1  C   UNL     1     -14.408  15.443  72.174  1.00  0.00    -0.642 C  
HETATM    2  C   UNL     1     -13.144  15.615  73.003  1.00  0.00    -0.641 C  
ENDROOT
BRANCH   2   3
HETATM    3  C   UNL     1     -11.899  15.413  72.140  1.00  0.00    -0.536 C  
BRANCH   3   4
HETATM    4  C   UNL     1     -12.243  14.950  70.718  1.00  0.00    -0.387 C  
HETATM    5  C   UNL     1     -11.632  13.570  70.378  1.00  0.00    -0.078 C  
HETATM    6  C   UNL     1     -11.945  13.159  68.929  1.00  0.00    -0.277 C  
HETATM    7  C   UNL     1     -12.046  12.439  71.344  1.00  0.00     0.446 C  
HETATM    8  C   UNL     1     -13.530  12.099  71.347  1.00  0.00     0.198 C  
BRANCH   6   9
HETATM    9  O   UNL     1     -11.444  14.080  67.948  1.00  0.00    -0.282 OA 
BRANCH   9  10
HETATM   10  C   UNL     1     -10.094  14.197  67.886  1.00  0.00    -0.235 C  
HETATM   11  O   UNL     1      -9.287  13.286  67.950  1.00  0.00    -0.198 OA 
BRANCH  10  12
HETATM   12  C   UNL     1      -9.712  15.615  67.644  1.00  0.00    -0.225 A  
HETATM   13  C   UNL     1     -10.712  16.576  67.542  1.00  0.00    -0.283 A  
HETATM   14  C   UNL     1     -10.383  17.934  67.374  1.00  0.00    -0.383 A  
HETATM   15  C   UNL     1      -9.053  18.386  67.299  1.00  0.00    -0.266 A  
HETATM   16  C   UNL     1      -8.067  17.383  67.391  1.00  0.00    -0.213 A  
HETATM   17  C   UNL     1      -8.381  16.029  67.573  1.00  0.00    -0.177 A  
BRANCH  15  18
HETATM   18  N   UNL     1      -8.714  19.712  67.062  1.00  0.00    -0.303 NA 
HETATM   19  C   UNL     1      -7.314  20.141  67.080  1.00  0.00    -0.271 C  
HETATM   20  C   UNL     1      -9.664  20.794  67.313  1.00  0.00    -0.347 C  
ENDBRANCH  15  18
ENDBRANCH  10  12
ENDBRANCH   9  10
ENDBRANCH   6   9
ENDBRANCH   3   4
ENDBRANCH   2   3
TORSDOF 6
ENDMDL
MODEL      142
REMARK 921   NORMALIZED FREE ENERGY PREDICTED BY IDOCK:   -4.09 KCAL/MOL
REMARK 922        TOTAL FREE ENERGY PREDICTED BY IDOCK:   -6.11 KCAL/MOL
REMARK 923 INTER-LIGAND FREE ENERGY PREDICTED BY IDOCK:   -5.55 KCAL/MOL
REMARK 924 INTRA-LIGAND FREE ENERGY PREDICTED BY IDOCK:   -0.56 KCAL/MOL
REMARK 927      BINDING AFFINITY PREDICTED BY RF-SCORE:    0.00 PKD
ROOT
HETATM    1  C   UNL     1     -10.258   5.523  73.162  1.00  0.00    -0.213 C  
HETATM    2  C   UNL     1      -9.346   6.607  72.608  1.00  0.00    -0.149 C  
ENDROOT
BRANCH   2   3
HETATM    3  C   UNL     1      -9.839   7.993  73.020  1.00  0.00    -0.352 C  
BRANCH   3   4
HETATM    4  C   UNL     1     -10.027   8.927  71.816  1.00  0.00    -0.397 C  
HETATM    5  C   UNL     1     -11.214   8.507  70.918  1.00  0.00    -0.304 C  
HETATM    6  C   UNL     1     -11.342   9.426  69.691  1.00  0.00     0.008 C  
HETATM    7  C   UNL     1     -12.568   8.428  71.656  1.00  0.00    -0.362 C  
HETATM    8  C   UNL     1     -13.085   9.750  72.209  1.00  0.00    -0.445 C  
BRANCH   6   9
HETATM    9  O   UNL     1     -10.177   9.430  68.851  1.00  0.00    -0.187 OA 
BRANCH   9  10
HETATM   10  C   UNL     1     -10.412   9.526  67.519  1.00  0.00    -0.275 C  
HETATM   11  O   UNL     1     -10.754   8.618  66.780  1.00  0.00    -0.221 OA 
BRANCH  10  12
HETATM   12  C   UNL     1     -10.271  10.939  67.072  1.00  0.00    -0.256 A  
HETATM   13  C   UNL     1      -9.644  11.853  67.912  1.00  0.00    -0.193 A  
HETATM   14  C   UNL     1      -9.441  13.181  67.496  1.00  0.00    -0.212 A  
HETATM   15  C   UNL     1      -9.852  13.650  66.235  1.00  0.00    -0.301 A  
HETATM   16  C   UNL     1     -10.496  12.700  65.417  1.00  0.00    -0.306 A  
HETATM   17  C   UNL     1     -10.693  11.370  65.813  1.00  0.00    -0.309 A  
BRANCH  15  18
HETATM   18  N   UNL     1      -9.722  14.976  65.838  1.00  0.00    -0.326 NA 
HETATM   19  C   UNL     1      -8.763  15.864  66.498  1.00  0.00    -0.315 C  
HETATM   20  C   UNL     1     -10.819  15.680  65.179  1.00  0.00    -0.431 C  
ENDBRANCH  15  18
ENDBRANCH  10  12
ENDBRANCH   9  10
ENDBRANCH   6   9
ENDBRANCH   3   4
ENDBRANCH   2   3
TORSDOF 6
ENDMDL
MODEL      143
REMARK 921   NORMALIZED FREE ENERGY PREDICTED BY IDOCK:   -4.06 KCAL/MOL
REMARK 922        TOTAL FREE ENERGY PREDICTED BY IDOCK:   -6.07 KCAL/MOL
REMARK 923 INTER-LIGAND FREE ENERGY PREDICTED BY IDOCK:   -5.58 KCAL/MOL
REMARK 924 INTRA-LIGAND FREE ENERGY PREDICTED BY IDOCK:   -0.49 KCAL/MOL
REMARK 927      BINDING AFFINITY PREDICTED BY RF-SCORE:    0.00 PKD
ROOT
HETATM    1  C   UNL     1      -5.861  15.554  67.647  1.00  0.00    -0.132 C  
HETATM    2  C   UNL     1      -6.082  16.432  68.870  1.00  0.00    -0.141 C  
ENDROOT
BRANCH   2   3
HETATM    3  C   UNL     1      -7.372  17.240  68.731  1.00  0.00    -0.250 C  
BRANCH   3   4
HETATM    4  C   UNL     1      -8.574  16.360  68.361  1.00  0.00    -0.209 C  
HETATM    5  C   UNL     1      -9.920  16.971  68.817  1.00  0.00    -0.293 C  
HETATM    6  C   UNL     1     -11.100  16.042  68.484  1.00  0.00    -0.347 C  
HETATM    7  C   UNL     1     -10.194  18.385  68.260  1.00  0.00    -0.412 C  
HETATM    8  C   UNL     1     -10.344  18.469  66.747  1.00  0.00    -0.435 C  
BRANCH   6   9
HETATM    9  O   UNL     1     -11.008  14.750  69.104  1.00  0.00    -0.247 OA 
BRANCH   9  10
HETATM   10  C   UNL     1     -11.606  13.733  68.436  1.00  0.00    -0.334 C  
HETATM   11  O   UNL     1     -12.300  13.834  67.439  1.00  0.00    -0.312 OA 
BRANCH  10  12
HETATM   12  C   UNL     1     -11.234  12.427  69.047  1.00  0.00    -0.320 A  
HETATM   13  C   UNL     1     -12.117  11.821  69.933  1.00  0.00    -0.359 A  
HETATM   14  C   UNL     1     -11.823  10.559  70.482  1.00  0.00    -0.442 A  
HETATM   15  C   UNL     1     -10.645   9.856  70.174  1.00  0.00    -0.297 A  
HETATM   16  C   UNL     1      -9.767  10.508  69.283  1.00  0.00    -0.215 A  
HETATM   17  C   UNL     1     -10.053  11.758  68.719  1.00  0.00    -0.153 A  
BRANCH  15  18
HETATM   18  N   UNL     1     -10.308   8.643  70.762  1.00  0.00    -0.196 NA 
HETATM   19  C   UNL     1     -10.241   8.510  72.218  1.00  0.00    -0.325 C  
HETATM   20  C   UNL     1      -9.516   7.646  70.043  1.00  0.00    -0.161 C  
ENDBRANCH  15  18
ENDBRANCH  10  12
ENDBRANCH   9  10
ENDBRANCH   6   9
ENDBRANCH   3   4
ENDBRANCH   2   3
TORSDOF 6
ENDMDL
MODEL      144
REMARK 921   NORMALIZED FREE ENERGY PREDICTED BY IDOCK:   -4.06 KCAL/MOL
REMARK 922        TOTAL FREE ENERGY PREDICTED BY IDOCK:   -6.07 KCAL/MOL
REMARK 923 INTER-LIGAND FREE ENERGY PREDICTED BY IDOCK:   -5.40 KCAL/MOL
REMARK 924 INTRA-LIGAND FREE ENERGY PREDICTED BY IDOCK:   -0.67 KCAL/MOL
REMARK 927      BINDING AFFINITY PREDICTED BY RF-SCORE:    0.00 PKD
ROOT
HETATM    1  C   UNL     1      -8.798   3.330  73.072  1.00  0.00    -0.092 C  
HETATM    2  C   UNL     1      -8.625   3.370  71.561  1.00  0.00    -0.107 C  
ENDROOT
BRANCH   2   3
HETATM    3  C   UNL     1      -9.910   3.843  70.881  1.00  0.00    -0.213 C  
BRANCH   3   4
HETATM    4  C   UNL     1      -9.826   5.308  70.432  1.00  0.00    -0.281 C  
HETATM    5  C   UNL     1     -11.125   6.095  70.727  1.00  0.00    -0.375 C  
HETATM    6  C   UNL     1     -11.034   7.543  70.216  1.00  0.00    -0.250 C  
HETATM    7  C   UNL     1     -11.543   6.091  72.213  1.00  0.00    -0.359 C  
HETATM    8  C   UNL     1     -10.573   6.780  73.163  1.00  0.00    -0.315 C  
BRANCH   6   9
HETATM    9  O   UNL     1     -10.811   7.640  68.800  1.00  0.00    -0.127 OA 
BRANCH   9  10
HETATM   10  C   UNL     1      -9.754   8.400  68.422  1.00  0.00    -0.156 C  
HETATM   11  O   UNL     1      -8.576   8.107  68.537  1.00  0.00    -0.129 OA 
BRANCH  10  12
HETATM   12  C   UNL     1     -10.228   9.645  67.756  1.00  0.00    -0.253 A  
HETATM   13  C   UNL     1      -9.888   9.870  66.426  1.00  0.00    -0.288 A  
HETATM   14  C   UNL     1     -10.369  11.005  65.749  1.00  0.00    -0.316 A  
HETATM   15  C   UNL     1     -11.200  11.957  66.366  1.00  0.00    -0.331 A  
HETATM   16  C   UNL     1     -11.512  11.704  67.717  1.00  0.00    -0.373 A  
HETATM   17  C   UNL     1     -11.051  10.570  68.400  1.00  0.00    -0.335 A  
BRANCH  15  18
HETATM   18  N   UNL     1     -11.625  13.120  65.733  1.00  0.00    -0.333 NA 
HETATM   19  C   UNL     1     -11.046  13.528  64.451  1.00  0.00    -0.380 C  
HETATM   20  C   UNL     1     -12.217  14.222  66.488  1.00  0.00    -0.391 C  
ENDBRANCH  15  18
ENDBRANCH  10  12
ENDBRANCH   9  10
ENDBRANCH   6   9
ENDBRANCH   3   4
ENDBRANCH   2   3
TORSDOF 6
ENDMDL
MODEL      145
REMARK 921   NORMALIZED FREE ENERGY PREDICTED BY IDOCK:   -4.04 KCAL/MOL
REMARK 922        TOTAL FREE ENERGY PREDICTED BY IDOCK:   -6.05 KCAL/MOL
REMARK 923 INTER-LIGAND FREE ENERGY PREDICTED BY IDOCK:   -5.36 KCAL/MOL
REMARK 924 INTRA-LIGAND FREE ENERGY PREDICTED BY IDOCK:   -0.68 KCAL/MOL
REMARK 927      BINDING AFFINITY PREDICTED BY RF-SCORE:    0.00 PKD
ROOT
HETATM    1  C   UNL     1      -5.532  16.643  68.480  1.00  0.00    -0.117 C  
HETATM    2  C   UNL     1      -6.698  15.866  67.887  1.00  0.00    -0.163 C  
ENDROOT
BRANCH   2   3
HETATM    3  C   UNL     1      -6.954  14.584  68.677  1.00  0.00    -0.103 C  
BRANCH   3   4
HETATM    4  C   UNL     1      -8.166  13.804  68.149  1.00  0.00    -0.160 C  
HETATM    5  C   UNL     1      -7.762  12.497  67.425  1.00  0.00    -0.167 C  
HETATM    6  C   UNL     1      -8.991  11.767  66.857  1.00  0.00    -0.195 C  
HETATM    7  C   UNL     1      -6.931  11.526  68.291  1.00  0.00    -0.073 C  
HETATM    8  C   UNL     1      -7.650  10.965  69.510  1.00  0.00    -0.057 C  
BRANCH   6   9
HETATM    9  O   UNL     1      -9.735  12.546  65.907  1.00  0.00    -0.256 OA 
BRANCH   9  10
HETATM   10  C   UNL     1     -10.921  13.035  66.346  1.00  0.00    -0.281 C  
HETATM   11  O   UNL     1     -11.919  12.384  66.602  1.00  0.00    -0.562 OA 
BRANCH  10  12
HETATM   12  C   UNL     1     -10.825  14.506  66.557  1.00  0.00    -0.314 A  
HETATM   13  C   UNL     1     -11.267  15.045  67.760  1.00  0.00    -0.327 A  
HETATM   14  C   UNL     1     -11.136  16.422  68.016  1.00  0.00    -0.292 A  
HETATM   15  C   UNL     1     -10.565  17.312  67.088  1.00  0.00    -0.256 A  
HETATM   16  C   UNL     1     -10.141  16.733  65.875  1.00  0.00    -0.324 A  
HETATM   17  C   UNL     1     -10.253  15.360  65.613  1.00  0.00    -0.403 A  
BRANCH  15  18
HETATM   18  N   UNL     1     -10.493  18.684  67.297  1.00  0.00    -0.405 NA 
HETATM   19  C   UNL     1     -10.574  19.617  66.172  1.00  0.00    -0.483 C  
HETATM   20  C   UNL     1      -9.827  19.238  68.474  1.00  0.00    -0.424 C  
ENDBRANCH  15  18
ENDBRANCH  10  12
ENDBRANCH   9  10
ENDBRANCH   6   9
ENDBRANCH   3   4
ENDBRANCH   2   3
TORSDOF 6
ENDMDL
MODEL      146
REMARK 921   NORMALIZED FREE ENERGY PREDICTED BY IDOCK:   -4.00 KCAL/MOL
REMARK 922        TOTAL FREE ENERGY PREDICTED BY IDOCK:   -5.99 KCAL/MOL
REMARK 923 INTER-LIGAND FREE ENERGY PREDICTED BY IDOCK:   -5.40 KCAL/MOL
REMARK 924 INTRA-LIGAND FREE ENERGY PREDICTED BY IDOCK:   -0.59 KCAL/MOL
REMARK 927      BINDING AFFINITY PREDICTED BY RF-SCORE:    0.00 PKD
ROOT
HETATM    1  C   UNL     1      -8.024   5.308  71.200  1.00  0.00    -0.108 C  
HETATM    2  C   UNL     1      -9.015   5.933  70.229  1.00  0.00    -0.152 C  
ENDROOT
BRANCH   2   3
HETATM    3  C   UNL     1      -8.394   7.136  69.520  1.00  0.00    -0.133 C  
BRANCH   3   4
HETATM    4  C   UNL     1      -9.447   8.162  69.081  1.00  0.00    -0.155 C  
HETATM    5  C   UNL     1      -9.482   8.360  67.547  1.00  0.00    -0.182 C  
HETATM    6  C   UNL     1     -10.505   9.434  67.142  1.00  0.00    -0.244 C  
HETATM    7  C   UNL     1      -9.739   7.064  66.748  1.00  0.00    -0.241 C  
HETATM    8  C   UNL     1     -11.098   6.417  66.980  1.00  0.00    -0.405 C  
BRANCH   6   9
HETATM    9  O   UNL     1     -10.242  10.725  67.713  1.00  0.00    -0.172 OA 
BRANCH   9  10
HETATM   10  C   UNL     1     -11.321  11.385  68.200  1.00  0.00    -0.304 C  
HETATM   11  O   UNL     1     -12.299  10.880  68.726  1.00  0.00    -0.495 OA 
BRANCH  10  12
HETATM   12  C   UNL     1     -11.123  12.855  68.079  1.00  0.00    -0.283 A  
HETATM   13  C   UNL     1     -10.026  13.332  67.370  1.00  0.00    -0.233 A  
HETATM   14  C   UNL     1      -9.842  14.715  67.185  1.00  0.00    -0.237 A  
HETATM   15  C   UNL     1     -10.736  15.672  67.699  1.00  0.00    -0.302 A  
HETATM   16  C   UNL     1     -11.827  15.152  68.425  1.00  0.00    -0.293 A  
HETATM   17  C   UNL     1     -12.030  13.777  68.604  1.00  0.00    -0.401 A  
BRANCH  15  18
HETATM   18  N   UNL     1     -10.530  17.042  67.587  1.00  0.00    -0.336 NA 
HETATM   19  C   UNL     1     -10.147  17.637  66.305  1.00  0.00    -0.341 C  
HETATM   20  C   UNL     1     -10.159  17.850  68.746  1.00  0.00    -0.384 C  
ENDBRANCH  15  18
ENDBRANCH  10  12
ENDBRANCH   9  10
ENDBRANCH   6   9
ENDBRANCH   3   4
ENDBRANCH   2   3
TORSDOF 6
ENDMDL
MODEL      147
REMARK 921   NORMALIZED FREE ENERGY PREDICTED BY IDOCK:   -4.00 KCAL/MOL
REMARK 922        TOTAL FREE ENERGY PREDICTED BY IDOCK:   -5.99 KCAL/MOL
REMARK 923 INTER-LIGAND FREE ENERGY PREDICTED BY IDOCK:   -5.47 KCAL/MOL
REMARK 924 INTRA-LIGAND FREE ENERGY PREDICTED BY IDOCK:   -0.52 KCAL/MOL
REMARK 927      BINDING AFFINITY PREDICTED BY RF-SCORE:    0.00 PKD
ROOT
HETATM    1  C   UNL     1      -6.614   9.627  68.158  1.00  0.00    -0.061 C  
HETATM    2  C   UNL     1      -6.960   8.314  68.846  1.00  0.00    -0.066 C  
ENDROOT
BRANCH   2   3
HETATM    3  C   UNL     1      -7.988   8.538  69.955  1.00  0.00    -0.106 C  
BRANCH   3   4
HETATM    4  C   UNL     1      -8.758   9.854  69.780  1.00  0.00    -0.229 C  
HETATM    5  C   UNL     1     -10.227   9.631  69.352  1.00  0.00    -0.220 C  
HETATM    6  C   UNL     1     -10.957  10.967  69.129  1.00  0.00    -0.239 C  
HETATM    7  C   UNL     1     -11.041   8.746  70.321  1.00  0.00    -0.240 C  
HETATM    8  C   UNL     1     -11.237   9.322  71.717  1.00  0.00    -0.413 C  
BRANCH   6   9
HETATM    9  O   UNL     1     -10.357  11.788  68.115  1.00  0.00    -0.187 OA 
BRANCH   9  10
HETATM   10  C   UNL     1     -11.221  12.433  67.293  1.00  0.00    -0.303 C  
HETATM   11  O   UNL     1     -12.252  11.978  66.829  1.00  0.00    -0.545 OA 
BRANCH  10  12
HETATM   12  C   UNL     1     -10.778  13.839  67.083  1.00  0.00    -0.283 A  
HETATM   13  C   UNL     1     -11.389  14.855  67.810  1.00  0.00    -0.341 A  
HETATM   14  C   UNL     1     -10.954  16.187  67.680  1.00  0.00    -0.268 A  
HETATM   15  C   UNL     1      -9.902  16.558  66.824  1.00  0.00    -0.266 A  
HETATM   16  C   UNL     1      -9.316  15.505  66.092  1.00  0.00    -0.380 A  
HETATM   17  C   UNL     1      -9.730  14.172  66.223  1.00  0.00    -0.315 A  
BRANCH  15  18
HETATM   18  N   UNL     1      -9.508  17.877  66.631  1.00  0.00    -0.289 NA 
HETATM   19  C   UNL     1     -10.442  18.864  66.086  1.00  0.00    -0.457 C  
HETATM   20  C   UNL     1      -8.103  18.228  66.439  1.00  0.00    -0.258 C  
ENDBRANCH  15  18
ENDBRANCH  10  12
ENDBRANCH   9  10
ENDBRANCH   6   9
ENDBRANCH   3   4
ENDBRANCH   2   3
TORSDOF 6
ENDMDL
MODEL      148
REMARK 921   NORMALIZED FREE ENERGY PREDICTED BY IDOCK:   -3.99 KCAL/MOL
REMARK 922        TOTAL FREE ENERGY PREDICTED BY IDOCK:   -5.98 KCAL/MOL
REMARK 923 INTER-LIGAND FREE ENERGY PREDICTED BY IDOCK:   -5.02 KCAL/MOL
REMARK 924 INTRA-LIGAND FREE ENERGY PREDICTED BY IDOCK:   -0.96 KCAL/MOL
REMARK 927      BINDING AFFINITY PREDICTED BY RF-SCORE:    0.00 PKD
ROOT
HETATM    1  C   UNL     1     -10.631  17.599  68.168  1.00  0.00    -0.359 C  
HETATM    2  C   UNL     1     -10.401  16.136  67.821  1.00  0.00    -0.283 C  
ENDROOT
BRANCH   2   3
HETATM    3  C   UNL     1      -9.493  15.470  68.854  1.00  0.00    -0.223 C  
BRANCH   3   4
HETATM    4  C   UNL     1      -9.215  13.997  68.523  1.00  0.00    -0.170 C  
HETATM    5  C   UNL     1      -7.961  13.813  67.637  1.00  0.00    -0.179 C  
HETATM    6  C   UNL     1      -7.740  12.334  67.276  1.00  0.00    -0.161 C  
HETATM    7  C   UNL     1      -6.668  14.402  68.242  1.00  0.00    -0.114 C  
HETATM    8  C   UNL     1      -6.199  13.749  69.535  1.00  0.00    -0.116 C  
BRANCH   6   9
HETATM    9  O   UNL     1      -8.837  11.748  66.557  1.00  0.00    -0.186 OA 
BRANCH   9  10
HETATM   10  C   UNL     1      -9.143  10.470  66.890  1.00  0.00    -0.147 C  
HETATM   11  O   UNL     1      -8.727   9.462  66.342  1.00  0.00    -0.131 OA 
BRANCH  10  12
HETATM   12  C   UNL     1     -10.018  10.447  68.094  1.00  0.00    -0.170 A  
HETATM   13  C   UNL     1     -11.255  11.080  68.042  1.00  0.00    -0.372 A  
HETATM   14  C   UNL     1     -12.131  11.026  69.141  1.00  0.00    -0.333 A  
HETATM   15  C   UNL     1     -11.811  10.346  70.330  1.00  0.00    -0.312 A  
HETATM   16  C   UNL     1     -10.544   9.728  70.352  1.00  0.00    -0.365 A  
HETATM   17  C   UNL     1      -9.667   9.762  69.259  1.00  0.00    -0.204 A  
BRANCH  15  18
HETATM   18  N   UNL     1     -12.635  10.344  71.449  1.00  0.00    -0.397 NA 
HETATM   19  C   UNL     1     -13.364   9.135  71.839  1.00  0.00    -0.427 C  
HETATM   20  C   UNL     1     -13.231  11.579  71.955  1.00  0.00    -0.374 C  
ENDBRANCH  15  18
ENDBRANCH  10  12
ENDBRANCH   9  10
ENDBRANCH   6   9
ENDBRANCH   3   4
ENDBRANCH   2   3
TORSDOF 6
ENDMDL
MODEL      149
REMARK 921   NORMALIZED FREE ENERGY PREDICTED BY IDOCK:   -3.96 KCAL/MOL
REMARK 922        TOTAL FREE ENERGY PREDICTED BY IDOCK:   -5.93 KCAL/MOL
REMARK 923 INTER-LIGAND FREE ENERGY PREDICTED BY IDOCK:   -5.40 KCAL/MOL
REMARK 924 INTRA-LIGAND FREE ENERGY PREDICTED BY IDOCK:   -0.53 KCAL/MOL
REMARK 927      BINDING AFFINITY PREDICTED BY RF-SCORE:    0.00 PKD
ROOT
HETATM    1  C   UNL     1      -5.342  19.876  64.153  1.00  0.00    -0.236 C  
HETATM    2  C   UNL     1      -6.583  20.534  64.738  1.00  0.00    -0.298 C  
ENDROOT
BRANCH   2   3
HETATM    3  C   UNL     1      -6.387  20.836  66.223  1.00  0.00    -0.303 C  
BRANCH   3   4
HETATM    4  C   UNL     1      -7.462  20.178  67.099  1.00  0.00    -0.326 C  
HETATM    5  C   UNL     1      -6.909  18.999  67.933  1.00  0.00    -0.240 C  
HETATM    6  C   UNL     1      -8.019  18.324  68.756  1.00  0.00    -0.250 C  
HETATM    7  C   UNL     1      -5.730  19.375  68.856  1.00  0.00    -0.238 C  
HETATM    8  C   UNL     1      -6.060  20.372  69.958  1.00  0.00    -0.336 C  
BRANCH   6   9
HETATM    9  O   UNL     1      -9.086  17.791  67.956  1.00  0.00    -0.257 OA 
BRANCH   9  10
HETATM   10  C   UNL     1     -10.041  17.104  68.629  1.00  0.00    -0.329 C  
HETATM   11  O   UNL     1     -10.671  17.501  69.595  1.00  0.00     0.014 OA 
BRANCH  10  12
HETATM   12  C   UNL     1     -10.288  15.790  67.974  1.00  0.00    -0.252 A  
HETATM   13  C   UNL     1      -9.366  15.314  67.047  1.00  0.00    -0.238 A  
HETATM   14  C   UNL     1      -9.538  14.050  66.454  1.00  0.00    -0.299 A  
HETATM   15  C   UNL     1     -10.628  13.215  66.756  1.00  0.00    -0.263 A  
HETATM   16  C   UNL     1     -11.549  13.736  67.688  1.00  0.00    -0.381 A  
HETATM   17  C   UNL     1     -11.383  14.988  68.296  1.00  0.00    -0.331 A  
BRANCH  15  18
HETATM   18  N   UNL     1     -10.849  11.996  66.127  1.00  0.00    -0.275 NA 
HETATM   19  C   UNL     1     -10.355  10.750  66.715  1.00  0.00    -0.243 C  
HETATM   20  C   UNL     1     -11.074  11.917  64.685  1.00  0.00    -0.317 C  
ENDBRANCH  15  18
ENDBRANCH  10  12
ENDBRANCH   9  10
ENDBRANCH   6   9
ENDBRANCH   3   4
ENDBRANCH   2   3
TORSDOF 6
ENDMDL
MODEL      150
REMARK 921   NORMALIZED FREE ENERGY PREDICTED BY IDOCK:   -3.94 KCAL/MOL
REMARK 922        TOTAL FREE ENERGY PREDICTED BY IDOCK:   -5.91 KCAL/MOL
REMARK 923 INTER-LIGAND FREE ENERGY PREDICTED BY IDOCK:   -4.92 KCAL/MOL
REMARK 924 INTRA-LIGAND FREE ENERGY PREDICTED BY IDOCK:   -0.99 KCAL/MOL
REMARK 927      BINDING AFFINITY PREDICTED BY RF-SCORE:    0.00 PKD
ROOT
HETATM    1  C   UNL     1     -11.477  15.096  68.637  1.00  0.00    -0.341 C  
HETATM    2  C   UNL     1     -10.703  14.191  67.689  1.00  0.00    -0.260 C  
ENDROOT
BRANCH   2   3
HETATM    3  C   UNL     1     -10.948  14.594  66.236  1.00  0.00    -0.327 C  
BRANCH   3   4
HETATM    4  C   UNL     1     -10.197  13.692  65.246  1.00  0.00    -0.341 C  
HETATM    5  C   UNL     1     -10.990  12.413  64.888  1.00  0.00    -0.341 C  
HETATM    6  C   UNL     1     -10.189  11.502  63.941  1.00  0.00    -0.362 C  
HETATM    7  C   UNL     1     -12.390  12.682  64.296  1.00  0.00    -0.517 C  
HETATM    8  C   UNL     1     -12.400  13.405  62.956  1.00  0.00     0.156 C  
BRANCH   6   9
HETATM    9  O   UNL     1      -8.935  11.065  64.487  1.00  0.00    -0.157 OA 
BRANCH   9  10
HETATM   10  C   UNL     1      -8.826   9.734  64.721  1.00  0.00    -0.207 C  
HETATM   11  O   UNL     1      -8.417   8.895  63.936  1.00  0.00    -0.182 OA 
BRANCH  10  12
HETATM   12  C   UNL     1      -9.208   9.425  66.126  1.00  0.00    -0.241 A  
HETATM   13  C   UNL     1      -8.798  10.283  67.141  1.00  0.00    -0.141 A  
HETATM   14  C   UNL     1      -9.192  10.054  68.472  1.00  0.00    -0.141 A  
HETATM   15  C   UNL     1     -10.002   8.966  68.843  1.00  0.00    -0.190 A  
HETATM   16  C   UNL     1     -10.386   8.110  67.791  1.00  0.00    -0.295 A  
HETATM   17  C   UNL     1     -10.013   8.334  66.459  1.00  0.00    -0.320 A  
BRANCH  15  18
HETATM   18  N   UNL     1     -10.341   8.686  70.162  1.00  0.00    -0.202 NA 
HETATM   19  C   UNL     1      -9.493   9.143  71.265  1.00  0.00    -0.243 C  
HETATM   20  C   UNL     1     -11.181   7.540  70.502  1.00  0.00    -0.269 C  
ENDBRANCH  15  18
ENDBRANCH  10  12
ENDBRANCH   9  10
ENDBRANCH   6   9
ENDBRANCH   3   4
ENDBRANCH   2   3
TORSDOF 6
ENDMDL
MODEL      151
REMARK 921   NORMALIZED FREE ENERGY PREDICTED BY IDOCK:   -3.94 KCAL/MOL
REMARK 922        TOTAL FREE ENERGY PREDICTED BY IDOCK:   -5.91 KCAL/MOL
REMARK 923 INTER-LIGAND FREE ENERGY PREDICTED BY IDOCK:   -5.35 KCAL/MOL
REMARK 924 INTRA-LIGAND FREE ENERGY PREDICTED BY IDOCK:   -0.56 KCAL/MOL
REMARK 927      BINDING AFFINITY PREDICTED BY RF-SCORE:    0.00 PKD
ROOT
HETATM    1  C   UNL     1      -5.603   7.584  66.153  1.00  0.00    -0.032 C  
HETATM    2  C   UNL     1      -6.418   6.340  66.478  1.00  0.00    -0.047 C  
ENDROOT
BRANCH   2   3
HETATM    3  C   UNL     1      -7.908   6.594  66.249  1.00  0.00    -0.105 C  
BRANCH   3   4
HETATM    4  C   UNL     1      -8.688   6.710  67.566  1.00  0.00    -0.118 C  
HETATM    5  C   UNL     1     -10.058   5.993  67.509  1.00  0.00    -0.190 C  
HETATM    6  C   UNL     1     -10.841   6.175  68.821  1.00  0.00    -0.336 C  
HETATM    7  C   UNL     1      -9.973   4.494  67.154  1.00  0.00    -0.201 C  
HETATM    8  C   UNL     1      -9.242   3.626  68.169  1.00  0.00    -0.221 C  
BRANCH   6   9
HETATM    9  O   UNL     1     -11.112   7.548  69.144  1.00  0.00    -0.069 OA 
BRANCH   9  10
HETATM   10  C   UNL     1     -11.053   7.865  70.461  1.00  0.00    -0.256 C  
HETATM   11  O   UNL     1     -10.600   7.166  71.352  1.00  0.00    -0.216 OA 
BRANCH  10  12
HETATM   12  C   UNL     1     -11.555   9.249  70.680  1.00  0.00    -0.305 A  
HETATM   13  C   UNL     1     -11.081  10.275  69.869  1.00  0.00    -0.362 A  
HETATM   14  C   UNL     1     -11.578  11.583  70.009  1.00  0.00    -0.364 A  
HETATM   15  C   UNL     1     -12.560  11.921  70.958  1.00  0.00    -0.283 A  
HETATM   16  C   UNL     1     -13.005  10.860  71.772  1.00  0.00    -0.557 A  
HETATM   17  C   UNL     1     -12.528   9.549  71.634  1.00  0.00    -0.476 A  
BRANCH  15  18
HETATM   18  N   UNL     1     -13.009  13.221  71.157  1.00  0.00    -0.263 NA 
HETATM   19  C   UNL     1     -12.403  14.341  70.434  1.00  0.00    -0.352 C  
HETATM   20  C   UNL     1     -13.672  13.613  72.399  1.00  0.00    -0.595 C  
ENDBRANCH  15  18
ENDBRANCH  10  12
ENDBRANCH   9  10
ENDBRANCH   6   9
ENDBRANCH   3   4
ENDBRANCH   2   3
TORSDOF 6
ENDMDL
MODEL      152
REMARK 921   NORMALIZED FREE ENERGY PREDICTED BY IDOCK:   -3.94 KCAL/MOL
REMARK 922        TOTAL FREE ENERGY PREDICTED BY IDOCK:   -5.90 KCAL/MOL
REMARK 923 INTER-LIGAND FREE ENERGY PREDICTED BY IDOCK:   -5.22 KCAL/MOL
REMARK 924 INTRA-LIGAND FREE ENERGY PREDICTED BY IDOCK:   -0.68 KCAL/MOL
REMARK 927      BINDING AFFINITY PREDICTED BY RF-SCORE:    0.00 PKD
ROOT
HETATM    1  C   UNL     1      -9.710  15.223  65.903  1.00  0.00    -0.390 C  
HETATM    2  C   UNL     1     -10.971  15.495  66.708  1.00  0.00    -0.257 C  
ENDROOT
BRANCH   2   3
HETATM    3  C   UNL     1     -11.801  14.221  66.863  1.00  0.00    -0.458 C  
BRANCH   3   4
HETATM    4  C   UNL     1     -10.936  12.954  66.825  1.00  0.00    -0.300 C  
HETATM    5  C   UNL     1     -11.637  11.778  66.104  1.00  0.00    -0.215 C  
HETATM    6  C   UNL     1     -10.771  10.507  66.131  1.00  0.00    -0.045 C  
HETATM    7  C   UNL     1     -12.063  12.089  64.654  1.00  0.00    -0.313 C  
HETATM    8  C   UNL     1     -10.921  12.373  63.688  1.00  0.00    -0.525 C  
BRANCH   6   9
HETATM    9  O   UNL     1     -10.464  10.047  67.457  1.00  0.00    -0.218 OA 
BRANCH   9  10
HETATM   10  C   UNL     1     -10.515   8.705  67.642  1.00  0.00    -0.244 C  
HETATM   11  O   UNL     1     -10.760   7.868  66.790  1.00  0.00    -0.304 OA 
BRANCH  10  12
HETATM   12  C   UNL     1     -10.145   8.364  69.043  1.00  0.00    -0.209 A  
HETATM   13  C   UNL     1      -9.042   8.985  69.620  1.00  0.00    -0.155 A  
HETATM   14  C   UNL     1      -8.700   8.730  70.961  1.00  0.00    -0.248 A  
HETATM   15  C   UNL     1      -9.438   7.852  71.775  1.00  0.00    -0.158 A  
HETATM   16  C   UNL     1     -10.540   7.231  71.153  1.00  0.00    -0.236 A  
HETATM   17  C   UNL     1     -10.899   7.486  69.822  1.00  0.00    -0.234 A  
BRANCH  15  18
HETATM   18  N   UNL     1      -9.072   7.537  73.078  1.00  0.00    -0.156 NA 
HETATM   19  C   UNL     1     -10.043   6.956  74.008  1.00  0.00    -0.348 C  
HETATM   20  C   UNL     1      -7.959   8.215  73.739  1.00  0.00    -0.209 C  
ENDBRANCH  15  18
ENDBRANCH  10  12
ENDBRANCH   9  10
ENDBRANCH   6   9
ENDBRANCH   3   4
ENDBRANCH   2   3
TORSDOF 6
ENDMDL
MODEL      153
REMARK 921   NORMALIZED FREE ENERGY PREDICTED BY IDOCK:   -3.92 KCAL/MOL
REMARK 922        TOTAL FREE ENERGY PREDICTED BY IDOCK:   -5.89 KCAL/MOL
REMARK 923 INTER-LIGAND FREE ENERGY PREDICTED BY IDOCK:   -5.09 KCAL/MOL
REMARK 924 INTRA-LIGAND FREE ENERGY PREDICTED BY IDOCK:   -0.80 KCAL/MOL
REMARK 927      BINDING AFFINITY PREDICTED BY RF-SCORE:    0.00 PKD
ROOT
HETATM    1  C   UNL     1      -8.299   8.290  72.611  1.00  0.00    -0.235 C  
HETATM    2  C   UNL     1      -7.589   7.780  71.366  1.00  0.00    -0.081 C  
ENDROOT
BRANCH   2   3
HETATM    3  C   UNL     1      -7.979   8.608  70.143  1.00  0.00    -0.103 C  
BRANCH   3   4
HETATM    4  C   UNL     1      -9.248   9.438  70.380  1.00  0.00    -0.305 C  
HETATM    5  C   UNL     1     -10.352   9.148  69.336  1.00  0.00    -0.220 C  
HETATM    6  C   UNL     1     -11.588  10.035  69.565  1.00  0.00    -0.059 C  
HETATM    7  C   UNL     1     -10.777   7.666  69.260  1.00  0.00    -0.169 C  
HETATM    8  C   UNL     1     -11.427   7.112  70.520  1.00  0.00    -0.334 C  
BRANCH   6   9
HETATM    9  O   UNL     1     -11.311  11.441  69.485  1.00  0.00    -0.257 OA 
BRANCH   9  10
HETATM   10  C   UNL     1     -11.503  12.012  68.270  1.00  0.00    -0.303 C  
HETATM   11  O   UNL     1     -12.123  11.530  67.337  1.00  0.00    -0.593 OA 
BRANCH  10  12
HETATM   12  C   UNL     1     -10.910  13.377  68.242  1.00  0.00    -0.275 A  
HETATM   13  C   UNL     1     -11.742  14.478  68.421  1.00  0.00    -0.367 A  
HETATM   14  C   UNL     1     -11.206  15.778  68.461  1.00  0.00    -0.354 A  
HETATM   15  C   UNL     1      -9.829  16.032  68.322  1.00  0.00    -0.219 A  
HETATM   16  C   UNL     1      -9.020  14.895  68.128  1.00  0.00    -0.176 A  
HETATM   17  C   UNL     1      -9.539  13.593  68.101  1.00  0.00    -0.221 A  
BRANCH  15  18
HETATM   18  N   UNL     1      -9.294  17.314  68.288  1.00  0.00    -0.263 NA 
HETATM   19  C   UNL     1      -8.014  17.608  68.936  1.00  0.00    -0.178 C  
HETATM   20  C   UNL     1     -10.146  18.488  68.111  1.00  0.00    -0.375 C  
ENDBRANCH  15  18
ENDBRANCH  10  12
ENDBRANCH   9  10
ENDBRANCH   6   9
ENDBRANCH   3   4
ENDBRANCH   2   3
TORSDOF 6
ENDMDL
MODEL      154
REMARK 921   NORMALIZED FREE ENERGY PREDICTED BY IDOCK:   -3.89 KCAL/MOL
REMARK 922        TOTAL FREE ENERGY PREDICTED BY IDOCK:   -5.85 KCAL/MOL
REMARK 923 INTER-LIGAND FREE ENERGY PREDICTED BY IDOCK:   -5.35 KCAL/MOL
REMARK 924 INTRA-LIGAND FREE ENERGY PREDICTED BY IDOCK:   -0.50 KCAL/MOL
REMARK 927      BINDING AFFINITY PREDICTED BY RF-SCORE:    0.00 PKD
ROOT
HETATM    1  C   UNL     1     -11.471   5.768  72.704  1.00  0.00    -0.337 C  
HETATM    2  C   UNL     1     -10.249   5.816  71.798  1.00  0.00    -0.245 C  
ENDROOT
BRANCH   2   3
HETATM    3  C   UNL     1     -10.534   5.122  70.467  1.00  0.00    -0.278 C  
BRANCH   3   4
HETATM    4  C   UNL     1     -10.802   6.122  69.334  1.00  0.00    -0.420 C  
HETATM    5  C   UNL     1      -9.524   6.869  68.885  1.00  0.00    -0.136 C  
HETATM    6  C   UNL     1      -9.833   7.904  67.790  1.00  0.00    -0.163 C  
HETATM    7  C   UNL     1      -8.380   5.942  68.421  1.00  0.00    -0.112 C  
HETATM    8  C   UNL     1      -8.677   5.117  67.176  1.00  0.00    -0.103 C  
BRANCH   6   9
HETATM    9  O   UNL     1     -10.772   8.911  68.198  1.00  0.00    -0.187 OA 
BRANCH   9  10
HETATM   10  C   UNL     1     -10.234  10.034  68.735  1.00  0.00    -0.186 C  
HETATM   11  O   UNL     1      -9.565  10.099  69.752  1.00  0.00    -0.222 OA 
BRANCH  10  12
HETATM   12  C   UNL     1     -10.506  11.205  67.856  1.00  0.00    -0.220 A  
HETATM   13  C   UNL     1     -11.635  11.981  68.097  1.00  0.00    -0.403 A  
HETATM   14  C   UNL     1     -11.890  13.129  67.324  1.00  0.00    -0.420 A  
HETATM   15  C   UNL     1     -11.037  13.545  66.286  1.00  0.00    -0.300 A  
HETATM   16  C   UNL     1      -9.912  12.727  66.061  1.00  0.00    -0.277 A  
HETATM   17  C   UNL     1      -9.639  11.589  66.833  1.00  0.00    -0.203 A  
BRANCH  15  18
HETATM   18  N   UNL     1     -11.312  14.635  65.468  1.00  0.00    -0.335 NA 
HETATM   19  C   UNL     1     -12.220  14.504  64.327  1.00  0.00    -0.415 C  
HETATM   20  C   UNL     1     -10.374  15.749  65.348  1.00  0.00    -0.389 C  
ENDBRANCH  15  18
ENDBRANCH  10  12
ENDBRANCH   9  10
ENDBRANCH   6   9
ENDBRANCH   3   4
ENDBRANCH   2   3
TORSDOF 6
ENDMDL
MODEL      155
REMARK 921   NORMALIZED FREE ENERGY PREDICTED BY IDOCK:   -3.89 KCAL/MOL
REMARK 922        TOTAL FREE ENERGY PREDICTED BY IDOCK:   -5.84 KCAL/MOL
REMARK 923 INTER-LIGAND FREE ENERGY PREDICTED BY IDOCK:   -5.22 KCAL/MOL
REMARK 924 INTRA-LIGAND FREE ENERGY PREDICTED BY IDOCK:   -0.62 KCAL/MOL
REMARK 927      BINDING AFFINITY PREDICTED BY RF-SCORE:    0.00 PKD
ROOT
HETATM    1  C   UNL     1     -10.985  16.306  69.302  1.00  0.00    -0.317 C  
HETATM    2  C   UNL     1     -10.608  17.712  68.858  1.00  0.00    -0.139 C  
ENDROOT
BRANCH   2   3
HETATM    3  C   UNL     1      -9.094  17.841  68.697  1.00  0.00    -0.262 C  
BRANCH   3   4
HETATM    4  C   UNL     1      -8.387  16.479  68.703  1.00  0.00    -0.235 C  
HETATM    5  C   UNL     1      -8.293  15.852  67.292  1.00  0.00    -0.211 C  
HETATM    6  C   UNL     1      -7.633  14.464  67.337  1.00  0.00    -0.172 C  
HETATM    7  C   UNL     1      -7.574  16.740  66.253  1.00  0.00    -0.275 C  
HETATM    8  C   UNL     1      -6.104  17.015  66.540  1.00  0.00    -0.191 C  
BRANCH   6   9
HETATM    9  O   UNL     1      -8.337  13.518  68.156  1.00  0.00    -0.151 OA 
BRANCH   9  10
HETATM   10  C   UNL     1      -9.297  12.794  67.528  1.00  0.00    -0.189 C  
HETATM   11  O   UNL     1      -9.502  12.757  66.327  1.00  0.00    -0.243 OA 
BRANCH  10  12
HETATM   12  C   UNL     1     -10.043  11.965  68.513  1.00  0.00    -0.211 A  
HETATM   13  C   UNL     1      -9.434  10.831  69.040  1.00  0.00    -0.179 A  
HETATM   14  C   UNL     1     -10.087  10.058  70.017  1.00  0.00    -0.289 A  
HETATM   15  C   UNL     1     -11.366  10.380  70.504  1.00  0.00    -0.341 A  
HETATM   16  C   UNL     1     -11.959  11.526  69.938  1.00  0.00    -0.426 A  
HETATM   17  C   UNL     1     -11.314  12.313  68.974  1.00  0.00    -0.333 A  
BRANCH  15  18
HETATM   18  N   UNL     1     -12.054   9.588  71.416  1.00  0.00    -0.352 NA 
HETATM   19  C   UNL     1     -11.383   8.481  72.100  1.00  0.00    -0.372 C  
HETATM   20  C   UNL     1     -13.507   9.446  71.354  1.00  0.00    -0.332 C  
ENDBRANCH  15  18
ENDBRANCH  10  12
ENDBRANCH   9  10
ENDBRANCH   6   9
ENDBRANCH   3   4
ENDBRANCH   2   3
TORSDOF 6
ENDMDL
MODEL      156
REMARK 921   NORMALIZED FREE ENERGY PREDICTED BY IDOCK:   -3.88 KCAL/MOL
REMARK 922        TOTAL FREE ENERGY PREDICTED BY IDOCK:   -5.83 KCAL/MOL
REMARK 923 INTER-LIGAND FREE ENERGY PREDICTED BY IDOCK:   -5.25 KCAL/MOL
REMARK 924 INTRA-LIGAND FREE ENERGY PREDICTED BY IDOCK:   -0.59 KCAL/MOL
REMARK 927      BINDING AFFINITY PREDICTED BY RF-SCORE:    0.00 PKD
ROOT
HETATM    1  C   UNL     1      -8.152   6.370  74.428  1.00  0.00    -0.127 C  
HETATM    2  C   UNL     1      -8.291   7.179  73.147  1.00  0.00    -0.134 C  
ENDROOT
BRANCH   2   3
HETATM    3  C   UNL     1      -9.573   8.012  73.169  1.00  0.00    -0.344 C  
BRANCH   3   4
HETATM    4  C   UNL     1     -10.042   8.398  71.760  1.00  0.00    -0.317 C  
HETATM    5  C   UNL     1     -10.472   7.171  70.920  1.00  0.00    -0.225 C  
HETATM    6  C   UNL     1     -10.882   7.582  69.495  1.00  0.00    -0.175 C  
HETATM    7  C   UNL     1     -11.591   6.325  71.563  1.00  0.00    -0.345 C  
HETATM    8  C   UNL     1     -12.927   7.035  71.731  1.00  0.00    -0.356 C  
BRANCH   6   9
HETATM    9  O   UNL     1      -9.835   8.233  68.760  1.00  0.00    -0.165 OA 
BRANCH   9  10
HETATM   10  C   UNL     1     -10.176   8.691  67.530  1.00  0.00    -0.245 C  
HETATM   11  O   UNL     1     -10.356   8.014  66.532  1.00  0.00    -0.260 OA 
BRANCH  10  12
HETATM   12  C   UNL     1     -10.386  10.165  67.570  1.00  0.00    -0.279 A  
HETATM   13  C   UNL     1     -10.443  10.871  66.373  1.00  0.00    -0.307 A  
HETATM   14  C   UNL     1     -10.700  12.254  66.372  1.00  0.00    -0.284 A  
HETATM   15  C   UNL     1     -10.907  12.985  67.555  1.00  0.00    -0.247 A  
HETATM   16  C   UNL     1     -10.828  12.240  68.749  1.00  0.00    -0.266 A  
HETATM   17  C   UNL     1     -10.586  10.859  68.764  1.00  0.00    -0.231 A  
BRANCH  15  18
HETATM   18  N   UNL     1     -11.091  14.363  67.575  1.00  0.00    -0.292 NA 
HETATM   19  C   UNL     1     -11.771  15.011  68.698  1.00  0.00    -0.337 C  
HETATM   20  C   UNL     1     -11.126  15.141  66.338  1.00  0.00    -0.312 C  
ENDBRANCH  15  18
ENDBRANCH  10  12
ENDBRANCH   9  10
ENDBRANCH   6   9
ENDBRANCH   3   4
ENDBRANCH   2   3
TORSDOF 6
ENDMDL
MODEL      157
REMARK 921   NORMALIZED FREE ENERGY PREDICTED BY IDOCK:   -3.87 KCAL/MOL
REMARK 922        TOTAL FREE ENERGY PREDICTED BY IDOCK:   -5.81 KCAL/MOL
REMARK 923 INTER-LIGAND FREE ENERGY PREDICTED BY IDOCK:   -4.87 KCAL/MOL
REMARK 924 INTRA-LIGAND FREE ENERGY PREDICTED BY IDOCK:   -0.95 KCAL/MOL
REMARK 927      BINDING AFFINITY PREDICTED BY RF-SCORE:    0.00 PKD
ROOT
HETATM    1  C   UNL     1      -7.081   6.033  69.094  1.00  0.00    -0.070 C  
HETATM    2  C   UNL     1      -8.039   5.744  70.240  1.00  0.00    -0.105 C  
ENDROOT
BRANCH   2   3
HETATM    3  C   UNL     1      -9.412   6.358  69.966  1.00  0.00    -0.165 C  
BRANCH   3   4
HETATM    4  C   UNL     1      -9.440   7.868  70.237  1.00  0.00    -0.163 C  
HETATM    5  C   UNL     1     -10.878   8.414  70.409  1.00  0.00    -0.246 C  
HETATM    6  C   UNL     1     -10.878   9.938  70.622  1.00  0.00    -0.330 C  
HETATM    7  C   UNL     1     -11.684   7.729  71.533  1.00  0.00    -0.312 C  
HETATM    8  C   UNL     1     -11.136   7.927  72.939  1.00  0.00    -0.442 C  
BRANCH   6   9
HETATM    9  O   UNL     1     -10.290  10.671  69.535  1.00  0.00    -0.223 OA 
BRANCH   9  10
HETATM   10  C   UNL     1     -11.093  10.878  68.462  1.00  0.00    -0.256 C  
HETATM   11  O   UNL     1     -12.217  11.349  68.483  1.00  0.00    -0.557 OA 
BRANCH  10  12
HETATM   12  C   UNL     1     -10.378  10.518  67.207  1.00  0.00    -0.275 A  
HETATM   13  C   UNL     1      -9.918  11.534  66.377  1.00  0.00    -0.241 A  
HETATM   14  C   UNL     1      -9.186  11.230  65.215  1.00  0.00    -0.191 A  
HETATM   15  C   UNL     1      -8.887   9.910  64.834  1.00  0.00    -0.193 A  
HETATM   16  C   UNL     1      -9.382   8.906  65.691  1.00  0.00    -0.259 A  
HETATM   17  C   UNL     1     -10.100   9.195  66.859  1.00  0.00    -0.328 A  
BRANCH  15  18
HETATM   18  N   UNL     1      -8.228   9.591  63.653  1.00  0.00    -0.152 NA 
HETATM   19  C   UNL     1      -6.768   9.673  63.565  1.00  0.00    -0.110 C  
HETATM   20  C   UNL     1      -8.901   9.685  62.359  1.00  0.00    -0.250 C  
ENDBRANCH  15  18
ENDBRANCH  10  12
ENDBRANCH   9  10
ENDBRANCH   6   9
ENDBRANCH   3   4
ENDBRANCH   2   3
TORSDOF 6
ENDMDL
MODEL      158
REMARK 921   NORMALIZED FREE ENERGY PREDICTED BY IDOCK:   -3.84 KCAL/MOL
REMARK 922        TOTAL FREE ENERGY PREDICTED BY IDOCK:   -5.77 KCAL/MOL
REMARK 923 INTER-LIGAND FREE ENERGY PREDICTED BY IDOCK:   -5.79 KCAL/MOL
REMARK 924 INTRA-LIGAND FREE ENERGY PREDICTED BY IDOCK:    0.03 KCAL/MOL
REMARK 927      BINDING AFFINITY PREDICTED BY RF-SCORE:    0.00 PKD
ROOT
HETATM    1  C   UNL     1     -13.017  15.207  73.447  1.00  0.00    -0.642 C  
HETATM    2  C   UNL     1     -13.412  14.636  72.094  1.00  0.00    -0.494 C  
ENDROOT
BRANCH   2   3
HETATM    3  C   UNL     1     -12.202  14.562  71.163  1.00  0.00    -0.411 C  
BRANCH   3   4
HETATM    4  C   UNL     1     -12.589  14.162  69.733  1.00  0.00    -0.151 C  
HETATM    5  C   UNL     1     -11.576  13.182  69.095  1.00  0.00    -0.368 C  
HETATM    6  C   UNL     1     -11.959  12.844  67.644  1.00  0.00    -0.289 C  
HETATM    7  C   UNL     1     -11.364  11.880  69.897  1.00  0.00    -0.175 C  
HETATM    8  C   UNL     1     -12.590  10.983  70.015  1.00  0.00    -0.240 C  
BRANCH   6   9
HETATM    9  O   UNL     1     -12.016  13.991  66.782  1.00  0.00    -0.402 OA 
BRANCH   9  10
HETATM   10  C   UNL     1     -11.356  13.874  65.603  1.00  0.00    -0.309 C  
HETATM   11  O   UNL     1     -11.374  14.675  64.684  1.00  0.00    -0.387 OA 
BRANCH  10  12
HETATM   12  C   UNL     1     -10.519  12.643  65.601  1.00  0.00    -0.298 A  
HETATM   13  C   UNL     1     -10.869  11.589  64.763  1.00  0.00    -0.360 A  
HETATM   14  C   UNL     1     -10.066  10.436  64.693  1.00  0.00    -0.378 A  
HETATM   15  C   UNL     1      -8.891  10.286  65.452  1.00  0.00    -0.172 A  
HETATM   16  C   UNL     1      -8.575  11.367  66.300  1.00  0.00    -0.156 A  
HETATM   17  C   UNL     1      -9.359  12.527  66.369  1.00  0.00    -0.209 A  
BRANCH  15  18
HETATM   18  N   UNL     1      -8.126   9.126  65.447  1.00  0.00    -0.119 NA 
HETATM   19  C   UNL     1      -7.475   8.664  64.219  1.00  0.00    -0.109 C  
HETATM   20  C   UNL     1      -8.350   8.066  66.428  1.00  0.00    -0.124 C  
ENDBRANCH  15  18
ENDBRANCH  10  12
ENDBRANCH   9  10
ENDBRANCH   6   9
ENDBRANCH   3   4
ENDBRANCH   2   3
TORSDOF 6
ENDMDL
MODEL      159
REMARK 921   NORMALIZED FREE ENERGY PREDICTED BY IDOCK:   -3.82 KCAL/MOL
REMARK 922        TOTAL FREE ENERGY PREDICTED BY IDOCK:   -5.75 KCAL/MOL
REMARK 923 INTER-LIGAND FREE ENERGY PREDICTED BY IDOCK:   -4.49 KCAL/MOL
REMARK 924 INTRA-LIGAND FREE ENERGY PREDICTED BY IDOCK:   -1.25 KCAL/MOL
REMARK 927      BINDING AFFINITY PREDICTED BY RF-SCORE:    0.00 PKD
ROOT
HETATM    1  C   UNL     1     -11.831  12.706  66.438  1.00  0.00    -0.466 C  
HETATM    2  C   UNL     1     -11.828  12.223  67.880  1.00  0.00    -0.358 C  
ENDROOT
BRANCH   2   3
HETATM    3  C   UNL     1     -11.404  10.758  67.961  1.00  0.00    -0.378 C  
BRANCH   3   4
HETATM    4  C   UNL     1      -9.881  10.586  67.879  1.00  0.00    -0.181 C  
HETATM    5  C   UNL     1      -9.202  10.632  69.269  1.00  0.00    -0.121 C  
HETATM    6  C   UNL     1      -7.673  10.515  69.152  1.00  0.00    -0.131 C  
HETATM    7  C   UNL     1      -9.733   9.581  70.267  1.00  0.00    -0.314 C  
HETATM    8  C   UNL     1      -9.480   8.130  69.878  1.00  0.00    -0.160 C  
BRANCH   6   9
HETATM    9  O   UNL     1      -7.074  11.561  68.370  1.00  0.00    -0.071 OA 
BRANCH   9  10
HETATM   10  C   UNL     1      -6.739  12.685  69.049  1.00  0.00    -0.097 C  
HETATM   11  O   UNL     1      -5.859  12.786  69.888  1.00  0.00    -0.111 OA 
BRANCH  10  12
HETATM   12  C   UNL     1      -7.553  13.837  68.572  1.00  0.00    -0.134 A  
HETATM   13  C   UNL     1      -7.632  14.980  69.360  1.00  0.00    -0.195 A  
HETATM   14  C   UNL     1      -8.343  16.108  68.912  1.00  0.00    -0.233 A  
HETATM   15  C   UNL     1      -9.002  16.141  67.670  1.00  0.00    -0.191 A  
HETATM   16  C   UNL     1      -8.913  14.960  66.906  1.00  0.00    -0.277 A  
HETATM   17  C   UNL     1      -8.197  13.835  67.334  1.00  0.00    -0.194 A  
BRANCH  15  18
HETATM   18  N   UNL     1      -9.768  17.221  67.245  1.00  0.00    -0.256 NA 
HETATM   19  C   UNL     1     -10.511  18.036  68.208  1.00  0.00    -0.343 C  
HETATM   20  C   UNL     1     -10.301  17.284  65.886  1.00  0.00    -0.278 C  
ENDBRANCH  15  18
ENDBRANCH  10  12
ENDBRANCH   9  10
ENDBRANCH   6   9
ENDBRANCH   3   4
ENDBRANCH   2   3
TORSDOF 6
ENDMDL
MODEL      160
REMARK 921   NORMALIZED FREE ENERGY PREDICTED BY IDOCK:   -3.82 KCAL/MOL
REMARK 922        TOTAL FREE ENERGY PREDICTED BY IDOCK:   -5.74 KCAL/MOL
REMARK 923 INTER-LIGAND FREE ENERGY PREDICTED BY IDOCK:   -5.14 KCAL/MOL
REMARK 924 INTRA-LIGAND FREE ENERGY PREDICTED BY IDOCK:   -0.60 KCAL/MOL
REMARK 927      BINDING AFFINITY PREDICTED BY RF-SCORE:    0.00 PKD
ROOT
HETATM    1  C   UNL     1     -11.063  16.052  70.083  1.00  0.00    -0.372 C  
HETATM    2  C   UNL     1     -11.336  15.746  68.618  1.00  0.00    -0.369 C  
ENDROOT
BRANCH   2   3
HETATM    3  C   UNL     1     -12.030  14.393  68.467  1.00  0.00    -0.333 C  
BRANCH   3   4
HETATM    4  C   UNL     1     -11.214  13.409  67.618  1.00  0.00    -0.302 C  
HETATM    5  C   UNL     1     -12.015  12.854  66.416  1.00  0.00    -0.462 C  
HETATM    6  C   UNL     1     -11.191  11.830  65.618  1.00  0.00    -0.267 C  
HETATM    7  C   UNL     1     -12.562  13.940  65.466  1.00  0.00    -0.560 C  
HETATM    8  C   UNL     1     -11.505  14.765  64.744  1.00  0.00    -0.410 C  
BRANCH   6   9
HETATM    9  O   UNL     1     -10.779  10.693  66.393  1.00  0.00    -0.214 OA 
BRANCH   9  10
HETATM   10  C   UNL     1      -9.460  10.385  66.330  1.00  0.00    -0.171 C  
HETATM   11  O   UNL     1      -8.561  11.131  65.982  1.00  0.00    -0.172 OA 
BRANCH  10  12
HETATM   12  C   UNL     1      -9.231   9.001  66.828  1.00  0.00    -0.198 A  
HETATM   13  C   UNL     1     -10.329   8.194  67.109  1.00  0.00    -0.391 A  
HETATM   14  C   UNL     1     -10.148   6.862  67.524  1.00  0.00    -0.222 A  
HETATM   15  C   UNL     1      -8.875   6.284  67.677  1.00  0.00    -0.111 A  
HETATM   16  C   UNL     1      -7.786   7.135  67.398  1.00  0.00    -0.112 A  
HETATM   17  C   UNL     1      -7.952   8.460  66.970  1.00  0.00    -0.100 A  
BRANCH  15  18
HETATM   18  N   UNL     1      -8.678   4.994  68.154  1.00  0.00    -0.102 NA 
HETATM   19  C   UNL     1      -7.957   4.002  67.354  1.00  0.00    -0.091 C  
HETATM   20  C   UNL     1      -9.576   4.408  69.147  1.00  0.00    -0.181 C  
ENDBRANCH  15  18
ENDBRANCH  10  12
ENDBRANCH   9  10
ENDBRANCH   6   9
ENDBRANCH   3   4
ENDBRANCH   2   3
TORSDOF 6
ENDMDL
MODEL      161
REMARK 921   NORMALIZED FREE ENERGY PREDICTED BY IDOCK:   -3.81 KCAL/MOL
REMARK 922        TOTAL FREE ENERGY PREDICTED BY IDOCK:   -5.74 KCAL/MOL
REMARK 923 INTER-LIGAND FREE ENERGY PREDICTED BY IDOCK:   -5.92 KCAL/MOL
REMARK 924 INTRA-LIGAND FREE ENERGY PREDICTED BY IDOCK:    0.18 KCAL/MOL
REMARK 927      BINDING AFFINITY PREDICTED BY RF-SCORE:    0.00 PKD
ROOT
HETATM    1  C   UNL     1      -8.420   3.137  71.404  1.00  0.00    -0.091 C  
HETATM    2  C   UNL     1      -8.819   4.590  71.199  1.00  0.00    -0.151 C  
ENDROOT
BRANCH   2   3
HETATM    3  C   UNL     1     -10.235   4.688  70.632  1.00  0.00    -0.211 C  
BRANCH   3   4
HETATM    4  C   UNL     1     -10.649   6.138  70.343  1.00  0.00    -0.317 C  
HETATM    5  C   UNL     1      -9.663   6.859  69.394  1.00  0.00    -0.157 C  
HETATM    6  C   UNL     1     -10.071   8.324  69.167  1.00  0.00    -0.202 C  
HETATM    7  C   UNL     1      -9.465   6.155  68.034  1.00  0.00    -0.113 C  
HETATM    8  C   UNL     1     -10.705   6.084  67.153  1.00  0.00    -0.409 C  
BRANCH   6   9
HETATM    9  O   UNL     1     -10.117   9.102  70.374  1.00  0.00    -0.189 OA 
BRANCH   9  10
HETATM   10  C   UNL     1     -11.290   9.735  70.622  1.00  0.00    -0.330 C  
HETATM   11  O   UNL     1     -12.097   9.445  71.490  1.00  0.00    -0.329 OA 
BRANCH  10  12
HETATM   12  C   UNL     1     -11.439  10.913  69.725  1.00  0.00    -0.390 A  
HETATM   13  C   UNL     1     -11.231  10.752  68.359  1.00  0.00    -0.345 A  
HETATM   14  C   UNL     1     -11.421  11.830  67.476  1.00  0.00    -0.373 A  
HETATM   15  C   UNL     1     -11.823  13.104  67.915  1.00  0.00    -0.348 A  
HETATM   16  C   UNL     1     -12.010  13.235  69.306  1.00  0.00    -0.354 A  
HETATM   17  C   UNL     1     -11.837  12.165  70.195  1.00  0.00    -0.368 A  
BRANCH  15  18
HETATM   18  N   UNL     1     -11.946  14.197  67.064  1.00  0.00    -0.428 NA 
HETATM   19  C   UNL     1     -12.623  14.066  65.772  1.00  0.00    -0.479 C  
HETATM   20  C   UNL     1     -11.009  15.316  67.126  1.00  0.00    -0.331 C  
ENDBRANCH  15  18
ENDBRANCH  10  12
ENDBRANCH   9  10
ENDBRANCH   6   9
ENDBRANCH   3   4
ENDBRANCH   2   3
TORSDOF 6
ENDMDL
MODEL      162
REMARK 921   NORMALIZED FREE ENERGY PREDICTED BY IDOCK:   -3.80 KCAL/MOL
REMARK 922        TOTAL FREE ENERGY PREDICTED BY IDOCK:   -5.72 KCAL/MOL
REMARK 923 INTER-LIGAND FREE ENERGY PREDICTED BY IDOCK:   -5.22 KCAL/MOL
REMARK 924 INTRA-LIGAND FREE ENERGY PREDICTED BY IDOCK:   -0.50 KCAL/MOL
REMARK 927      BINDING AFFINITY PREDICTED BY RF-SCORE:    0.00 PKD
ROOT
HETATM    1  C   UNL     1      -6.771   8.782  69.116  1.00  0.00    -0.051 C  
HETATM    2  C   UNL     1      -7.217   7.339  69.300  1.00  0.00    -0.081 C  
ENDROOT
BRANCH   2   3
HETATM    3  C   UNL     1      -8.103   7.200  70.537  1.00  0.00    -0.113 C  
BRANCH   3   4
HETATM    4  C   UNL     1      -8.868   8.492  70.856  1.00  0.00    -0.203 C  
HETATM    5  C   UNL     1     -10.402   8.293  70.842  1.00  0.00    -0.225 C  
HETATM    6  C   UNL     1     -11.142   9.616  71.107  1.00  0.00    -0.374 C  
HETATM    7  C   UNL     1     -10.907   7.207  71.816  1.00  0.00    -0.253 C  
HETATM    8  C   UNL     1     -10.672   7.497  73.292  1.00  0.00    -0.437 C  
BRANCH   6   9
HETATM    9  O   UNL     1     -10.855  10.639  70.142  1.00  0.00    -0.261 OA 
BRANCH   9  10
HETATM   10  C   UNL     1     -11.933  11.196  69.536  1.00  0.00    -0.355 C  
HETATM   11  O   UNL     1     -13.072  10.759  69.546  1.00  0.00    -0.013 OA 
BRANCH  10  12
HETATM   12  C   UNL     1     -11.556  12.489  68.903  1.00  0.00    -0.364 A  
HETATM   13  C   UNL     1     -12.142  13.663  69.364  1.00  0.00    -0.364 A  
HETATM   14  C   UNL     1     -11.765  14.908  68.829  1.00  0.00    -0.353 A  
HETATM   15  C   UNL     1     -10.796  15.033  67.817  1.00  0.00    -0.284 A  
HETATM   16  C   UNL     1     -10.235  13.822  67.364  1.00  0.00    -0.252 A  
HETATM   17  C   UNL     1     -10.591  12.576  67.898  1.00  0.00    -0.233 A  
BRANCH  15  18
HETATM   18  N   UNL     1     -10.464  16.248  67.229  1.00  0.00    -0.298 NA 
HETATM   19  C   UNL     1     -10.713  17.510  67.927  1.00  0.00    -0.339 C  
HETATM   20  C   UNL     1     -10.373  16.387  65.777  1.00  0.00    -0.369 C  
ENDBRANCH  15  18
ENDBRANCH  10  12
ENDBRANCH   9  10
ENDBRANCH   6   9
ENDBRANCH   3   4
ENDBRANCH   2   3
TORSDOF 6
ENDMDL
MODEL      163
REMARK 921   NORMALIZED FREE ENERGY PREDICTED BY IDOCK:   -3.80 KCAL/MOL
REMARK 922        TOTAL FREE ENERGY PREDICTED BY IDOCK:   -5.72 KCAL/MOL
REMARK 923 INTER-LIGAND FREE ENERGY PREDICTED BY IDOCK:   -5.11 KCAL/MOL
REMARK 924 INTRA-LIGAND FREE ENERGY PREDICTED BY IDOCK:   -0.61 KCAL/MOL
REMARK 927      BINDING AFFINITY PREDICTED BY RF-SCORE:    0.00 PKD
ROOT
HETATM    1  C   UNL     1      -9.383  15.510  65.950  1.00  0.00    -0.355 C  
HETATM    2  C   UNL     1     -10.782  15.791  66.479  1.00  0.00    -0.283 C  
ENDROOT
BRANCH   2   3
HETATM    3  C   UNL     1     -11.469  14.494  66.906  1.00  0.00    -0.375 C  
BRANCH   3   4
HETATM    4  C   UNL     1     -10.723  13.248  66.411  1.00  0.00    -0.291 C  
HETATM    5  C   UNL     1     -11.679  12.158  65.870  1.00  0.00    -0.393 C  
HETATM    6  C   UNL     1     -10.909  10.900  65.435  1.00  0.00    -0.042 C  
HETATM    7  C   UNL     1     -12.594  12.634  64.722  1.00  0.00    -0.530 C  
HETATM    8  C   UNL     1     -11.874  13.040  63.443  1.00  0.00    -0.543 C  
BRANCH   6   9
HETATM    9  O   UNL     1     -10.155  10.291  66.496  1.00  0.00    -0.213 OA 
BRANCH   9  10
HETATM   10  C   UNL     1      -9.502   9.148  66.173  1.00  0.00    -0.245 C  
HETATM   11  O   UNL     1      -8.957   8.904  65.110  1.00  0.00    -0.197 OA 
BRANCH  10  12
HETATM   12  C   UNL     1      -9.466   8.228  67.342  1.00  0.00    -0.188 A  
HETATM   13  C   UNL     1     -10.558   7.402  67.586  1.00  0.00    -0.309 A  
HETATM   14  C   UNL     1     -10.532   6.479  68.647  1.00  0.00    -0.252 A  
HETATM   15  C   UNL     1      -9.425   6.343  69.504  1.00  0.00    -0.145 A  
HETATM   16  C   UNL     1      -8.343   7.205  69.236  1.00  0.00    -0.133 A  
HETATM   17  C   UNL     1      -8.350   8.120  68.174  1.00  0.00    -0.129 A  
BRANCH  15  18
HETATM   18  N   UNL     1      -9.412   5.486  70.598  1.00  0.00    -0.161 NA 
HETATM   19  C   UNL     1      -8.602   5.793  71.778  1.00  0.00    -0.131 C  
HETATM   20  C   UNL     1      -9.728   4.067  70.454  1.00  0.00    -0.193 C  
ENDBRANCH  15  18
ENDBRANCH  10  12
ENDBRANCH   9  10
ENDBRANCH   6   9
ENDBRANCH   3   4
ENDBRANCH   2   3
TORSDOF 6
ENDMDL
MODEL      164
REMARK 921   NORMALIZED FREE ENERGY PREDICTED BY IDOCK:   -3.79 KCAL/MOL
REMARK 922        TOTAL FREE ENERGY PREDICTED BY IDOCK:   -5.71 KCAL/MOL
REMARK 923 INTER-LIGAND FREE ENERGY PREDICTED BY IDOCK:   -5.26 KCAL/MOL
REMARK 924 INTRA-LIGAND FREE ENERGY PREDICTED BY IDOCK:   -0.45 KCAL/MOL
REMARK 927      BINDING AFFINITY PREDICTED BY RF-SCORE:    0.00 PKD
ROOT
HETATM    1  C   UNL     1      -9.220  16.997  68.561  1.00  0.00    -0.266 C  
HETATM    2  C   UNL     1     -10.121  16.642  67.387  1.00  0.00    -0.274 C  
ENDROOT
BRANCH   2   3
HETATM    3  C   UNL     1     -11.114  15.549  67.778  1.00  0.00    -0.315 C  
BRANCH   3   4
HETATM    4  C   UNL     1     -10.763  14.191  67.153  1.00  0.00    -0.280 C  
HETATM    5  C   UNL     1     -12.014  13.417  66.674  1.00  0.00    -0.452 C  
HETATM    6  C   UNL     1     -11.637  12.038  66.106  1.00  0.00    -0.304 C  
HETATM    7  C   UNL     1     -12.880  14.185  65.652  1.00  0.00    -0.402 C  
HETATM    8  C   UNL     1     -12.204  14.482  64.321  1.00  0.00    -0.441 C  
BRANCH   6   9
HETATM    9  O   UNL     1     -10.969  11.189  67.052  1.00  0.00    -0.275 OA 
BRANCH   9  10
HETATM   10  C   UNL     1      -9.696  10.845  66.738  1.00  0.00    -0.190 C  
HETATM   11  O   UNL     1      -8.734  11.594  66.701  1.00  0.00    -0.180 OA 
BRANCH  10  12
HETATM   12  C   UNL     1      -9.600   9.377  66.511  1.00  0.00    -0.267 A  
HETATM   13  C   UNL     1      -8.573   8.882  65.714  1.00  0.00    -0.181 A  
HETATM   14  C   UNL     1      -8.418   7.496  65.528  1.00  0.00    -0.129 A  
HETATM   15  C   UNL     1      -9.275   6.554  66.123  1.00  0.00    -0.096 A  
HETATM   16  C   UNL     1     -10.312   7.091  66.912  1.00  0.00    -0.338 A  
HETATM   17  C   UNL     1     -10.470   8.469  67.117  1.00  0.00    -0.370 A  
BRANCH  15  18
HETATM   18  N   UNL     1      -9.178   5.186  65.892  1.00  0.00    -0.156 NA 
HETATM   19  C   UNL     1      -9.130   4.660  64.526  1.00  0.00    -0.132 C  
HETATM   20  C   UNL     1      -9.643   4.216  66.880  1.00  0.00    -0.209 C  
ENDBRANCH  15  18
ENDBRANCH  10  12
ENDBRANCH   9  10
ENDBRANCH   6   9
ENDBRANCH   3   4
ENDBRANCH   2   3
TORSDOF 6
ENDMDL
MODEL      165
REMARK 921   NORMALIZED FREE ENERGY PREDICTED BY IDOCK:   -3.77 KCAL/MOL
REMARK 922        TOTAL FREE ENERGY PREDICTED BY IDOCK:   -5.68 KCAL/MOL
REMARK 923 INTER-LIGAND FREE ENERGY PREDICTED BY IDOCK:   -5.14 KCAL/MOL
REMARK 924 INTRA-LIGAND FREE ENERGY PREDICTED BY IDOCK:   -0.54 KCAL/MOL
REMARK 927      BINDING AFFINITY PREDICTED BY RF-SCORE:    0.00 PKD
ROOT
HETATM    1  C   UNL     1      -9.950  16.731  69.372  1.00  0.00    -0.140 C  
HETATM    2  C   UNL     1     -10.344  15.780  68.252  1.00  0.00    -0.239 C  
ENDROOT
BRANCH   2   3
HETATM    3  C   UNL     1     -11.375  14.763  68.742  1.00  0.00    -0.301 C  
BRANCH   3   4
HETATM    4  C   UNL     1     -10.844  13.324  68.692  1.00  0.00    -0.285 C  
HETATM    5  C   UNL     1     -11.734  12.392  67.836  1.00  0.00    -0.421 C  
HETATM    6  C   UNL     1     -11.210  10.946  67.852  1.00  0.00    -0.321 C  
HETATM    7  C   UNL     1     -11.927  12.863  66.379  1.00  0.00    -0.462 C  
HETATM    8  C   UNL     1     -10.660  12.898  65.535  1.00  0.00    -0.298 C  
BRANCH   6   9
HETATM    9  O   UNL     1     -11.157  10.367  69.165  1.00  0.00    -0.222 OA 
BRANCH   9  10
HETATM   10  C   UNL     1      -9.936   9.938  69.570  1.00  0.00    -0.222 C  
HETATM   11  O   UNL     1      -8.878  10.524  69.417  1.00  0.00    -0.152 OA 
BRANCH  10  12
HETATM   12  C   UNL     1     -10.062   8.657  70.317  1.00  0.00    -0.206 A  
HETATM   13  C   UNL     1     -10.223   7.473  69.605  1.00  0.00    -0.205 A  
HETATM   14  C   UNL     1     -10.286   6.238  70.277  1.00  0.00    -0.244 A  
HETATM   15  C   UNL     1     -10.193   6.135  71.677  1.00  0.00    -0.198 A  
HETATM   16  C   UNL     1     -10.046   7.355  72.366  1.00  0.00    -0.228 A  
HETATM   17  C   UNL     1      -9.968   8.590  71.708  1.00  0.00    -0.345 A  
BRANCH  15  18
HETATM   18  N   UNL     1     -10.325   4.931  72.359  1.00  0.00    -0.199 NA 
HETATM   19  C   UNL     1      -9.927   3.669  71.733  1.00  0.00    -0.140 C  
HETATM   20  C   UNL     1     -11.301   4.772  73.435  1.00  0.00    -0.312 C  
ENDBRANCH  15  18
ENDBRANCH  10  12
ENDBRANCH   9  10
ENDBRANCH   6   9
ENDBRANCH   3   4
ENDBRANCH   2   3
TORSDOF 6
ENDMDL
MODEL      166
REMARK 921   NORMALIZED FREE ENERGY PREDICTED BY IDOCK:   -3.76 KCAL/MOL
REMARK 922        TOTAL FREE ENERGY PREDICTED BY IDOCK:   -5.66 KCAL/MOL
REMARK 923 INTER-LIGAND FREE ENERGY PREDICTED BY IDOCK:   -4.99 KCAL/MOL
REMARK 924 INTRA-LIGAND FREE ENERGY PREDICTED BY IDOCK:   -0.68 KCAL/MOL
REMARK 927      BINDING AFFINITY PREDICTED BY RF-SCORE:    0.00 PKD
ROOT
HETATM    1  C   UNL     1     -10.343   5.216  66.600  1.00  0.00    -0.325 C  
HETATM    2  C   UNL     1      -9.081   4.564  67.144  1.00  0.00    -0.136 C  
ENDROOT
BRANCH   2   3
HETATM    3  C   UNL     1      -7.980   5.603  67.351  1.00  0.00    -0.102 C  
BRANCH   3   4
HETATM    4  C   UNL     1      -8.492   6.861  68.067  1.00  0.00    -0.124 C  
HETATM    5  C   UNL     1      -8.862   6.594  69.545  1.00  0.00    -0.139 C  
HETATM    6  C   UNL     1      -9.425   7.857  70.219  1.00  0.00    -0.163 C  
HETATM    7  C   UNL     1      -7.707   6.019  70.392  1.00  0.00    -0.097 C  
HETATM    8  C   UNL     1      -6.506   6.939  70.563  1.00  0.00    -0.051 C  
BRANCH   6   9
HETATM    9  O   UNL     1     -10.610   8.367  69.587  1.00  0.00    -0.224 OA 
BRANCH   9  10
HETATM   10  C   UNL     1     -11.008   9.599  69.990  1.00  0.00    -0.260 C  
HETATM   11  O   UNL     1     -11.187   9.959  71.141  1.00  0.00    -0.354 OA 
BRANCH  10  12
HETATM   12  C   UNL     1     -11.127  10.510  68.819  1.00  0.00    -0.315 A  
HETATM   13  C   UNL     1     -11.920  11.647  68.926  1.00  0.00    -0.355 A  
HETATM   14  C   UNL     1     -12.007  12.560  67.859  1.00  0.00    -0.283 A  
HETATM   15  C   UNL     1     -11.313  12.377  66.650  1.00  0.00    -0.339 A  
HETATM   16  C   UNL     1     -10.531  11.207  66.571  1.00  0.00    -0.305 A  
HETATM   17  C   UNL     1     -10.425  10.297  67.632  1.00  0.00    -0.285 A  
BRANCH  15  18
HETATM   18  N   UNL     1     -11.444  13.232  65.562  1.00  0.00    -0.306 NA 
HETATM   19  C   UNL     1     -12.406  12.944  64.496  1.00  0.00    -0.417 C  
HETATM   20  C   UNL     1     -10.347  14.102  65.145  1.00  0.00    -0.405 C  
ENDBRANCH  15  18
ENDBRANCH  10  12
ENDBRANCH   9  10
ENDBRANCH   6   9
ENDBRANCH   3   4
ENDBRANCH   2   3
TORSDOF 6
ENDMDL
MODEL      167
REMARK 921   NORMALIZED FREE ENERGY PREDICTED BY IDOCK:   -3.75 KCAL/MOL
REMARK 922        TOTAL FREE ENERGY PREDICTED BY IDOCK:   -5.65 KCAL/MOL
REMARK 923 INTER-LIGAND FREE ENERGY PREDICTED BY IDOCK:   -4.71 KCAL/MOL
REMARK 924 INTRA-LIGAND FREE ENERGY PREDICTED BY IDOCK:   -0.94 KCAL/MOL
REMARK 927      BINDING AFFINITY PREDICTED BY RF-SCORE:    0.00 PKD
ROOT
HETATM    1  C   UNL     1      -8.430   7.976  65.474  1.00  0.00    -0.159 C  
HETATM    2  C   UNL     1      -8.469   9.485  65.283  1.00  0.00    -0.159 C  
ENDROOT
BRANCH   2   3
HETATM    3  C   UNL     1      -9.786  10.063  65.797  1.00  0.00    -0.345 C  
BRANCH   3   4
HETATM    4  C   UNL     1     -10.313   9.309  67.027  1.00  0.00    -0.325 C  
HETATM    5  C   UNL     1      -9.871   9.962  68.358  1.00  0.00    -0.166 C  
HETATM    6  C   UNL     1     -10.365   9.155  69.570  1.00  0.00    -0.215 C  
HETATM    7  C   UNL     1     -10.291  11.440  68.508  1.00  0.00    -0.219 C  
HETATM    8  C   UNL     1     -11.793  11.687  68.556  1.00  0.00    -0.357 C  
BRANCH   6   9
HETATM    9  O   UNL     1      -9.879   7.803  69.598  1.00  0.00    -0.178 OA 
BRANCH   9  10
HETATM   10  C   UNL     1     -10.829   6.836  69.561  1.00  0.00    -0.273 C  
HETATM   11  O   UNL     1     -11.882   6.835  70.176  1.00  0.00    -0.349 OA 
BRANCH  10  12
HETATM   12  C   UNL     1     -10.448   5.778  68.586  1.00  0.00    -0.298 A  
HETATM   13  C   UNL     1     -10.817   5.924  67.253  1.00  0.00    -0.351 A  
HETATM   14  C   UNL     1     -10.422   4.973  66.295  1.00  0.00    -0.352 A  
HETATM   15  C   UNL     1      -9.650   3.844  66.624  1.00  0.00    -0.193 A  
HETATM   16  C   UNL     1      -9.306   3.721  67.985  1.00  0.00    -0.232 A  
HETATM   17  C   UNL     1      -9.682   4.668  68.948  1.00  0.00    -0.236 A  
BRANCH  15  18
HETATM   18  N   UNL     1      -9.312   2.860  65.702  1.00  0.00    -0.116 NA 
HETATM   19  C   UNL     1      -8.079   2.084  65.855  1.00  0.00    -0.084 C  
HETATM   20  C   UNL     1      -9.816   2.899  64.331  1.00  0.00    -0.105 C  
ENDBRANCH  15  18
ENDBRANCH  10  12
ENDBRANCH   9  10
ENDBRANCH   6   9
ENDBRANCH   3   4
ENDBRANCH   2   3
TORSDOF 6
ENDMDL
MODEL      168
REMARK 921   NORMALIZED FREE ENERGY PREDICTED BY IDOCK:   -3.75 KCAL/MOL
REMARK 922        TOTAL FREE ENERGY PREDICTED BY IDOCK:   -5.65 KCAL/MOL
REMARK 923 INTER-LIGAND FREE ENERGY PREDICTED BY IDOCK:   -5.08 KCAL/MOL
REMARK 924 INTRA-LIGAND FREE ENERGY PREDICTED BY IDOCK:   -0.56 KCAL/MOL
REMARK 927      BINDING AFFINITY PREDICTED BY RF-SCORE:    0.00 PKD
ROOT
HETATM    1  C   UNL     1      -6.036   9.515  68.483  1.00  0.00    -0.043 C  
HETATM    2  C   UNL     1      -6.195   8.023  68.232  1.00  0.00    -0.049 C  
ENDROOT
BRANCH   2   3
HETATM    3  C   UNL     1      -7.521   7.517  68.800  1.00  0.00    -0.097 C  
BRANCH   3   4
HETATM    4  C   UNL     1      -8.698   8.433  68.438  1.00  0.00    -0.136 C  
HETATM    5  C   UNL     1      -9.219   8.191  67.001  1.00  0.00    -0.187 C  
HETATM    6  C   UNL     1     -10.360   9.160  66.646  1.00  0.00    -0.218 C  
HETATM    7  C   UNL     1      -9.664   6.738  66.726  1.00  0.00    -0.222 C  
HETATM    8  C   UNL     1     -10.855   6.257  67.544  1.00  0.00    -0.436 C  
BRANCH   6   9
HETATM    9  O   UNL     1      -9.981  10.544  66.715  1.00  0.00    -0.189 OA 
BRANCH   9  10
HETATM   10  C   UNL     1     -10.948  11.400  67.128  1.00  0.00    -0.285 C  
HETATM   11  O   UNL     1     -11.966  11.102  67.729  1.00  0.00    -0.630 OA 
BRANCH  10  12
HETATM   12  C   UNL     1     -10.562  12.803  66.813  1.00  0.00    -0.266 A  
HETATM   13  C   UNL     1     -10.731  13.275  65.516  1.00  0.00    -0.299 A  
HETATM   14  C   UNL     1     -10.433  14.613  65.199  1.00  0.00    -0.440 A  
HETATM   15  C   UNL     1      -9.956  15.528  66.154  1.00  0.00    -0.309 A  
HETATM   16  C   UNL     1      -9.783  15.011  67.454  1.00  0.00    -0.216 A  
HETATM   17  C   UNL     1     -10.089  13.684  67.787  1.00  0.00    -0.242 A  
BRANCH  15  18
HETATM   18  N   UNL     1      -9.590  16.831  65.841  1.00  0.00    -0.509 NA 
HETATM   19  C   UNL     1      -8.354  17.410  66.371  1.00  0.00    -0.267 C  
HETATM   20  C   UNL     1     -10.588  17.828  65.458  1.00  0.00    -0.041 C  
ENDBRANCH  15  18
ENDBRANCH  10  12
ENDBRANCH   9  10
ENDBRANCH   6   9
ENDBRANCH   3   4
ENDBRANCH   2   3
TORSDOF 6
ENDMDL
MODEL      169
REMARK 921   NORMALIZED FREE ENERGY PREDICTED BY IDOCK:   -3.74 KCAL/MOL
REMARK 922        TOTAL FREE ENERGY PREDICTED BY IDOCK:   -5.64 KCAL/MOL
REMARK 923 INTER-LIGAND FREE ENERGY PREDICTED BY IDOCK:   -4.82 KCAL/MOL
REMARK 924 INTRA-LIGAND FREE ENERGY PREDICTED BY IDOCK:   -0.82 KCAL/MOL
REMARK 927      BINDING AFFINITY PREDICTED BY RF-SCORE:    0.00 PKD
ROOT
HETATM    1  C   UNL     1      -6.163  10.421  66.461  1.00  0.00    -0.078 C  
HETATM    2  C   UNL     1      -6.740  11.277  67.578  1.00  0.00    -0.074 C  
ENDROOT
BRANCH   2   3
HETATM    3  C   UNL     1      -7.687  12.336  67.016  1.00  0.00    -0.089 C  
BRANCH   3   4
HETATM    4  C   UNL     1      -9.045  12.345  67.733  1.00  0.00    -0.193 C  
HETATM    5  C   UNL     1     -10.045  13.340  67.099  1.00  0.00    -0.239 C  
HETATM    6  C   UNL     1     -11.375  13.369  67.872  1.00  0.00    -0.289 C  
HETATM    7  C   UNL     1     -10.318  13.093  65.599  1.00  0.00    -0.291 C  
HETATM    8  C   UNL     1     -10.990  11.767  65.271  1.00  0.00    -0.350 C  
BRANCH   6   9
HETATM    9  O   UNL     1     -11.232  13.755  69.248  1.00  0.00    -0.253 OA 
BRANCH   9  10
HETATM   10  C   UNL     1     -11.586  15.031  69.540  1.00  0.00    -0.311 C  
HETATM   11  O   UNL     1     -12.596  15.383  70.127  1.00  0.00    -0.364 OA 
BRANCH  10  12
HETATM   12  C   UNL     1     -10.517  15.974  69.111  1.00  0.00    -0.251 A  
HETATM   13  C   UNL     1      -9.204  15.727  69.499  1.00  0.00    -0.215 A  
HETATM   14  C   UNL     1      -8.162  16.564  69.061  1.00  0.00    -0.208 A  
HETATM   15  C   UNL     1      -8.383  17.674  68.226  1.00  0.00    -0.274 A  
HETATM   16  C   UNL     1      -9.727  17.901  67.865  1.00  0.00    -0.288 A  
HETATM   17  C   UNL     1     -10.773  17.067  68.283  1.00  0.00    -0.372 A  
BRANCH  15  18
HETATM   18  N   UNL     1      -7.375  18.550  67.844  1.00  0.00    -0.232 NA 
HETATM   19  C   UNL     1      -7.223  18.950  66.443  1.00  0.00    -0.237 C  
HETATM   20  C   UNL     1      -6.151  18.688  68.631  1.00  0.00    -0.211 C  
ENDBRANCH  15  18
ENDBRANCH  10  12
ENDBRANCH   9  10
ENDBRANCH   6   9
ENDBRANCH   3   4
ENDBRANCH   2   3
TORSDOF 6
ENDMDL
MODEL      170
REMARK 921   NORMALIZED FREE ENERGY PREDICTED BY IDOCK:   -3.74 KCAL/MOL
REMARK 922        TOTAL FREE ENERGY PREDICTED BY IDOCK:   -5.64 KCAL/MOL
REMARK 923 INTER-LIGAND FREE ENERGY PREDICTED BY IDOCK:   -4.52 KCAL/MOL
REMARK 924 INTRA-LIGAND FREE ENERGY PREDICTED BY IDOCK:   -1.12 KCAL/MOL
REMARK 927      BINDING AFFINITY PREDICTED BY RF-SCORE:    0.00 PKD
ROOT
HETATM    1  C   UNL     1      -8.514   9.540  65.431  1.00  0.00    -0.157 C  
HETATM    2  C   UNL     1      -9.584   8.695  66.105  1.00  0.00    -0.305 C  
ENDROOT
BRANCH   2   3
HETATM    3  C   UNL     1      -9.075   7.276  66.356  1.00  0.00    -0.192 C  
BRANCH   3   4
HETATM    4  C   UNL     1      -9.029   6.928  67.850  1.00  0.00    -0.121 C  
HETATM    5  C   UNL     1      -7.604   6.569  68.333  1.00  0.00    -0.104 C  
HETATM    6  C   UNL     1      -7.598   6.170  69.818  1.00  0.00    -0.085 C  
HETATM    7  C   UNL     1      -6.554   7.673  68.083  1.00  0.00    -0.054 C  
HETATM    8  C   UNL     1      -6.789   8.975  68.838  1.00  0.00    -0.057 C  
BRANCH   6   9
HETATM    9  O   UNL     1      -8.427   5.035  70.113  1.00  0.00    -0.089 OA 
BRANCH   9  10
HETATM   10  C   UNL     1      -8.951   4.996  71.362  1.00  0.00    -0.135 C  
HETATM   11  O   UNL     1      -8.615   4.246  72.263  1.00  0.00    -0.105 OA 
BRANCH  10  12
HETATM   12  C   UNL     1      -9.967   6.071  71.527  1.00  0.00    -0.212 A  
HETATM   13  C   UNL     1     -11.124   6.031  70.755  1.00  0.00    -0.355 A  
HETATM   14  C   UNL     1     -12.132   6.997  70.928  1.00  0.00    -0.403 A  
HETATM   15  C   UNL     1     -12.028   8.037  71.869  1.00  0.00    -0.314 A  
HETATM   16  C   UNL     1     -10.837   8.055  72.622  1.00  0.00    -0.436 A  
HETATM   17  C   UNL     1      -9.831   7.091  72.470  1.00  0.00    -0.175 A  
BRANCH  15  18
HETATM   18  N   UNL     1     -12.982   9.039  72.002  1.00  0.00    -0.375 NA 
HETATM   19  C   UNL     1     -14.379   8.709  72.288  1.00  0.00    -0.396 C  
HETATM   20  C   UNL     1     -12.804  10.344  71.369  1.00  0.00    -0.452 C  
ENDBRANCH  15  18
ENDBRANCH  10  12
ENDBRANCH   9  10
ENDBRANCH   6   9
ENDBRANCH   3   4
ENDBRANCH   2   3
TORSDOF 6
ENDMDL
MODEL      171
REMARK 921   NORMALIZED FREE ENERGY PREDICTED BY IDOCK:   -3.73 KCAL/MOL
REMARK 922        TOTAL FREE ENERGY PREDICTED BY IDOCK:   -5.63 KCAL/MOL
REMARK 923 INTER-LIGAND FREE ENERGY PREDICTED BY IDOCK:   -5.30 KCAL/MOL
REMARK 924 INTRA-LIGAND FREE ENERGY PREDICTED BY IDOCK:   -0.33 KCAL/MOL
REMARK 927      BINDING AFFINITY PREDICTED BY RF-SCORE:    0.00 PKD
ROOT
HETATM    1  C   UNL     1      -9.685   9.515  70.382  1.00  0.00    -0.328 C  
HETATM    2  C   UNL     1      -9.160   8.672  69.229  1.00  0.00    -0.149 C  
ENDROOT
BRANCH   2   3
HETATM    3  C   UNL     1     -10.230   8.504  68.150  1.00  0.00    -0.254 C  
BRANCH   3   4
HETATM    4  C   UNL     1     -10.455   9.791  67.347  1.00  0.00    -0.319 C  
HETATM    5  C   UNL     1      -9.134  10.413  66.837  1.00  0.00    -0.159 C  
HETATM    6  C   UNL     1      -9.386  11.731  66.085  1.00  0.00    -0.225 C  
HETATM    7  C   UNL     1      -8.286   9.466  65.961  1.00  0.00    -0.111 C  
HETATM    8  C   UNL     1      -8.929   9.048  64.645  1.00  0.00    -0.112 C  
BRANCH   6   9
HETATM    9  O   UNL     1     -10.028  12.737  66.886  1.00  0.00    -0.224 OA 
BRANCH   9  10
HETATM   10  C   UNL     1      -9.211  13.450  67.700  1.00  0.00    -0.212 C  
HETATM   11  O   UNL     1      -8.310  13.003  68.389  1.00  0.00    -0.157 OA 
BRANCH  10  12
HETATM   12  C   UNL     1      -9.512  14.903  67.585  1.00  0.00    -0.199 A  
HETATM   13  C   UNL     1      -8.854  15.654  66.616  1.00  0.00    -0.327 A  
HETATM   14  C   UNL     1      -9.158  17.016  66.441  1.00  0.00    -0.300 A  
HETATM   15  C   UNL     1     -10.122  17.682  67.219  1.00  0.00    -0.331 A  
HETATM   16  C   UNL     1     -10.758  16.894  68.199  1.00  0.00    -0.375 A  
HETATM   17  C   UNL     1     -10.475  15.533  68.376  1.00  0.00    -0.240 A  
BRANCH  15  18
HETATM   18  N   UNL     1     -10.383  19.043  67.105  1.00  0.00    -0.389 NA 
HETATM   19  C   UNL     1     -10.443  19.686  65.791  1.00  0.00    -0.444 C  
HETATM   20  C   UNL     1     -10.085  19.965  68.199  1.00  0.00    -0.441 C  
ENDBRANCH  15  18
ENDBRANCH  10  12
ENDBRANCH   9  10
ENDBRANCH   6   9
ENDBRANCH   3   4
ENDBRANCH   2   3
TORSDOF 6
ENDMDL
MODEL      172
REMARK 921   NORMALIZED FREE ENERGY PREDICTED BY IDOCK:   -3.73 KCAL/MOL
REMARK 922        TOTAL FREE ENERGY PREDICTED BY IDOCK:   -5.62 KCAL/MOL
REMARK 923 INTER-LIGAND FREE ENERGY PREDICTED BY IDOCK:   -4.88 KCAL/MOL
REMARK 924 INTRA-LIGAND FREE ENERGY PREDICTED BY IDOCK:   -0.74 KCAL/MOL
REMARK 927      BINDING AFFINITY PREDICTED BY RF-SCORE:    0.00 PKD
ROOT
HETATM    1  C   UNL     1      -8.095  17.774  67.183  1.00  0.00    -0.229 C  
HETATM    2  C   UNL     1      -9.239  16.773  67.109  1.00  0.00    -0.233 C  
ENDROOT
BRANCH   2   3
HETATM    3  C   UNL     1      -8.795  15.493  66.403  1.00  0.00    -0.359 C  
BRANCH   3   4
HETATM    4  C   UNL     1      -9.504  14.248  66.953  1.00  0.00    -0.272 C  
HETATM    5  C   UNL     1     -11.041  14.320  66.794  1.00  0.00    -0.316 C  
HETATM    6  C   UNL     1     -11.727  13.086  67.405  1.00  0.00    -0.374 C  
HETATM    7  C   UNL     1     -11.518  14.518  65.339  1.00  0.00    -0.348 C  
HETATM    8  C   UNL     1     -11.189  13.376  64.387  1.00  0.00    -0.408 C  
BRANCH   6   9
HETATM    9  O   UNL     1     -11.470  12.920  68.808  1.00  0.00    -0.260 OA 
BRANCH   9  10
HETATM   10  C   UNL     1     -11.559  11.650  69.276  1.00  0.00    -0.320 C  
HETATM   11  O   UNL     1     -12.350  11.243  70.109  1.00  0.00    -0.296 OA 
BRANCH  10  12
HETATM   12  C   UNL     1     -10.589  10.771  68.567  1.00  0.00    -0.223 A  
HETATM   13  C   UNL     1      -9.237  10.868  68.878  1.00  0.00    -0.168 A  
HETATM   14  C   UNL     1      -8.302  10.011  68.270  1.00  0.00    -0.110 A  
HETATM   15  C   UNL     1      -8.673   9.030  67.333  1.00  0.00    -0.119 A  
HETATM   16  C   UNL     1     -10.049   8.970  67.031  1.00  0.00    -0.318 A  
HETATM   17  C   UNL     1     -10.993   9.809  67.640  1.00  0.00    -0.226 A  
BRANCH  15  18
HETATM   18  N   UNL     1      -7.753   8.225  66.671  1.00  0.00    -0.092 NA 
HETATM   19  C   UNL     1      -8.003   7.774  65.301  1.00  0.00    -0.127 C  
HETATM   20  C   UNL     1      -6.821   7.376  67.409  1.00  0.00    -0.078 C  
ENDBRANCH  15  18
ENDBRANCH  10  12
ENDBRANCH   9  10
ENDBRANCH   6   9
ENDBRANCH   3   4
ENDBRANCH   2   3
TORSDOF 6
ENDMDL
MODEL      173
REMARK 921   NORMALIZED FREE ENERGY PREDICTED BY IDOCK:   -3.72 KCAL/MOL
REMARK 922        TOTAL FREE ENERGY PREDICTED BY IDOCK:   -5.61 KCAL/MOL
REMARK 923 INTER-LIGAND FREE ENERGY PREDICTED BY IDOCK:   -5.13 KCAL/MOL
REMARK 924 INTRA-LIGAND FREE ENERGY PREDICTED BY IDOCK:   -0.47 KCAL/MOL
REMARK 927      BINDING AFFINITY PREDICTED BY RF-SCORE:    0.00 PKD
ROOT
HETATM    1  C   UNL     1      -7.365  18.111  66.106  1.00  0.00    -0.309 C  
HETATM    2  C   UNL     1      -7.576  16.630  66.385  1.00  0.00    -0.297 C  
ENDROOT
BRANCH   2   3
HETATM    3  C   UNL     1      -9.041  16.345  66.712  1.00  0.00    -0.259 C  
BRANCH   3   4
HETATM    4  C   UNL     1      -9.321  14.844  66.878  1.00  0.00    -0.258 C  
HETATM    5  C   UNL     1     -10.826  14.536  67.055  1.00  0.00    -0.297 C  
HETATM    6  C   UNL     1     -11.070  13.033  67.276  1.00  0.00    -0.273 C  
HETATM    7  C   UNL     1     -11.716  15.047  65.902  1.00  0.00    -0.098 C  
HETATM    8  C   UNL     1     -11.454  14.405  64.546  1.00  0.00    -0.352 C  
BRANCH   6   9
HETATM    9  O   UNL     1     -10.406  12.507  68.436  1.00  0.00    -0.223 OA 
BRANCH   9  10
HETATM   10  C   UNL     1     -11.206  12.221  69.492  1.00  0.00    -0.115 C  
HETATM   11  O   UNL     1     -12.038  12.961  69.988  1.00  0.00    -0.324 OA 
BRANCH  10  12
HETATM   12  C   UNL     1     -10.989  10.816  69.936  1.00  0.00    -0.304 A  
HETATM   13  C   UNL     1      -9.876  10.125  69.468  1.00  0.00    -0.255 A  
HETATM   14  C   UNL     1      -9.609   8.818  69.915  1.00  0.00    -0.182 A  
HETATM   15  C   UNL     1     -10.434   8.151  70.837  1.00  0.00    -0.202 A  
HETATM   16  C   UNL     1     -11.559   8.876  71.278  1.00  0.00    -0.371 A  
HETATM   17  C   UNL     1     -11.830  10.184  70.853  1.00  0.00    -0.468 A  
BRANCH  15  18
HETATM   18  N   UNL     1     -10.223   6.835  71.233  1.00  0.00    -0.202 NA 
HETATM   19  C   UNL     1     -11.102   5.762  70.763  1.00  0.00    -0.201 C  
HETATM   20  C   UNL     1      -9.524   6.521  72.477  1.00  0.00    -0.144 C  
ENDBRANCH  15  18
ENDBRANCH  10  12
ENDBRANCH   9  10
ENDBRANCH   6   9
ENDBRANCH   3   4
ENDBRANCH   2   3
TORSDOF 6
ENDMDL
MODEL      174
REMARK 921   NORMALIZED FREE ENERGY PREDICTED BY IDOCK:   -3.71 KCAL/MOL
REMARK 922        TOTAL FREE ENERGY PREDICTED BY IDOCK:   -5.59 KCAL/MOL
REMARK 923 INTER-LIGAND FREE ENERGY PREDICTED BY IDOCK:   -5.07 KCAL/MOL
REMARK 924 INTRA-LIGAND FREE ENERGY PREDICTED BY IDOCK:   -0.53 KCAL/MOL
REMARK 927      BINDING AFFINITY PREDICTED BY RF-SCORE:    0.00 PKD
ROOT
HETATM    1  C   UNL     1      -5.312  20.781  63.670  1.00  0.00    -0.253 C  
HETATM    2  C   UNL     1      -6.531  20.686  64.574  1.00  0.00    -0.318 C  
ENDROOT
BRANCH   2   3
HETATM    3  C   UNL     1      -6.245  19.786  65.776  1.00  0.00    -0.219 C  
BRANCH   3   4
HETATM    4  C   UNL     1      -7.262  18.644  65.905  1.00  0.00    -0.267 C  
HETATM    5  C   UNL     1      -8.082  18.723  67.215  1.00  0.00    -0.256 C  
HETATM    6  C   UNL     1      -9.051  17.535  67.343  1.00  0.00    -0.237 C  
HETATM    7  C   UNL     1      -8.852  20.048  67.400  1.00  0.00    -0.428 C  
HETATM    8  C   UNL     1      -9.939  20.317  66.369  1.00  0.00    -0.507 C  
BRANCH   6   9
HETATM    9  O   UNL     1      -8.396  16.256  67.348  1.00  0.00    -0.160 OA 
BRANCH   9  10
HETATM   10  C   UNL     1      -9.059  15.259  67.984  1.00  0.00    -0.176 C  
HETATM   11  O   UNL     1      -9.520  15.303  69.112  1.00  0.00    -0.210 OA 
BRANCH  10  12
HETATM   12  C   UNL     1      -9.224  14.091  67.076  1.00  0.00    -0.262 A  
HETATM   13  C   UNL     1      -8.400  12.983  67.243  1.00  0.00    -0.186 A  
HETATM   14  C   UNL     1      -8.570  11.840  66.441  1.00  0.00    -0.113 A  
HETATM   15  C   UNL     1      -9.560  11.755  65.446  1.00  0.00    -0.190 A  
HETATM   16  C   UNL     1     -10.367  12.900  65.295  1.00  0.00    -0.315 A  
HETATM   17  C   UNL     1     -10.217  14.041  66.096  1.00  0.00    -0.308 A  
BRANCH  15  18
HETATM   18  N   UNL     1      -9.694  10.661  64.599  1.00  0.00    -0.273 NA 
HETATM   19  C   UNL     1      -8.845   9.479  64.764  1.00  0.00    -0.207 C  
HETATM   20  C   UNL     1     -10.244  10.806  63.254  1.00  0.00    -0.180 C  
ENDBRANCH  15  18
ENDBRANCH  10  12
ENDBRANCH   9  10
ENDBRANCH   6   9
ENDBRANCH   3   4
ENDBRANCH   2   3
TORSDOF 6
ENDMDL
MODEL      175
REMARK 921   NORMALIZED FREE ENERGY PREDICTED BY IDOCK:   -3.69 KCAL/MOL
REMARK 922        TOTAL FREE ENERGY PREDICTED BY IDOCK:   -5.57 KCAL/MOL
REMARK 923 INTER-LIGAND FREE ENERGY PREDICTED BY IDOCK:   -4.53 KCAL/MOL
REMARK 924 INTRA-LIGAND FREE ENERGY PREDICTED BY IDOCK:   -1.04 KCAL/MOL
REMARK 927      BINDING AFFINITY PREDICTED BY RF-SCORE:    0.00 PKD
ROOT
HETATM    1  C   UNL     1     -10.335   4.519  73.768  1.00  0.00    -0.259 C  
HETATM    2  C   UNL     1      -9.659   3.975  72.519  1.00  0.00    -0.189 C  
ENDROOT
BRANCH   2   3
HETATM    3  C   UNL     1     -10.349   4.495  71.259  1.00  0.00    -0.102 C  
BRANCH   3   4
HETATM    4  C   UNL     1      -9.909   5.920  70.898  1.00  0.00    -0.224 C  
HETATM    5  C   UNL     1     -11.088   6.806  70.430  1.00  0.00    -0.357 C  
HETATM    6  C   UNL     1     -10.608   8.209  70.022  1.00  0.00    -0.239 C  
HETATM    7  C   UNL     1     -12.236   6.923  71.456  1.00  0.00    -0.415 C  
HETATM    8  C   UNL     1     -11.869   7.608  72.766  1.00  0.00    -0.205 C  
BRANCH   6   9
HETATM    9  O   UNL     1      -9.654   8.201  68.948  1.00  0.00    -0.151 OA 
BRANCH   9  10
HETATM   10  C   UNL     1     -10.165   8.375  67.705  1.00  0.00    -0.236 C  
HETATM   11  O   UNL     1     -10.636   9.407  67.257  1.00  0.00    -0.267 OA 
BRANCH  10  12
HETATM   12  C   UNL     1     -10.001   7.132  66.903  1.00  0.00    -0.293 A  
HETATM   13  C   UNL     1      -8.804   6.915  66.229  1.00  0.00    -0.161 A  
HETATM   14  C   UNL     1      -8.594   5.724  65.511  1.00  0.00    -0.151 A  
HETATM   15  C   UNL     1      -9.564   4.708  65.434  1.00  0.00    -0.168 A  
HETATM   16  C   UNL     1     -10.769   4.968  66.116  1.00  0.00    -0.264 A  
HETATM   17  C   UNL     1     -10.986   6.144  66.847  1.00  0.00    -0.384 A  
BRANCH  15  18
HETATM   18  N   UNL     1      -9.399   3.557  64.671  1.00  0.00    -0.141 NA 
HETATM   19  C   UNL     1     -10.375   3.197  63.642  1.00  0.00    -0.216 C  
HETATM   20  C   UNL     1      -8.621   2.424  65.167  1.00  0.00    -0.109 C  
ENDBRANCH  15  18
ENDBRANCH  10  12
ENDBRANCH   9  10
ENDBRANCH   6   9
ENDBRANCH   3   4
ENDBRANCH   2   3
TORSDOF 6
ENDMDL
MODEL      176
REMARK 921   NORMALIZED FREE ENERGY PREDICTED BY IDOCK:   -3.66 KCAL/MOL
REMARK 922        TOTAL FREE ENERGY PREDICTED BY IDOCK:   -5.54 KCAL/MOL
REMARK 923 INTER-LIGAND FREE ENERGY PREDICTED BY IDOCK:   -5.02 KCAL/MOL
REMARK 924 INTRA-LIGAND FREE ENERGY PREDICTED BY IDOCK:   -0.52 KCAL/MOL
REMARK 927      BINDING AFFINITY PREDICTED BY RF-SCORE:    0.00 PKD
ROOT
HETATM    1  C   UNL     1     -10.547   6.632  67.147  1.00  0.00    -0.401 C  
HETATM    2  C   UNL     1     -10.543   8.152  67.199  1.00  0.00    -0.355 C  
ENDROOT
BRANCH   2   3
HETATM    3  C   UNL     1      -9.221   8.709  66.671  1.00  0.00    -0.227 C  
BRANCH   3   4
HETATM    4  C   UNL     1      -9.240  10.239  66.549  1.00  0.00    -0.179 C  
HETATM    5  C   UNL     1      -8.754  10.944  67.837  1.00  0.00    -0.131 C  
HETATM    6  C   UNL     1      -8.837  12.474  67.706  1.00  0.00    -0.178 C  
HETATM    7  C   UNL     1      -7.334  10.534  68.285  1.00  0.00    -0.088 C  
HETATM    8  C   UNL     1      -6.216  10.905  67.321  1.00  0.00    -0.064 C  
BRANCH   6   9
HETATM    9  O   UNL     1     -10.165  12.958  67.452  1.00  0.00    -0.227 OA 
BRANCH   9  10
HETATM   10  C   UNL     1     -10.310  13.729  66.346  1.00  0.00    -0.290 C  
HETATM   11  O   UNL     1     -10.627  13.343  65.234  1.00  0.00    -0.301 OA 
BRANCH  10  12
HETATM   12  C   UNL     1     -10.103  15.163  66.688  1.00  0.00    -0.271 A  
HETATM   13  C   UNL     1      -8.920  15.785  66.301  1.00  0.00    -0.381 A  
HETATM   14  C   UNL     1      -8.718  17.154  66.555  1.00  0.00    -0.293 A  
HETATM   15  C   UNL     1      -9.677  17.953  67.203  1.00  0.00    -0.289 A  
HETATM   16  C   UNL     1     -10.856  17.286  67.594  1.00  0.00    -0.238 A  
HETATM   17  C   UNL     1     -11.077  15.926  67.335  1.00  0.00    -0.207 A  
BRANCH  15  18
HETATM   18  N   UNL     1      -9.463  19.288  67.524  1.00  0.00    -0.304 NA 
HETATM   19  C   UNL     1      -9.430  19.725  68.921  1.00  0.00    -0.238 C  
HETATM   20  C   UNL     1      -9.785  20.356  66.581  1.00  0.00    -0.358 C  
ENDBRANCH  15  18
ENDBRANCH  10  12
ENDBRANCH   9  10
ENDBRANCH   6   9
ENDBRANCH   3   4
ENDBRANCH   2   3
TORSDOF 6
ENDMDL
MODEL      177
REMARK 921   NORMALIZED FREE ENERGY PREDICTED BY IDOCK:   -3.65 KCAL/MOL
REMARK 922        TOTAL FREE ENERGY PREDICTED BY IDOCK:   -5.52 KCAL/MOL
REMARK 923 INTER-LIGAND FREE ENERGY PREDICTED BY IDOCK:   -4.94 KCAL/MOL
REMARK 924 INTRA-LIGAND FREE ENERGY PREDICTED BY IDOCK:   -0.58 KCAL/MOL
REMARK 927      BINDING AFFINITY PREDICTED BY RF-SCORE:    0.00 PKD
ROOT
HETATM    1  C   UNL     1     -10.550  17.052  68.322  1.00  0.00    -0.372 C  
HETATM    2  C   UNL     1     -10.622  16.016  67.210  1.00  0.00    -0.313 C  
ENDROOT
BRANCH   2   3
HETATM    3  C   UNL     1     -11.635  14.924  67.552  1.00  0.00    -0.355 C  
BRANCH   3   4
HETATM    4  C   UNL     1     -10.993  13.531  67.612  1.00  0.00    -0.280 C  
HETATM    5  C   UNL     1     -11.783  12.478  66.800  1.00  0.00    -0.453 C  
HETATM    6  C   UNL     1     -11.149  11.082  66.926  1.00  0.00    -0.213 C  
HETATM    7  C   UNL     1     -11.968  12.836  65.310  1.00  0.00    -0.473 C  
HETATM    8  C   UNL     1     -10.684  12.915  64.496  1.00  0.00    -0.392 C  
BRANCH   6   9
HETATM    9  O   UNL     1     -11.089  10.596  68.276  1.00  0.00    -0.238 OA 
BRANCH   9  10
HETATM   10  C   UNL     1      -9.860  10.232  68.717  1.00  0.00    -0.180 C  
HETATM   11  O   UNL     1      -8.971  10.984  69.076  1.00  0.00    -0.148 OA 
BRANCH  10  12
HETATM   12  C   UNL     1      -9.756   8.748  68.784  1.00  0.00    -0.171 A  
HETATM   13  C   UNL     1      -8.645   8.124  68.227  1.00  0.00    -0.130 A  
HETATM   14  C   UNL     1      -8.485   6.730  68.325  1.00  0.00    -0.125 A  
HETATM   15  C   UNL     1      -9.421   5.906  68.976  1.00  0.00    -0.127 A  
HETATM   16  C   UNL     1     -10.541   6.571  69.515  1.00  0.00    -0.293 A  
HETATM   17  C   UNL     1     -10.706   7.961  69.436  1.00  0.00    -0.174 A  
BRANCH  15  18
HETATM   18  N   UNL     1      -9.314   4.521  69.019  1.00  0.00    -0.135 NA 
HETATM   19  C   UNL     1      -9.487   3.719  67.806  1.00  0.00    -0.179 C  
HETATM   20  C   UNL     1      -9.560   3.780  70.254  1.00  0.00    -0.187 C  
ENDBRANCH  15  18
ENDBRANCH  10  12
ENDBRANCH   9  10
ENDBRANCH   6   9
ENDBRANCH   3   4
ENDBRANCH   2   3
TORSDOF 6
ENDMDL
MODEL      178
REMARK 921   NORMALIZED FREE ENERGY PREDICTED BY IDOCK:   -3.65 KCAL/MOL
REMARK 922        TOTAL FREE ENERGY PREDICTED BY IDOCK:   -5.51 KCAL/MOL
REMARK 923 INTER-LIGAND FREE ENERGY PREDICTED BY IDOCK:   -4.32 KCAL/MOL
REMARK 924 INTRA-LIGAND FREE ENERGY PREDICTED BY IDOCK:   -1.19 KCAL/MOL
REMARK 927      BINDING AFFINITY PREDICTED BY RF-SCORE:    0.00 PKD
ROOT
HETATM    1  C   UNL     1      -6.975   8.412  69.495  1.00  0.00    -0.045 C  
HETATM    2  C   UNL     1      -5.936   9.436  69.928  1.00  0.00    -0.036 C  
ENDROOT
BRANCH   2   3
HETATM    3  C   UNL     1      -6.472  10.857  69.757  1.00  0.00    -0.128 C  
BRANCH   3   4
HETATM    4  C   UNL     1      -7.735  10.903  68.886  1.00  0.00    -0.135 C  
HETATM    5  C   UNL     1      -7.549  11.766  67.615  1.00  0.00    -0.132 C  
HETATM    6  C   UNL     1      -8.846  11.841  66.792  1.00  0.00    -0.191 C  
HETATM    7  C   UNL     1      -6.381  11.317  66.711  1.00  0.00    -0.139 C  
HETATM    8  C   UNL     1      -6.533   9.933  66.094  1.00  0.00    -0.079 C  
BRANCH   6   9
HETATM    9  O   UNL     1      -9.952  12.408  67.512  1.00  0.00    -0.193 OA 
BRANCH   9  10
HETATM   10  C   UNL     1     -11.117  11.717  67.441  1.00  0.00    -0.282 C  
HETATM   11  O   UNL     1     -12.068  11.979  66.726  1.00  0.00    -0.613 OA 
BRANCH  10  12
HETATM   12  C   UNL     1     -11.057  10.516  68.319  1.00  0.00    -0.340 A  
HETATM   13  C   UNL     1     -11.486  10.621  69.637  1.00  0.00    -0.361 A  
HETATM   14  C   UNL     1     -11.499   9.491  70.475  1.00  0.00    -0.337 A  
HETATM   15  C   UNL     1     -11.085   8.220  70.038  1.00  0.00    -0.147 A  
HETATM   16  C   UNL     1     -10.643   8.155  68.701  1.00  0.00    -0.144 A  
HETATM   17  C   UNL     1     -10.638   9.269  67.851  1.00  0.00    -0.288 A  
BRANCH  15  18
HETATM   18  N   UNL     1     -11.025   7.111  70.873  1.00  0.00    -0.244 NA 
HETATM   19  C   UNL     1     -11.304   7.237  72.305  1.00  0.00    -0.272 C  
HETATM   20  C   UNL     1     -10.205   5.950  70.534  1.00  0.00    -0.211 C  
ENDBRANCH  15  18
ENDBRANCH  10  12
ENDBRANCH   9  10
ENDBRANCH   6   9
ENDBRANCH   3   4
ENDBRANCH   2   3
TORSDOF 6
ENDMDL
MODEL      179
REMARK 921   NORMALIZED FREE ENERGY PREDICTED BY IDOCK:   -3.64 KCAL/MOL
REMARK 922        TOTAL FREE ENERGY PREDICTED BY IDOCK:   -5.51 KCAL/MOL
REMARK 923 INTER-LIGAND FREE ENERGY PREDICTED BY IDOCK:   -4.63 KCAL/MOL
REMARK 924 INTRA-LIGAND FREE ENERGY PREDICTED BY IDOCK:   -0.87 KCAL/MOL
REMARK 927      BINDING AFFINITY PREDICTED BY RF-SCORE:    0.00 PKD
ROOT
HETATM    1  C   UNL     1     -11.576  14.351  67.260  1.00  0.00    -0.401 C  
HETATM    2  C   UNL     1     -11.571  12.831  67.328  1.00  0.00    -0.420 C  
ENDROOT
BRANCH   2   3
HETATM    3  C   UNL     1     -12.128  12.346  68.666  1.00  0.00    -0.139 C  
BRANCH   3   4
HETATM    4  C   UNL     1     -11.543  10.991  69.085  1.00  0.00    -0.389 C  
HETATM    5  C   UNL     1     -11.457  10.830  70.621  1.00  0.00    -0.314 C  
HETATM    6  C   UNL     1     -10.815   9.488  71.010  1.00  0.00    -0.353 C  
HETATM    7  C   UNL     1     -12.807  10.996  71.351  1.00  0.00    -0.548 C  
HETATM    8  C   UNL     1     -13.859   9.947  71.016  1.00  0.00     0.096 C  
BRANCH   6   9
HETATM    9  O   UNL     1      -9.480   9.320  70.507  1.00  0.00    -0.224 OA 
BRANCH   9  10
HETATM   10  C   UNL     1      -9.302   8.293  69.640  1.00  0.00    -0.158 C  
HETATM   11  O   UNL     1      -9.274   7.107  69.924  1.00  0.00    -0.142 OA 
BRANCH  10  12
HETATM   12  C   UNL     1      -9.218   8.805  68.245  1.00  0.00    -0.143 A  
HETATM   13  C   UNL     1      -8.366   9.868  67.966  1.00  0.00    -0.113 A  
HETATM   14  C   UNL     1      -8.218  10.337  66.648  1.00  0.00    -0.125 A  
HETATM   15  C   UNL     1      -8.910   9.771  65.562  1.00  0.00    -0.163 A  
HETATM   16  C   UNL     1      -9.775   8.705  65.885  1.00  0.00    -0.154 A  
HETATM   17  C   UNL     1      -9.921   8.219  67.191  1.00  0.00    -0.307 A  
BRANCH  15  18
HETATM   18  N   UNL     1      -8.829  10.268  64.267  1.00  0.00    -0.199 NA 
HETATM   19  C   UNL     1      -7.573  10.200  63.517  1.00  0.00    -0.138 C  
HETATM   20  C   UNL     1      -9.739  11.310  63.796  1.00  0.00    -0.298 C  
ENDBRANCH  15  18
ENDBRANCH  10  12
ENDBRANCH   9  10
ENDBRANCH   6   9
ENDBRANCH   3   4
ENDBRANCH   2   3
TORSDOF 6
ENDMDL
MODEL      180
REMARK 921   NORMALIZED FREE ENERGY PREDICTED BY IDOCK:   -3.64 KCAL/MOL
REMARK 922        TOTAL FREE ENERGY PREDICTED BY IDOCK:   -5.50 KCAL/MOL
REMARK 923 INTER-LIGAND FREE ENERGY PREDICTED BY IDOCK:   -5.09 KCAL/MOL
REMARK 924 INTRA-LIGAND FREE ENERGY PREDICTED BY IDOCK:   -0.41 KCAL/MOL
REMARK 927      BINDING AFFINITY PREDICTED BY RF-SCORE:    0.00 PKD
ROOT
HETATM    1  C   UNL     1      -7.172  16.871  66.722  1.00  0.00    -0.278 C  
HETATM    2  C   UNL     1      -8.080  15.651  66.672  1.00  0.00    -0.239 C  
ENDROOT
BRANCH   2   3
HETATM    3  C   UNL     1      -9.474  16.033  66.176  1.00  0.00    -0.371 C  
BRANCH   3   4
HETATM    4  C   UNL     1     -10.453  14.852  66.219  1.00  0.00    -0.306 C  
HETATM    5  C   UNL     1     -10.377  14.066  67.550  1.00  0.00    -0.245 C  
HETATM    6  C   UNL     1     -11.326  12.856  67.542  1.00  0.00    -0.308 C  
HETATM    7  C   UNL     1     -10.634  14.924  68.807  1.00  0.00    -0.247 C  
HETATM    8  C   UNL     1     -12.030  15.522  68.911  1.00  0.00    -0.306 C  
BRANCH   6   9
HETATM    9  O   UNL     1     -11.048  11.913  66.495  1.00  0.00    -0.279 OA 
BRANCH   9  10
HETATM   10  C   UNL     1      -9.881  11.233  66.609  1.00  0.00    -0.205 C  
HETATM   11  O   UNL     1      -8.860  11.441  65.976  1.00  0.00    -0.203 OA 
BRANCH  10  12
HETATM   12  C   UNL     1      -9.980  10.219  67.695  1.00  0.00    -0.212 A  
HETATM   13  C   UNL     1      -9.594  10.570  68.984  1.00  0.00    -0.213 A  
HETATM   14  C   UNL     1      -9.731   9.656  70.044  1.00  0.00    -0.280 A  
HETATM   15  C   UNL     1     -10.253   8.362  69.863  1.00  0.00    -0.201 A  
HETATM   16  C   UNL     1     -10.620   8.037  68.542  1.00  0.00    -0.144 A  
HETATM   17  C   UNL     1     -10.502   8.943  67.479  1.00  0.00    -0.337 A  
BRANCH  15  18
HETATM   18  N   UNL     1     -10.328   7.424  70.886  1.00  0.00    -0.201 NA 
HETATM   19  C   UNL     1     -11.306   6.335  70.832  1.00  0.00    -0.325 C  
HETATM   20  C   UNL     1      -9.872   7.738  72.238  1.00  0.00    -0.192 C  
ENDBRANCH  15  18
ENDBRANCH  10  12
ENDBRANCH   9  10
ENDBRANCH   6   9
ENDBRANCH   3   4
ENDBRANCH   2   3
TORSDOF 6
ENDMDL
MODEL      181
REMARK 921   NORMALIZED FREE ENERGY PREDICTED BY IDOCK:   -3.60 KCAL/MOL
REMARK 922        TOTAL FREE ENERGY PREDICTED BY IDOCK:   -5.45 KCAL/MOL
REMARK 923 INTER-LIGAND FREE ENERGY PREDICTED BY IDOCK:   -5.27 KCAL/MOL
REMARK 924 INTRA-LIGAND FREE ENERGY PREDICTED BY IDOCK:   -0.18 KCAL/MOL
REMARK 927      BINDING AFFINITY PREDICTED BY RF-SCORE:    0.00 PKD
ROOT
HETATM    1  C   UNL     1      -5.453  20.743  65.165  1.00  0.00    -0.237 C  
HETATM    2  C   UNL     1      -6.888  20.244  65.228  1.00  0.00    -0.318 C  
ENDROOT
BRANCH   2   3
HETATM    3  C   UNL     1      -7.079  19.293  66.409  1.00  0.00    -0.239 C  
BRANCH   3   4
HETATM    4  C   UNL     1      -8.061  18.157  66.091  1.00  0.00    -0.198 C  
HETATM    5  C   UNL     1      -9.288  18.150  67.033  1.00  0.00    -0.270 C  
HETATM    6  C   UNL     1     -10.224  16.968  66.728  1.00  0.00    -0.298 C  
HETATM    7  C   UNL     1     -10.092  19.468  67.035  1.00  0.00    -0.509 C  
HETATM    8  C   UNL     1     -10.754  19.826  65.712  1.00  0.00    -0.474 C  
BRANCH   6   9
HETATM    9  O   UNL     1      -9.595  15.685  66.867  1.00  0.00    -0.221 OA 
BRANCH   9  10
HETATM   10  C   UNL     1      -9.184  15.363  68.118  1.00  0.00    -0.186 C  
HETATM   11  O   UNL     1      -8.459  16.033  68.834  1.00  0.00    -0.204 OA 
BRANCH  10  12
HETATM   12  C   UNL     1      -9.810  14.084  68.553  1.00  0.00    -0.225 A  
HETATM   13  C   UNL     1     -11.090  14.111  69.098  1.00  0.00    -0.295 A  
HETATM   14  C   UNL     1     -11.734  12.915  69.463  1.00  0.00    -0.387 A  
HETATM   15  C   UNL     1     -11.134  11.653  69.304  1.00  0.00    -0.233 A  
HETATM   16  C   UNL     1      -9.832  11.666  68.762  1.00  0.00    -0.129 A  
HETATM   17  C   UNL     1      -9.184  12.849  68.381  1.00  0.00    -0.137 A  
BRANCH  15  18
HETATM   18  N   UNL     1     -11.729  10.470  69.725  1.00  0.00    -0.278 NA 
HETATM   19  C   UNL     1     -12.740  10.477  70.784  1.00  0.00    -0.381 C  
HETATM   20  C   UNL     1     -11.055   9.183  69.563  1.00  0.00    -0.051 C  
ENDBRANCH  15  18
ENDBRANCH  10  12
ENDBRANCH   9  10
ENDBRANCH   6   9
ENDBRANCH   3   4
ENDBRANCH   2   3
TORSDOF 6
ENDMDL
MODEL      182
REMARK 921   NORMALIZED FREE ENERGY PREDICTED BY IDOCK:   -3.60 KCAL/MOL
REMARK 922        TOTAL FREE ENERGY PREDICTED BY IDOCK:   -5.45 KCAL/MOL
REMARK 923 INTER-LIGAND FREE ENERGY PREDICTED BY IDOCK:   -4.68 KCAL/MOL
REMARK 924 INTRA-LIGAND FREE ENERGY PREDICTED BY IDOCK:   -0.77 KCAL/MOL
REMARK 927      BINDING AFFINITY PREDICTED BY RF-SCORE:    0.00 PKD
ROOT
HETATM    1  C   UNL     1     -10.431  11.288  63.404  1.00  0.00    -0.424 C  
HETATM    2  C   UNL     1     -11.289  12.532  63.570  1.00  0.00    -0.556 C  
ENDROOT
BRANCH   2   3
HETATM    3  C   UNL     1     -12.153  12.431  64.827  1.00  0.00    -0.483 C  
BRANCH   3   4
HETATM    4  C   UNL     1     -11.369  11.890  66.031  1.00  0.00    -0.375 C  
HETATM    5  C   UNL     1     -10.303  12.886  66.543  1.00  0.00    -0.272 C  
HETATM    6  C   UNL     1      -9.496  12.295  67.711  1.00  0.00    -0.197 C  
HETATM    7  C   UNL     1     -10.868  14.266  66.943  1.00  0.00    -0.298 C  
HETATM    8  C   UNL     1     -11.834  14.256  68.120  1.00  0.00    -0.374 C  
BRANCH   6   9
HETATM    9  O   UNL     1      -8.796  11.087  67.374  1.00  0.00    -0.137 OA 
BRANCH   9  10
HETATM   10  C   UNL     1      -8.847  10.098  68.300  1.00  0.00    -0.124 C  
HETATM   11  O   UNL     1      -8.892  10.245  69.510  1.00  0.00    -0.187 OA 
BRANCH  10  12
HETATM   12  C   UNL     1      -8.923   8.770  67.632  1.00  0.00    -0.141 A  
HETATM   13  C   UNL     1     -10.145   8.336  67.130  1.00  0.00    -0.334 A  
HETATM   14  C   UNL     1     -10.238   7.113  66.440  1.00  0.00    -0.003 A  
HETATM   15  C   UNL     1      -9.127   6.278  66.227  1.00  0.00    -0.153 A  
HETATM   16  C   UNL     1      -7.909   6.744  66.762  1.00  0.00    -0.107 A  
HETATM   17  C   UNL     1      -7.798   7.966  67.439  1.00  0.00    -0.121 A  
BRANCH  15  18
HETATM   18  N   UNL     1      -9.217   5.036  65.610  1.00  0.00    -0.156 NA 
HETATM   19  C   UNL     1      -8.637   4.815  64.284  1.00  0.00    -0.141 C  
HETATM   20  C   UNL     1     -10.284   4.097  65.950  1.00  0.00    -0.102 C  
ENDBRANCH  15  18
ENDBRANCH  10  12
ENDBRANCH   9  10
ENDBRANCH   6   9
ENDBRANCH   3   4
ENDBRANCH   2   3
TORSDOF 6
ENDMDL
MODEL      183
REMARK 921   NORMALIZED FREE ENERGY PREDICTED BY IDOCK:   -3.59 KCAL/MOL
REMARK 922        TOTAL FREE ENERGY PREDICTED BY IDOCK:   -5.44 KCAL/MOL
REMARK 923 INTER-LIGAND FREE ENERGY PREDICTED BY IDOCK:   -4.94 KCAL/MOL
REMARK 924 INTRA-LIGAND FREE ENERGY PREDICTED BY IDOCK:   -0.49 KCAL/MOL
REMARK 927      BINDING AFFINITY PREDICTED BY RF-SCORE:    0.00 PKD
ROOT
HETATM    1  C   UNL     1      -9.683   4.724  68.381  1.00  0.00    -0.209 C  
HETATM    2  C   UNL     1      -8.545   4.258  69.276  1.00  0.00    -0.110 C  
ENDROOT
BRANCH   2   3
HETATM    3  C   UNL     1      -7.632   5.427  69.644  1.00  0.00    -0.070 C  
BRANCH   3   4
HETATM    4  C   UNL     1      -8.419   6.656  70.118  1.00  0.00    -0.136 C  
HETATM    5  C   UNL     1      -9.289   6.362  71.362  1.00  0.00    -0.157 C  
HETATM    6  C   UNL     1     -10.110   7.594  71.779  1.00  0.00    -0.173 C  
HETATM    7  C   UNL     1      -8.498   5.826  72.575  1.00  0.00    -0.117 C  
HETATM    8  C   UNL     1      -7.479   6.793  73.164  1.00  0.00    -0.082 C  
BRANCH   6   9
HETATM    9  O   UNL     1     -11.005   8.062  70.757  1.00  0.00    -0.239 OA 
BRANCH   9  10
HETATM   10  C   UNL     1     -11.999   8.883  71.176  1.00  0.00    -0.293 C  
HETATM   11  O   UNL     1     -12.838   8.626  72.023  1.00  0.00    -0.336 OA 
BRANCH  10  12
HETATM   12  C   UNL     1     -11.888  10.208  70.507  1.00  0.00    -0.408 A  
HETATM   13  C   UNL     1     -12.534  11.304  71.070  1.00  0.00    -0.503 A  
HETATM   14  C   UNL     1     -12.401  12.582  70.496  1.00  0.00    -0.345 A  
HETATM   15  C   UNL     1     -11.627  12.818  69.346  1.00  0.00    -0.298 A  
HETATM   16  C   UNL     1     -10.999  11.682  68.796  1.00  0.00    -0.274 A  
HETATM   17  C   UNL     1     -11.112  10.406  69.364  1.00  0.00    -0.304 A  
BRANCH  15  18
HETATM   18  N   UNL     1     -11.543  14.060  68.728  1.00  0.00    -0.307 NA 
HETATM   19  C   UNL     1     -12.131  14.278  67.405  1.00  0.00    -0.336 C  
HETATM   20  C   UNL     1     -10.476  15.002  69.060  1.00  0.00    -0.245 C  
ENDBRANCH  15  18
ENDBRANCH  10  12
ENDBRANCH   9  10
ENDBRANCH   6   9
ENDBRANCH   3   4
ENDBRANCH   2   3
TORSDOF 6
ENDMDL
MODEL      184
REMARK 921   NORMALIZED FREE ENERGY PREDICTED BY IDOCK:   -3.53 KCAL/MOL
REMARK 922        TOTAL FREE ENERGY PREDICTED BY IDOCK:   -5.36 KCAL/MOL
REMARK 923 INTER-LIGAND FREE ENERGY PREDICTED BY IDOCK:   -4.62 KCAL/MOL
REMARK 924 INTRA-LIGAND FREE ENERGY PREDICTED BY IDOCK:   -0.74 KCAL/MOL
REMARK 927      BINDING AFFINITY PREDICTED BY RF-SCORE:    0.00 PKD
ROOT
HETATM    1  C   UNL     1      -7.628   7.702  71.123  1.00  0.00    -0.080 C  
HETATM    2  C   UNL     1      -7.670   7.116  69.719  1.00  0.00    -0.108 C  
ENDROOT
BRANCH   2   3
HETATM    3  C   UNL     1      -9.110   7.010  69.219  1.00  0.00    -0.137 C  
BRANCH   3   4
HETATM    4  C   UNL     1      -9.257   7.465  67.761  1.00  0.00    -0.133 C  
HETATM    5  C   UNL     1      -8.405   6.618  66.786  1.00  0.00    -0.115 C  
HETATM    6  C   UNL     1      -8.527   7.132  65.341  1.00  0.00    -0.082 C  
HETATM    7  C   UNL     1      -8.710   5.105  66.830  1.00  0.00    -0.107 C  
HETATM    8  C   UNL     1     -10.115   4.713  66.393  1.00  0.00    -0.289 C  
BRANCH   6   9
HETATM    9  O   UNL     1      -8.101   8.494  65.177  1.00  0.00    -0.125 OA 
BRANCH   9  10
HETATM   10  C   UNL     1      -8.573   9.129  64.076  1.00  0.00    -0.166 C  
HETATM   11  O   UNL     1      -8.479   8.742  62.924  1.00  0.00    -0.194 OA 
BRANCH  10  12
HETATM   12  C   UNL     1      -9.310  10.361  64.470  1.00  0.00    -0.313 A  
HETATM   13  C   UNL     1      -9.302  10.756  65.803  1.00  0.00    -0.235 A  
HETATM   14  C   UNL     1      -9.938  11.947  66.199  1.00  0.00    -0.254 A  
HETATM   15  C   UNL     1     -10.605  12.786  65.289  1.00  0.00    -0.290 A  
HETATM   16  C   UNL     1     -10.605  12.347  63.949  1.00  0.00    -0.470 A  
HETATM   17  C   UNL     1      -9.964  11.170  63.539  1.00  0.00    -0.425 A  
BRANCH  15  18
HETATM   18  N   UNL     1     -11.298  13.927  65.675  1.00  0.00    -0.305 NA 
HETATM   19  C   UNL     1     -12.221  13.893  66.811  1.00  0.00    -0.399 C  
HETATM   20  C   UNL     1     -11.572  15.005  64.727  1.00  0.00    -0.395 C  
ENDBRANCH  15  18
ENDBRANCH  10  12
ENDBRANCH   9  10
ENDBRANCH   6   9
ENDBRANCH   3   4
ENDBRANCH   2   3
TORSDOF 6
ENDMDL
MODEL      185
REMARK 921   NORMALIZED FREE ENERGY PREDICTED BY IDOCK:   -3.52 KCAL/MOL
REMARK 922        TOTAL FREE ENERGY PREDICTED BY IDOCK:   -5.34 KCAL/MOL
REMARK 923 INTER-LIGAND FREE ENERGY PREDICTED BY IDOCK:   -4.78 KCAL/MOL
REMARK 924 INTRA-LIGAND FREE ENERGY PREDICTED BY IDOCK:   -0.56 KCAL/MOL
REMARK 927      BINDING AFFINITY PREDICTED BY RF-SCORE:    0.00 PKD
ROOT
HETATM    1  C   UNL     1      -7.839   5.813  71.136  1.00  0.00    -0.111 C  
HETATM    2  C   UNL     1      -7.582   5.309  69.724  1.00  0.00    -0.069 C  
ENDROOT
BRANCH   2   3
HETATM    3  C   UNL     1      -7.498   6.475  68.739  1.00  0.00    -0.088 C  
BRANCH   3   4
HETATM    4  C   UNL     1      -8.839   7.204  68.583  1.00  0.00    -0.126 C  
HETATM    5  C   UNL     1      -9.202   7.469  67.103  1.00  0.00    -0.161 C  
HETATM    6  C   UNL     1     -10.522   8.251  66.979  1.00  0.00    -0.314 C  
HETATM    7  C   UNL     1      -9.264   6.198  66.229  1.00  0.00    -0.163 C  
HETATM    8  C   UNL     1     -10.347   5.199  66.611  1.00  0.00    -0.325 C  
BRANCH   6   9
HETATM    9  O   UNL     1     -10.495   9.531  67.629  1.00  0.00    -0.232 OA 
BRANCH   9  10
HETATM   10  C   UNL     1     -10.446  10.608  66.806  1.00  0.00    -0.247 C  
HETATM   11  O   UNL     1     -10.336  10.584  65.592  1.00  0.00    -0.256 OA 
BRANCH  10  12
HETATM   12  C   UNL     1     -10.627  11.862  67.588  1.00  0.00    -0.241 A  
HETATM   13  C   UNL     1      -9.805  12.951  67.317  1.00  0.00    -0.218 A  
HETATM   14  C   UNL     1      -9.988  14.170  67.995  1.00  0.00    -0.226 A  
HETATM   15  C   UNL     1     -10.989  14.351  68.966  1.00  0.00    -0.256 A  
HETATM   16  C   UNL     1     -11.793  13.222  69.225  1.00  0.00    -0.383 A  
HETATM   17  C   UNL     1     -11.630  12.007  68.547  1.00  0.00    -0.363 A  
BRANCH  15  18
HETATM   18  N   UNL     1     -11.137  15.525  69.695  1.00  0.00    -0.255 NA 
HETATM   19  C   UNL     1     -12.177  15.645  70.718  1.00  0.00    -0.418 C  
HETATM   20  C   UNL     1     -10.684  16.809  69.163  1.00  0.00    -0.329 C  
ENDBRANCH  15  18
ENDBRANCH  10  12
ENDBRANCH   9  10
ENDBRANCH   6   9
ENDBRANCH   3   4
ENDBRANCH   2   3
TORSDOF 6
ENDMDL
MODEL      186
REMARK 921   NORMALIZED FREE ENERGY PREDICTED BY IDOCK:   -3.51 KCAL/MOL
REMARK 922        TOTAL FREE ENERGY PREDICTED BY IDOCK:   -5.33 KCAL/MOL
REMARK 923 INTER-LIGAND FREE ENERGY PREDICTED BY IDOCK:   -3.74 KCAL/MOL
REMARK 924 INTRA-LIGAND FREE ENERGY PREDICTED BY IDOCK:   -1.59 KCAL/MOL
REMARK 927      BINDING AFFINITY PREDICTED BY RF-SCORE:    0.00 PKD
ROOT
HETATM    1  C   UNL     1      -8.012   8.098  67.453  1.00  0.00    -0.117 C  
HETATM    2  C   UNL     1      -8.639   8.486  68.784  1.00  0.00    -0.131 C  
ENDROOT
BRANCH   2   3
HETATM    3  C   UNL     1     -10.046   9.043  68.578  1.00  0.00    -0.211 C  
BRANCH   3   4
HETATM    4  C   UNL     1     -11.110   8.238  69.338  1.00  0.00     0.088 C  
HETATM    5  C   UNL     1     -11.112   8.539  70.855  1.00  0.00    -0.295 C  
HETATM    6  C   UNL     1     -12.147   7.678  71.598  1.00  0.00    -0.306 C  
HETATM    7  C   UNL     1     -11.324  10.028  71.204  1.00  0.00    -0.397 C  
HETATM    8  C   UNL     1     -12.674  10.604  70.799  1.00  0.00    -0.468 C  
BRANCH   6   9
HETATM    9  O   UNL     1     -11.923   6.265  71.463  1.00  0.00    -0.303 OA 
BRANCH   9  10
HETATM   10  C   UNL     1     -10.851   5.772  72.131  1.00  0.00    -0.244 C  
HETATM   11  O   UNL     1     -10.766   5.607  73.336  1.00  0.00    -0.244 OA 
BRANCH  10  12
HETATM   12  C   UNL     1      -9.785   5.373  71.171  1.00  0.00    -0.229 A  
HETATM   13  C   UNL     1     -10.152   4.876  69.925  1.00  0.00    -0.332 A  
HETATM   14  C   UNL     1      -9.170   4.546  68.972  1.00  0.00    -0.192 A  
HETATM   15  C   UNL     1      -7.794   4.693  69.222  1.00  0.00    -0.063 A  
HETATM   16  C   UNL     1      -7.460   5.185  70.500  1.00  0.00    -0.070 A  
HETATM   17  C   UNL     1      -8.428   5.532  71.453  1.00  0.00    -0.127 A  
BRANCH  15  18
HETATM   18  N   UNL     1      -6.812   4.305  68.318  1.00  0.00    -0.047 NA 
HETATM   19  C   UNL     1      -6.456   2.893  68.161  1.00  0.00    -0.036 C  
HETATM   20  C   UNL     1      -5.758   5.227  67.902  1.00  0.00    -0.017 C  
ENDBRANCH  15  18
ENDBRANCH  10  12
ENDBRANCH   9  10
ENDBRANCH   6   9
ENDBRANCH   3   4
ENDBRANCH   2   3
TORSDOF 6
ENDMDL
MODEL      187
REMARK 921   NORMALIZED FREE ENERGY PREDICTED BY IDOCK:   -3.51 KCAL/MOL
REMARK 922        TOTAL FREE ENERGY PREDICTED BY IDOCK:   -5.33 KCAL/MOL
REMARK 923 INTER-LIGAND FREE ENERGY PREDICTED BY IDOCK:   -4.29 KCAL/MOL
REMARK 924 INTRA-LIGAND FREE ENERGY PREDICTED BY IDOCK:   -1.04 KCAL/MOL
REMARK 927      BINDING AFFINITY PREDICTED BY RF-SCORE:    0.00 PKD
ROOT
HETATM    1  C   UNL     1     -11.961  14.246  64.280  1.00  0.00    -0.449 C  
HETATM    2  C   UNL     1     -10.746  14.438  65.175  1.00  0.00    -0.413 C  
ENDROOT
BRANCH   2   3
HETATM    3  C   UNL     1     -11.146  15.089  66.499  1.00  0.00    -0.329 C  
BRANCH   3   4
HETATM    4  C   UNL     1     -10.045  14.974  67.562  1.00  0.00    -0.228 C  
HETATM    5  C   UNL     1      -8.685  15.523  67.069  1.00  0.00    -0.258 C  
HETATM    6  C   UNL     1      -7.588  15.342  68.133  1.00  0.00    -0.114 C  
HETATM    7  C   UNL     1      -8.727  16.995  66.606  1.00  0.00    -0.282 C  
HETATM    8  C   UNL     1      -9.065  18.008  67.692  1.00  0.00    -0.255 C  
BRANCH   6   9
HETATM    9  O   UNL     1      -7.366  13.972  68.503  1.00  0.00    -0.101 OA 
BRANCH   9  10
HETATM   10  C   UNL     1      -6.602  13.248  67.649  1.00  0.00    -0.167 C  
HETATM   11  O   UNL     1      -5.504  13.561  67.221  1.00  0.00    -0.342 OA 
BRANCH  10  12
HETATM   12  C   UNL     1      -7.258  11.946  67.349  1.00  0.00    -0.142 A  
HETATM   13  C   UNL     1      -6.622  10.768  67.723  1.00  0.00    -0.064 A  
HETATM   14  C   UNL     1      -7.242   9.523  67.509  1.00  0.00    -0.090 A  
HETATM   15  C   UNL     1      -8.511   9.403  66.915  1.00  0.00    -0.127 A  
HETATM   16  C   UNL     1      -9.119  10.616  66.536  1.00  0.00    -0.179 A  
HETATM   17  C   UNL     1      -8.519  11.864  66.756  1.00  0.00    -0.167 A  
BRANCH  15  18
HETATM   18  N   UNL     1      -9.105   8.178  66.633  1.00  0.00    -0.155 NA 
HETATM   19  C   UNL     1      -8.654   7.373  65.496  1.00  0.00    -0.077 C  
HETATM   20  C   UNL     1     -10.471   7.882  67.059  1.00  0.00    -0.349 C  
ENDBRANCH  15  18
ENDBRANCH  10  12
ENDBRANCH   9  10
ENDBRANCH   6   9
ENDBRANCH   3   4
ENDBRANCH   2   3
TORSDOF 6
ENDMDL
MODEL      188
REMARK 921   NORMALIZED FREE ENERGY PREDICTED BY IDOCK:   -3.48 KCAL/MOL
REMARK 922        TOTAL FREE ENERGY PREDICTED BY IDOCK:   -5.29 KCAL/MOL
REMARK 923 INTER-LIGAND FREE ENERGY PREDICTED BY IDOCK:   -4.62 KCAL/MOL
REMARK 924 INTRA-LIGAND FREE ENERGY PREDICTED BY IDOCK:   -0.67 KCAL/MOL
REMARK 927      BINDING AFFINITY PREDICTED BY RF-SCORE:    0.00 PKD
ROOT
HETATM    1  C   UNL     1      -7.931   5.279  71.710  1.00  0.00    -0.112 C  
HETATM    2  C   UNL     1      -9.194   6.048  71.352  1.00  0.00    -0.152 C  
ENDROOT
BRANCH   2   3
HETATM    3  C   UNL     1     -10.187   5.146  70.619  1.00  0.00    -0.326 C  
BRANCH   3   4
HETATM    4  C   UNL     1     -10.482   5.639  69.196  1.00  0.00    -0.339 C  
HETATM    5  C   UNL     1      -9.221   5.660  68.301  1.00  0.00    -0.116 C  
HETATM    6  C   UNL     1      -9.535   6.211  66.900  1.00  0.00    -0.136 C  
HETATM    7  C   UNL     1      -8.510   4.295  68.178  1.00  0.00    -0.102 C  
HETATM    8  C   UNL     1      -9.321   3.199  67.500  1.00  0.00    -0.241 C  
BRANCH   6   9
HETATM    9  O   UNL     1     -10.049   7.553  66.911  1.00  0.00    -0.224 OA 
BRANCH   9  10
HETATM   10  C   UNL     1      -9.120   8.539  66.879  1.00  0.00    -0.146 C  
HETATM   11  O   UNL     1      -7.919   8.395  66.726  1.00  0.00    -0.096 OA 
BRANCH  10  12
HETATM   12  C   UNL     1      -9.779   9.870  66.981  1.00  0.00    -0.230 A  
HETATM   13  C   UNL     1      -9.390  10.884  66.111  1.00  0.00    -0.211 A  
HETATM   14  C   UNL     1     -10.034  12.135  66.140  1.00  0.00    -0.253 A  
HETATM   15  C   UNL     1     -11.081  12.425  67.032  1.00  0.00    -0.278 A  
HETATM   16  C   UNL     1     -11.438  11.380  67.908  1.00  0.00    -0.361 A  
HETATM   17  C   UNL     1     -10.815  10.124  67.881  1.00  0.00    -0.336 A  
BRANCH  15  18
HETATM   18  N   UNL     1     -11.679  13.677  67.121  1.00  0.00    -0.360 NA 
HETATM   19  C   UNL     1     -11.486  14.674  66.067  1.00  0.00    -0.332 C  
HETATM   20  C   UNL     1     -12.047  14.251  68.413  1.00  0.00    -0.262 C  
ENDBRANCH  15  18
ENDBRANCH  10  12
ENDBRANCH   9  10
ENDBRANCH   6   9
ENDBRANCH   3   4
ENDBRANCH   2   3
TORSDOF 6
ENDMDL
MODEL      189
REMARK 921   NORMALIZED FREE ENERGY PREDICTED BY IDOCK:   -3.47 KCAL/MOL
REMARK 922        TOTAL FREE ENERGY PREDICTED BY IDOCK:   -5.28 KCAL/MOL
REMARK 923 INTER-LIGAND FREE ENERGY PREDICTED BY IDOCK:   -4.53 KCAL/MOL
REMARK 924 INTRA-LIGAND FREE ENERGY PREDICTED BY IDOCK:   -0.74 KCAL/MOL
REMARK 927      BINDING AFFINITY PREDICTED BY RF-SCORE:    0.00 PKD
ROOT
HETATM    1  C   UNL     1     -10.559   7.528  67.982  1.00  0.00    -0.217 C  
HETATM    2  C   UNL     1      -9.106   7.978  67.942  1.00  0.00    -0.134 C  
ENDROOT
BRANCH   2   3
HETATM    3  C   UNL     1      -8.965   9.283  67.159  1.00  0.00    -0.141 C  
BRANCH   3   4
HETATM    4  C   UNL     1      -8.847  10.505  68.080  1.00  0.00    -0.131 C  
HETATM    5  C   UNL     1      -9.477  11.777  67.462  1.00  0.00    -0.174 C  
HETATM    6  C   UNL     1      -9.293  12.997  68.381  1.00  0.00    -0.149 C  
HETATM    7  C   UNL     1     -10.966  11.625  67.085  1.00  0.00    -0.330 C  
HETATM    8  C   UNL     1     -11.911  11.380  68.254  1.00  0.00    -0.320 C  
BRANCH   6   9
HETATM    9  O   UNL     1      -7.919  13.313  68.651  1.00  0.00    -0.123 OA 
BRANCH   9  10
HETATM   10  C   UNL     1      -7.250  13.935  67.649  1.00  0.00    -0.174 C  
HETATM   11  O   UNL     1      -6.361  13.454  66.967  1.00  0.00    -0.115 OA 
BRANCH  10  12
HETATM   12  C   UNL     1      -7.807  15.298  67.428  1.00  0.00    -0.220 A  
HETATM   13  C   UNL     1      -7.448  16.323  68.297  1.00  0.00    -0.157 A  
HETATM   14  C   UNL     1      -7.908  17.635  68.081  1.00  0.00    -0.257 A  
HETATM   15  C   UNL     1      -8.741  17.976  67.000  1.00  0.00    -0.247 A  
HETATM   16  C   UNL     1      -9.096  16.909  66.150  1.00  0.00    -0.265 A  
HETATM   17  C   UNL     1      -8.633  15.601  66.344  1.00  0.00    -0.319 A  
BRANCH  15  18
HETATM   18  N   UNL     1      -9.261  19.251  66.815  1.00  0.00    -0.308 NA 
HETATM   19  C   UNL     1      -8.736  20.390  67.570  1.00  0.00    -0.278 C  
HETATM   20  C   UNL     1     -10.622  19.451  66.319  1.00  0.00    -0.475 C  
ENDBRANCH  15  18
ENDBRANCH  10  12
ENDBRANCH   9  10
ENDBRANCH   6   9
ENDBRANCH   3   4
ENDBRANCH   2   3
TORSDOF 6
ENDMDL
MODEL      190
REMARK 921   NORMALIZED FREE ENERGY PREDICTED BY IDOCK:   -3.42 KCAL/MOL
REMARK 922        TOTAL FREE ENERGY PREDICTED BY IDOCK:   -5.21 KCAL/MOL
REMARK 923 INTER-LIGAND FREE ENERGY PREDICTED BY IDOCK:   -4.85 KCAL/MOL
REMARK 924 INTRA-LIGAND FREE ENERGY PREDICTED BY IDOCK:   -0.36 KCAL/MOL
REMARK 927      BINDING AFFINITY PREDICTED BY RF-SCORE:    0.00 PKD
ROOT
HETATM    1  C   UNL     1      -5.363   7.497  65.943  1.00  0.00    -0.028 C  
HETATM    2  C   UNL     1      -6.417   6.642  66.631  1.00  0.00    -0.043 C  
ENDROOT
BRANCH   2   3
HETATM    3  C   UNL     1      -7.811   6.967  66.096  1.00  0.00    -0.102 C  
BRANCH   3   4
HETATM    4  C   UNL     1      -8.534   8.018  66.951  1.00  0.00    -0.124 C  
HETATM    5  C   UNL     1     -10.052   8.077  66.662  1.00  0.00    -0.329 C  
HETATM    6  C   UNL     1     -10.739   9.177  67.490  1.00  0.00    -0.185 C  
HETATM    7  C   UNL     1     -10.787   6.735  66.863  1.00  0.00    -0.402 C  
HETATM    8  C   UNL     1     -10.791   6.204  68.290  1.00  0.00    -0.387 C  
BRANCH   6   9
HETATM    9  O   UNL     1     -10.224  10.494  67.238  1.00  0.00    -0.195 OA 
BRANCH   9  10
HETATM   10  C   UNL     1     -10.000  11.258  68.335  1.00  0.00    -0.197 C  
HETATM   11  O   UNL     1      -9.978  12.476  68.373  1.00  0.00    -0.224 OA 
BRANCH  10  12
HETATM   12  C   UNL     1      -9.855  10.397  69.541  1.00  0.00    -0.211 A  
HETATM   13  C   UNL     1     -10.980  10.121  70.312  1.00  0.00    -0.380 A  
HETATM   14  C   UNL     1     -10.890   9.263  71.423  1.00  0.00    -0.434 A  
HETATM   15  C   UNL     1      -9.684   8.652  71.810  1.00  0.00    -0.291 A  
HETATM   16  C   UNL     1      -8.564   8.966  71.015  1.00  0.00    -0.255 A  
HETATM   17  C   UNL     1      -8.641   9.807  69.898  1.00  0.00    -0.236 A  
BRANCH  15  18
HETATM   18  N   UNL     1      -9.565   7.859  72.946  1.00  0.00    -0.236 NA 
HETATM   19  C   UNL     1     -10.730   7.167  73.501  1.00  0.00    -0.333 C  
HETATM   20  C   UNL     1      -8.495   8.081  73.916  1.00  0.00    -0.260 C  
ENDBRANCH  15  18
ENDBRANCH  10  12
ENDBRANCH   9  10
ENDBRANCH   6   9
ENDBRANCH   3   4
ENDBRANCH   2   3
TORSDOF 6
ENDMDL
MODEL      191
REMARK 921   NORMALIZED FREE ENERGY PREDICTED BY IDOCK:   -3.40 KCAL/MOL
REMARK 922        TOTAL FREE ENERGY PREDICTED BY IDOCK:   -5.18 KCAL/MOL
REMARK 923 INTER-LIGAND FREE ENERGY PREDICTED BY IDOCK:   -4.68 KCAL/MOL
REMARK 924 INTRA-LIGAND FREE ENERGY PREDICTED BY IDOCK:   -0.50 KCAL/MOL
REMARK 927      BINDING AFFINITY PREDICTED BY RF-SCORE:    0.00 PKD
ROOT
HETATM    1  C   UNL     1     -13.760   9.183  72.497  1.00  0.00    -0.499 C  
HETATM    2  C   UNL     1     -12.327   8.752  72.228  1.00  0.00    -0.448 C  
ENDROOT
BRANCH   2   3
HETATM    3  C   UNL     1     -12.207   7.228  72.245  1.00  0.00    -0.192 C  
BRANCH   3   4
HETATM    4  C   UNL     1     -11.317   6.699  71.112  1.00  0.00    -0.355 C  
HETATM    5  C   UNL     1      -9.946   7.414  71.051  1.00  0.00    -0.183 C  
HETATM    6  C   UNL     1      -9.099   6.904  69.873  1.00  0.00    -0.144 C  
HETATM    7  C   UNL     1      -9.129   7.328  72.358  1.00  0.00    -0.155 C  
HETATM    8  C   UNL     1      -8.699   5.925  72.764  1.00  0.00    -0.125 C  
BRANCH   6   9
HETATM    9  O   UNL     1      -9.718   7.100  68.592  1.00  0.00    -0.140 OA 
BRANCH   9  10
HETATM   10  C   UNL     1      -8.898   6.987  67.518  1.00  0.00    -0.119 C  
HETATM   11  O   UNL     1      -8.093   6.094  67.315  1.00  0.00    -0.105 OA 
BRANCH  10  12
HETATM   12  C   UNL     1      -9.167   8.085  66.548  1.00  0.00    -0.236 A  
HETATM   13  C   UNL     1      -8.571   8.036  65.292  1.00  0.00    -0.112 A  
HETATM   14  C   UNL     1      -8.851   9.025  64.331  1.00  0.00    -0.107 A  
HETATM   15  C   UNL     1      -9.727  10.095  64.581  1.00  0.00    -0.309 A  
HETATM   16  C   UNL     1     -10.301  10.120  65.869  1.00  0.00    -0.221 A  
HETATM   17  C   UNL     1     -10.042   9.134  66.831  1.00  0.00    -0.328 A  
BRANCH  15  18
HETATM   18  N   UNL     1      -9.958  11.118  63.668  1.00  0.00    -0.326 NA 
HETATM   19  C   UNL     1     -11.198  11.895  63.713  1.00  0.00    -0.440 C  
HETATM   20  C   UNL     1      -9.304  11.129  62.361  1.00  0.00    -0.137 C  
ENDBRANCH  15  18
ENDBRANCH  10  12
ENDBRANCH   9  10
ENDBRANCH   6   9
ENDBRANCH   3   4
ENDBRANCH   2   3
TORSDOF 6
ENDMDL
MODEL      192
REMARK 921   NORMALIZED FREE ENERGY PREDICTED BY IDOCK:   -3.35 KCAL/MOL
REMARK 922        TOTAL FREE ENERGY PREDICTED BY IDOCK:   -5.11 KCAL/MOL
REMARK 923 INTER-LIGAND FREE ENERGY PREDICTED BY IDOCK:   -4.66 KCAL/MOL
REMARK 924 INTRA-LIGAND FREE ENERGY PREDICTED BY IDOCK:   -0.44 KCAL/MOL
REMARK 927      BINDING AFFINITY PREDICTED BY RF-SCORE:    0.00 PKD
ROOT
HETATM    1  C   UNL     1      -9.080   3.044  70.788  1.00  0.00    -0.186 C  
HETATM    2  C   UNL     1      -9.183   2.939  72.302  1.00  0.00    -0.153 C  
ENDROOT
BRANCH   2   3
HETATM    3  C   UNL     1      -9.834   4.191  72.890  1.00  0.00    -0.186 C  
BRANCH   3   4
HETATM    4  C   UNL     1      -9.817   5.372  71.909  1.00  0.00    -0.218 C  
HETATM    5  C   UNL     1      -9.766   6.740  72.629  1.00  0.00    -0.164 C  
HETATM    6  C   UNL     1      -9.808   7.904  71.624  1.00  0.00    -0.167 C  
HETATM    7  C   UNL     1      -8.560   6.911  73.578  1.00  0.00    -0.152 C  
HETATM    8  C   UNL     1      -7.195   6.895  72.903  1.00  0.00    -0.074 C  
BRANCH   6   9
HETATM    9  O   UNL     1     -10.989   7.917  70.807  1.00  0.00    -0.242 OA 
BRANCH   9  10
HETATM   10  C   UNL     1     -10.959   8.758  69.744  1.00  0.00    -0.140 C  
HETATM   11  O   UNL     1     -10.637   8.468  68.604  1.00  0.00    -0.198 OA 
BRANCH  10  12
HETATM   12  C   UNL     1     -11.461  10.103  70.137  1.00  0.00    -0.368 A  
HETATM   13  C   UNL     1     -12.174  10.237  71.323  1.00  0.00    -0.496 A  
HETATM   14  C   UNL     1     -12.611  11.503  71.754  1.00  0.00    -0.225 A  
HETATM   15  C   UNL     1     -12.358  12.679  71.024  1.00  0.00    -0.211 A  
HETATM   16  C   UNL     1     -11.645  12.503  69.821  1.00  0.00    -0.291 A  
HETATM   17  C   UNL     1     -11.192  11.249  69.387  1.00  0.00    -0.345 A  
BRANCH  15  18
HETATM   18  N   UNL     1     -12.843  13.926  71.400  1.00  0.00    -0.346 NA 
HETATM   19  C   UNL     1     -12.038  14.822  72.232  1.00  0.00    -0.271 C  
HETATM   20  C   UNL     1     -14.278  14.192  71.467  1.00  0.00    -0.234 C  
ENDBRANCH  15  18
ENDBRANCH  10  12
ENDBRANCH   9  10
ENDBRANCH   6   9
ENDBRANCH   3   4
ENDBRANCH   2   3
TORSDOF 6
ENDMDL
MODEL      193
REMARK 921   NORMALIZED FREE ENERGY PREDICTED BY IDOCK:   -3.30 KCAL/MOL
REMARK 922        TOTAL FREE ENERGY PREDICTED BY IDOCK:   -5.04 KCAL/MOL
REMARK 923 INTER-LIGAND FREE ENERGY PREDICTED BY IDOCK:   -4.86 KCAL/MOL
REMARK 924 INTRA-LIGAND FREE ENERGY PREDICTED BY IDOCK:   -0.18 KCAL/MOL
REMARK 927      BINDING AFFINITY PREDICTED BY RF-SCORE:    0.00 PKD
ROOT
HETATM    1  C   UNL     1     -11.919  14.420  70.388  1.00  0.00    -0.395 C  
HETATM    2  C   UNL     1     -12.129  13.190  69.516  1.00  0.00    -0.296 C  
ENDROOT
BRANCH   2   3
HETATM    3  C   UNL     1     -12.146  11.920  70.366  1.00  0.00    -0.421 C  
BRANCH   3   4
HETATM    4  C   UNL     1     -11.443  10.745  69.674  1.00  0.00    -0.376 C  
HETATM    5  C   UNL     1     -10.712   9.817  70.673  1.00  0.00    -0.394 C  
HETATM    6  C   UNL     1      -9.970   8.683  69.947  1.00  0.00    -0.186 C  
HETATM    7  C   UNL     1     -11.624   9.227  71.771  1.00  0.00    -0.458 C  
HETATM    8  C   UNL     1     -12.722   8.298  71.272  1.00  0.00    -0.209 C  
BRANCH   6   9
HETATM    9  O   UNL     1      -8.975   9.147  69.021  1.00  0.00    -0.139 OA 
BRANCH   9  10
HETATM   10  C   UNL     1      -9.449   9.701  67.877  1.00  0.00    -0.131 C  
HETATM   11  O   UNL     1     -10.212   9.177  67.084  1.00  0.00    -0.220 OA 
BRANCH  10  12
HETATM   12  C   UNL     1      -8.966  11.103  67.747  1.00  0.00    -0.139 A  
HETATM   13  C   UNL     1      -9.556  11.935  66.801  1.00  0.00    -0.214 A  
HETATM   14  C   UNL     1      -9.165  13.282  66.692  1.00  0.00    -0.222 A  
HETATM   15  C   UNL     1      -8.176  13.850  67.514  1.00  0.00    -0.188 A  
HETATM   16  C   UNL     1      -7.591  12.975  68.451  1.00  0.00    -0.133 A  
HETATM   17  C   UNL     1      -7.980  11.635  68.580  1.00  0.00    -0.144 A  
BRANCH  15  18
HETATM   18  N   UNL     1      -7.729  15.159  67.372  1.00  0.00    -0.182 NA 
HETATM   19  C   UNL     1      -8.496  16.130  66.589  1.00  0.00    -0.280 C  
HETATM   20  C   UNL     1      -6.313  15.495  67.500  1.00  0.00    -0.134 C  
ENDBRANCH  15  18
ENDBRANCH  10  12
ENDBRANCH   9  10
ENDBRANCH   6   9
ENDBRANCH   3   4
ENDBRANCH   2   3
TORSDOF 6
ENDMDL
MODEL      194
REMARK 921   NORMALIZED FREE ENERGY PREDICTED BY IDOCK:   -3.29 KCAL/MOL
REMARK 922        TOTAL FREE ENERGY PREDICTED BY IDOCK:   -5.03 KCAL/MOL
REMARK 923 INTER-LIGAND FREE ENERGY PREDICTED BY IDOCK:   -4.71 KCAL/MOL
REMARK 924 INTRA-LIGAND FREE ENERGY PREDICTED BY IDOCK:   -0.32 KCAL/MOL
REMARK 927      BINDING AFFINITY PREDICTED BY RF-SCORE:    0.00 PKD
ROOT
HETATM    1  C   UNL     1     -11.669  14.358  67.441  1.00  0.00    -0.424 C  
HETATM    2  C   UNL     1     -11.600  12.838  67.471  1.00  0.00    -0.412 C  
ENDROOT
BRANCH   2   3
HETATM    3  C   UNL     1     -12.128  12.298  68.799  1.00  0.00    -0.162 C  
BRANCH   3   4
HETATM    4  C   UNL     1     -11.560  10.911  69.132  1.00  0.00    -0.389 C  
HETATM    5  C   UNL     1     -11.488  10.648  70.655  1.00  0.00    -0.374 C  
HETATM    6  C   UNL     1     -10.863   9.276  70.959  1.00  0.00    -0.314 C  
HETATM    7  C   UNL     1     -12.843  10.778  71.383  1.00  0.00    -0.557 C  
HETATM    8  C   UNL     1     -13.903   9.765  70.970  1.00  0.00     0.035 C  
BRANCH   6   9
HETATM    9  O   UNL     1      -9.525   9.129  70.456  1.00  0.00    -0.202 OA 
BRANCH   9  10
HETATM   10  C   UNL     1      -8.618   8.632  71.333  1.00  0.00    -0.192 C  
HETATM   11  O   UNL     1      -7.666   9.231  71.804  1.00  0.00    -0.320 OA 
BRANCH  10  12
HETATM   12  C   UNL     1      -8.986   7.243  71.722  1.00  0.00    -0.136 A  
HETATM   13  C   UNL     1      -8.677   6.196  70.859  1.00  0.00    -0.136 A  
HETATM   14  C   UNL     1      -8.956   4.866  71.222  1.00  0.00    -0.163 A  
HETATM   15  C   UNL     1      -9.553   4.527  72.450  1.00  0.00    -0.146 A  
HETATM   16  C   UNL     1      -9.866   5.614  73.292  1.00  0.00    -0.178 A  
HETATM   17  C   UNL     1      -9.580   6.943  72.948  1.00  0.00    -0.170 A  
BRANCH  15  18
HETATM   18  N   UNL     1      -9.900   3.226  72.792  1.00  0.00    -0.132 NA 
HETATM   19  C   UNL     1     -10.003   2.185  71.768  1.00  0.00    -0.139 C  
HETATM   20  C   UNL     1     -10.669   2.939  74.001  1.00  0.00    -0.195 C  
ENDBRANCH  15  18
ENDBRANCH  10  12
ENDBRANCH   9  10
ENDBRANCH   6   9
ENDBRANCH   3   4
ENDBRANCH   2   3
TORSDOF 6
ENDMDL
MODEL      195
REMARK 921   NORMALIZED FREE ENERGY PREDICTED BY IDOCK:   -3.28 KCAL/MOL
REMARK 922        TOTAL FREE ENERGY PREDICTED BY IDOCK:   -5.02 KCAL/MOL
REMARK 923 INTER-LIGAND FREE ENERGY PREDICTED BY IDOCK:   -4.21 KCAL/MOL
REMARK 924 INTRA-LIGAND FREE ENERGY PREDICTED BY IDOCK:   -0.81 KCAL/MOL
REMARK 927      BINDING AFFINITY PREDICTED BY RF-SCORE:    0.00 PKD
ROOT
HETATM    1  C   UNL     1     -11.854   7.103  71.173  1.00  0.00    -0.363 C  
HETATM    2  C   UNL     1     -10.529   6.973  70.435  1.00  0.00    -0.225 C  
ENDROOT
BRANCH   2   3
HETATM    3  C   UNL     1     -10.060   8.333  69.920  1.00  0.00    -0.195 C  
BRANCH   3   4
HETATM    4  C   UNL     1     -10.309   8.504  68.415  1.00  0.00    -0.241 C  
HETATM    5  C   UNL     1      -9.006   8.770  67.624  1.00  0.00    -0.141 C  
HETATM    6  C   UNL     1      -9.293   8.994  66.129  1.00  0.00    -0.232 C  
HETATM    7  C   UNL     1      -7.931   7.675  67.792  1.00  0.00    -0.121 C  
HETATM    8  C   UNL     1      -8.312   6.302  67.256  1.00  0.00    -0.109 C  
BRANCH   6   9
HETATM    9  O   UNL     1     -10.162  10.108  65.871  1.00  0.00    -0.254 OA 
BRANCH   9  10
HETATM   10  C   UNL     1      -9.545  11.295  65.646  1.00  0.00    -0.229 C  
HETATM   11  O   UNL     1      -8.674  11.510  64.821  1.00  0.00     0.206 OA 
BRANCH  10  12
HETATM   12  C   UNL     1     -10.139  12.355  66.507  1.00  0.00    -0.246 A  
HETATM   13  C   UNL     1      -9.311  13.340  67.032  1.00  0.00    -0.242 A  
HETATM   14  C   UNL     1      -9.848  14.390  67.800  1.00  0.00    -0.221 A  
HETATM   15  C   UNL     1     -11.223  14.497  68.075  1.00  0.00    -0.292 A  
HETATM   16  C   UNL     1     -12.030  13.473  67.539  1.00  0.00    -0.385 A  
HETATM   17  C   UNL     1     -11.510  12.430  66.761  1.00  0.00    -0.423 A  
BRANCH  15  18
HETATM   18  N   UNL     1     -11.760  15.487  68.890  1.00  0.00    -0.368 NA 
HETATM   19  C   UNL     1     -11.497  16.902  68.620  1.00  0.00     0.211 C  
HETATM   20  C   UNL     1     -12.125  15.211  70.278  1.00  0.00    -0.341 C  
ENDBRANCH  15  18
ENDBRANCH  10  12
ENDBRANCH   9  10
ENDBRANCH   6   9
ENDBRANCH   3   4
ENDBRANCH   2   3
TORSDOF 6
ENDMDL
MODEL      196
REMARK 921   NORMALIZED FREE ENERGY PREDICTED BY IDOCK:   -3.27 KCAL/MOL
REMARK 922        TOTAL FREE ENERGY PREDICTED BY IDOCK:   -5.00 KCAL/MOL
REMARK 923 INTER-LIGAND FREE ENERGY PREDICTED BY IDOCK:   -4.38 KCAL/MOL
REMARK 924 INTRA-LIGAND FREE ENERGY PREDICTED BY IDOCK:   -0.62 KCAL/MOL
REMARK 927      BINDING AFFINITY PREDICTED BY RF-SCORE:    0.00 PKD
ROOT
HETATM    1  C   UNL     1      -7.040   9.303  70.705  1.00  0.00    -0.111 C  
HETATM    2  C   UNL     1      -7.292   7.815  70.893  1.00  0.00    -0.065 C  
ENDROOT
BRANCH   2   3
HETATM    3  C   UNL     1      -8.192   7.273  69.783  1.00  0.00    -0.130 C  
BRANCH   3   4
HETATM    4  C   UNL     1      -8.654   8.373  68.817  1.00  0.00    -0.135 C  
HETATM    5  C   UNL     1     -10.189   8.393  68.630  1.00  0.00    -0.220 C  
HETATM    6  C   UNL     1     -10.617   9.466  67.614  1.00  0.00    -0.271 C  
HETATM    7  C   UNL     1     -10.984   8.567  69.942  1.00  0.00    -0.165 C  
HETATM    8  C   UNL     1     -10.769   9.892  70.660  1.00  0.00    -0.372 C  
BRANCH   6   9
HETATM    9  O   UNL     1     -10.049   9.282  66.308  1.00  0.00    -0.278 OA 
BRANCH   9  10
HETATM   10  C   UNL     1      -9.041  10.127  65.980  1.00  0.00    -0.154 C  
HETATM   11  O   UNL     1      -8.010   9.829  65.401  1.00  0.00    -0.116 OA 
BRANCH  10  12
HETATM   12  C   UNL     1      -9.397  11.523  66.356  1.00  0.00    -0.222 A  
HETATM   13  C   UNL     1      -8.891  12.052  67.538  1.00  0.00    -0.172 A  
HETATM   14  C   UNL     1      -9.158  13.387  67.894  1.00  0.00    -0.208 A  
HETATM   15  C   UNL     1      -9.936  14.241  67.093  1.00  0.00    -0.255 A  
HETATM   16  C   UNL     1     -10.443  13.667  65.910  1.00  0.00    -0.297 A  
HETATM   17  C   UNL     1     -10.174  12.343  65.537  1.00  0.00    -0.297 A  
BRANCH  15  18
HETATM   18  N   UNL     1     -10.267  15.539  67.465  1.00  0.00    -0.250 NA 
HETATM   19  C   UNL     1     -11.216  15.786  68.552  1.00  0.00    -0.354 C  
HETATM   20  C   UNL     1     -10.147  16.651  66.525  1.00  0.00    -0.305 C  
ENDBRANCH  15  18
ENDBRANCH  10  12
ENDBRANCH   9  10
ENDBRANCH   6   9
ENDBRANCH   3   4
ENDBRANCH   2   3
TORSDOF 6
ENDMDL
MODEL      197
REMARK 921   NORMALIZED FREE ENERGY PREDICTED BY IDOCK:   -3.27 KCAL/MOL
REMARK 922        TOTAL FREE ENERGY PREDICTED BY IDOCK:   -5.00 KCAL/MOL
REMARK 923 INTER-LIGAND FREE ENERGY PREDICTED BY IDOCK:   -4.91 KCAL/MOL
REMARK 924 INTRA-LIGAND FREE ENERGY PREDICTED BY IDOCK:   -0.08 KCAL/MOL
REMARK 927      BINDING AFFINITY PREDICTED BY RF-SCORE:    0.00 PKD
ROOT
HETATM    1  C   UNL     1     -13.488  14.523  72.749  1.00  0.00    -0.575 C  
HETATM    2  C   UNL     1     -13.296  13.543  71.601  1.00  0.00    -0.420 C  
ENDROOT
BRANCH   2   3
HETATM    3  C   UNL     1     -13.446  12.103  72.089  1.00  0.00    -0.383 C  
BRANCH   3   4
HETATM    4  C   UNL     1     -12.785  11.094  71.139  1.00  0.00    -0.510 C  
HETATM    5  C   UNL     1     -12.212   9.865  71.883  1.00  0.00    -0.333 C  
HETATM    6  C   UNL     1     -11.506   8.901  70.914  1.00  0.00    -0.288 C  
HETATM    7  C   UNL     1     -13.251   9.093  72.724  1.00  0.00    -0.213 C  
HETATM    8  C   UNL     1     -14.377   8.444  71.930  1.00  0.00    -0.561 C  
BRANCH   6   9
HETATM    9  O   UNL     1     -10.408   9.497  70.206  1.00  0.00    -0.230 OA 
BRANCH   9  10
HETATM   10  C   UNL     1     -10.007   8.848  69.085  1.00  0.00    -0.190 C  
HETATM   11  O   UNL     1      -9.927   9.323  67.965  1.00  0.00    -0.166 OA 
BRANCH  10  12
HETATM   12  C   UNL     1      -9.590   7.458  69.418  1.00  0.00    -0.155 A  
HETATM   13  C   UNL     1      -8.998   7.208  70.651  1.00  0.00    -0.154 A  
HETATM   14  C   UNL     1      -8.646   5.897  71.022  1.00  0.00    -0.131 A  
HETATM   15  C   UNL     1      -8.867   4.790  70.183  1.00  0.00    -0.094 A  
HETATM   16  C   UNL     1      -9.456   5.083  68.936  1.00  0.00    -0.195 A  
HETATM   17  C   UNL     1      -9.823   6.382  68.560  1.00  0.00    -0.145 A  
BRANCH  15  18
HETATM   18  N   UNL     1      -8.461   3.500  70.505  1.00  0.00    -0.060 NA 
HETATM   19  C   UNL     1      -8.461   3.041  71.895  1.00  0.00    -0.069 C  
HETATM   20  C   UNL     1      -7.551   2.753  69.639  1.00  0.00    -0.043 C  
ENDBRANCH  15  18
ENDBRANCH  10  12
ENDBRANCH   9  10
ENDBRANCH   6   9
ENDBRANCH   3   4
ENDBRANCH   2   3
TORSDOF 6
ENDMDL
MODEL      198
REMARK 921   NORMALIZED FREE ENERGY PREDICTED BY IDOCK:   -3.26 KCAL/MOL
REMARK 922        TOTAL FREE ENERGY PREDICTED BY IDOCK:   -4.99 KCAL/MOL
REMARK 923 INTER-LIGAND FREE ENERGY PREDICTED BY IDOCK:   -4.08 KCAL/MOL
REMARK 924 INTRA-LIGAND FREE ENERGY PREDICTED BY IDOCK:   -0.91 KCAL/MOL
REMARK 927      BINDING AFFINITY PREDICTED BY RF-SCORE:    0.00 PKD
ROOT
HETATM    1  C   UNL     1     -11.832  12.910  66.526  1.00  0.00    -0.473 C  
HETATM    2  C   UNL     1     -11.635  14.052  67.512  1.00  0.00    -0.397 C  
ENDROOT
BRANCH   2   3
HETATM    3  C   UNL     1     -10.410  13.802  68.391  1.00  0.00    -0.247 C  
BRANCH   3   4
HETATM    4  C   UNL     1      -9.163  13.449  67.568  1.00  0.00    -0.219 C  
HETATM    5  C   UNL     1      -8.372  12.263  68.169  1.00  0.00    -0.174 C  
HETATM    6  C   UNL     1      -7.099  11.969  67.357  1.00  0.00    -0.136 C  
HETATM    7  C   UNL     1      -9.198  10.969  68.332  1.00  0.00    -0.175 C  
HETATM    8  C   UNL     1      -9.697  10.349  67.034  1.00  0.00    -0.216 C  
BRANCH   6   9
HETATM    9  O   UNL     1      -6.188  13.077  67.294  1.00  0.00    -0.279 OA 
BRANCH   9  10
HETATM   10  C   UNL     1      -5.747  13.546  68.488  1.00  0.00    -0.088 C  
HETATM   11  O   UNL     1      -5.226  12.888  69.373  1.00  0.00    -0.073 OA 
BRANCH  10  12
HETATM   12  C   UNL     1      -5.912  15.024  68.554  1.00  0.00    -0.094 A  
HETATM   13  C   UNL     1      -5.863  15.654  69.792  1.00  0.00    -0.145 A  
HETATM   14  C   UNL     1      -5.955  17.055  69.885  1.00  0.00    -0.219 A  
HETATM   15  C   UNL     1      -6.103  17.878  68.755  1.00  0.00    -0.197 A  
HETATM   16  C   UNL     1      -6.164  17.205  67.518  1.00  0.00    -0.167 A  
HETATM   17  C   UNL     1      -6.059  15.811  67.410  1.00  0.00    -0.117 A  
BRANCH  15  18
HETATM   18  N   UNL     1      -6.267  19.256  68.835  1.00  0.00    -0.238 NA 
HETATM   19  C   UNL     1      -7.592  19.840  69.051  1.00  0.00    -0.224 C  
HETATM   20  C   UNL     1      -5.317  20.171  68.206  1.00  0.00    -0.206 C  
ENDBRANCH  15  18
ENDBRANCH  10  12
ENDBRANCH   9  10
ENDBRANCH   6   9
ENDBRANCH   3   4
ENDBRANCH   2   3
TORSDOF 6
ENDMDL
MODEL      199
REMARK 921   NORMALIZED FREE ENERGY PREDICTED BY IDOCK:   -3.25 KCAL/MOL
REMARK 922        TOTAL FREE ENERGY PREDICTED BY IDOCK:   -4.98 KCAL/MOL
REMARK 923 INTER-LIGAND FREE ENERGY PREDICTED BY IDOCK:   -4.09 KCAL/MOL
REMARK 924 INTRA-LIGAND FREE ENERGY PREDICTED BY IDOCK:   -0.90 KCAL/MOL
REMARK 927      BINDING AFFINITY PREDICTED BY RF-SCORE:    0.00 PKD
ROOT
HETATM    1  C   UNL     1      -6.162  10.176  64.058  1.00  0.00    -0.132 C  
HETATM    2  C   UNL     1      -7.217   9.965  65.134  1.00  0.00    -0.133 C  
ENDROOT
BRANCH   2   3
HETATM    3  C   UNL     1      -8.241   8.920  64.692  1.00  0.00    -0.163 C  
BRANCH   3   4
HETATM    4  C   UNL     1      -8.279   7.707  65.632  1.00  0.00    -0.136 C  
HETATM    5  C   UNL     1      -7.879   6.392  64.922  1.00  0.00    -0.113 C  
HETATM    6  C   UNL     1      -7.982   5.187  65.872  1.00  0.00    -0.108 C  
HETATM    7  C   UNL     1      -6.480   6.426  64.270  1.00  0.00    -0.033 C  
HETATM    8  C   UNL     1      -5.316   6.591  65.237  1.00  0.00    -0.021 C  
BRANCH   6   9
HETATM    9  O   UNL     1      -9.302   4.981  66.399  1.00  0.00    -0.132 OA 
BRANCH   9  10
HETATM   10  C   UNL     1      -9.380   4.197  67.503  1.00  0.00    -0.171 C  
HETATM   11  O   UNL     1      -8.948   3.062  67.614  1.00  0.00    -0.128 OA 
BRANCH  10  12
HETATM   12  C   UNL     1     -10.008   4.948  68.624  1.00  0.00    -0.195 A  
HETATM   13  C   UNL     1     -10.855   6.012  68.332  1.00  0.00    -0.361 A  
HETATM   14  C   UNL     1     -11.513   6.705  69.366  1.00  0.00    -0.288 A  
HETATM   15  C   UNL     1     -11.352   6.369  70.722  1.00  0.00    -0.350 A  
HETATM   16  C   UNL     1     -10.476   5.296  70.980  1.00  0.00    -0.274 A  
HETATM   17  C   UNL     1      -9.825   4.589  69.960  1.00  0.00    -0.296 A  
BRANCH  15  18
HETATM   18  N   UNL     1     -11.939   7.088  71.757  1.00  0.00    -0.309 NA 
HETATM   19  C   UNL     1     -13.333   7.526  71.668  1.00  0.00    -0.358 C  
HETATM   20  C   UNL     1     -11.131   7.882  72.681  1.00  0.00    -0.385 C  
ENDBRANCH  15  18
ENDBRANCH  10  12
ENDBRANCH   9  10
ENDBRANCH   6   9
ENDBRANCH   3   4
ENDBRANCH   2   3
TORSDOF 6
ENDMDL
MODEL      200
REMARK 921   NORMALIZED FREE ENERGY PREDICTED BY IDOCK:   -3.25 KCAL/MOL
REMARK 922        TOTAL FREE ENERGY PREDICTED BY IDOCK:   -4.98 KCAL/MOL
REMARK 923 INTER-LIGAND FREE ENERGY PREDICTED BY IDOCK:   -4.55 KCAL/MOL
REMARK 924 INTRA-LIGAND FREE ENERGY PREDICTED BY IDOCK:   -0.42 KCAL/MOL
REMARK 927      BINDING AFFINITY PREDICTED BY RF-SCORE:    0.00 PKD
ROOT
HETATM    1  C   UNL     1     -10.658  19.146  66.620  1.00  0.00    -0.520 C  
HETATM    2  C   UNL     1     -10.363  19.520  68.065  1.00  0.00    -0.564 C  
ENDROOT
BRANCH   2   3
HETATM    3  C   UNL     1      -8.873  19.799  68.258  1.00  0.00    -0.329 C  
BRANCH   3   4
HETATM    4  C   UNL     1      -8.024  18.523  68.172  1.00  0.00    -0.308 C  
HETATM    5  C   UNL     1      -7.281  18.393  66.821  1.00  0.00    -0.231 C  
HETATM    6  C   UNL     1      -6.486  17.079  66.742  1.00  0.00    -0.223 C  
HETATM    7  C   UNL     1      -6.357  19.584  66.491  1.00  0.00    -0.188 C  
HETATM    8  C   UNL     1      -5.183  19.779  67.442  1.00  0.00    -0.160 C  
BRANCH   6   9
HETATM    9  O   UNL     1      -7.302  15.904  66.873  1.00  0.00    -0.216 OA 
BRANCH   9  10
HETATM   10  C   UNL     1      -7.072  15.147  67.974  1.00  0.00    -0.128 C  
HETATM   11  O   UNL     1      -6.543  15.520  69.008  1.00  0.00    -0.112 OA 
BRANCH  10  12
HETATM   12  C   UNL     1      -7.632  13.781  67.786  1.00  0.00    -0.173 A  
HETATM   13  C   UNL     1      -8.988  13.571  68.014  1.00  0.00    -0.189 A  
HETATM   14  C   UNL     1      -9.562  12.306  67.788  1.00  0.00    -0.200 A  
HETATM   15  C   UNL     1      -8.813  11.207  67.331  1.00  0.00    -0.139 A  
HETATM   16  C   UNL     1      -7.441  11.453  67.125  1.00  0.00    -0.138 A  
HETATM   17  C   UNL     1      -6.859  12.711  67.333  1.00  0.00    -0.141 A  
BRANCH  15  18
HETATM   18  N   UNL     1      -9.350   9.935  67.172  1.00  0.00    -0.144 NA 
HETATM   19  C   UNL     1      -8.938   9.084  66.054  1.00  0.00    -0.185 C  
HETATM   20  C   UNL     1     -10.660   9.591  67.721  1.00  0.00    -0.261 C  
ENDBRANCH  15  18
ENDBRANCH  10  12
ENDBRANCH   9  10
ENDBRANCH   6   9
ENDBRANCH   3   4
ENDBRANCH   2   3
TORSDOF 6
ENDMDL
MODEL      201
REMARK 921   NORMALIZED FREE ENERGY PREDICTED BY IDOCK:   -3.24 KCAL/MOL
REMARK 922        TOTAL FREE ENERGY PREDICTED BY IDOCK:   -4.96 KCAL/MOL
REMARK 923 INTER-LIGAND FREE ENERGY PREDICTED BY IDOCK:   -3.90 KCAL/MOL
REMARK 924 INTRA-LIGAND FREE ENERGY PREDICTED BY IDOCK:   -1.06 KCAL/MOL
REMARK 927      BINDING AFFINITY PREDICTED BY RF-SCORE:    0.00 PKD
ROOT
HETATM    1  C   UNL     1      -7.880   8.569  68.407  1.00  0.00    -0.106 C  
HETATM    2  C   UNL     1      -6.492   9.121  68.120  1.00  0.00    -0.059 C  
ENDROOT
BRANCH   2   3
HETATM    3  C   UNL     1      -6.558  10.247  67.090  1.00  0.00    -0.073 C  
BRANCH   3   4
HETATM    4  C   UNL     1      -7.997  10.556  66.655  1.00  0.00    -0.125 C  
HETATM    5  C   UNL     1      -8.114  10.831  65.137  1.00  0.00     0.004 C  
HETATM    6  C   UNL     1      -9.555  11.194  64.741  1.00  0.00    -0.240 C  
HETATM    7  C   UNL     1      -7.600   9.680  64.245  1.00  0.00    -0.128 C  
HETATM    8  C   UNL     1      -8.376   8.375  64.357  1.00  0.00    -0.106 C  
BRANCH   6   9
HETATM    9  O   UNL     1     -10.058  12.363  65.407  1.00  0.00    -0.271 OA 
BRANCH   9  10
HETATM   10  C   UNL     1     -11.343  12.289  65.836  1.00  0.00    -0.360 C  
HETATM   11  O   UNL     1     -12.329  12.665  65.226  1.00  0.00    -0.482 OA 
BRANCH  10  12
HETATM   12  C   UNL     1     -11.406  11.599  67.153  1.00  0.00    -0.373 A  
HETATM   13  C   UNL     1     -11.525  12.362  68.310  1.00  0.00    -0.360 A  
HETATM   14  C   UNL     1     -11.648  11.740  69.566  1.00  0.00    -0.398 A  
HETATM   15  C   UNL     1     -11.655  10.342  69.719  1.00  0.00    -0.269 A  
HETATM   16  C   UNL     1     -11.519   9.602  68.528  1.00  0.00     0.246 A  
HETATM   17  C   UNL     1     -11.410  10.208  67.269  1.00  0.00     0.215 A  
BRANCH  15  18
HETATM   18  N   UNL     1     -11.705   9.714  70.958  1.00  0.00    -0.325 NA 
HETATM   19  C   UNL     1     -12.823   9.952  71.873  1.00  0.00    -0.429 C  
HETATM   20  C   UNL     1     -10.488   9.253  71.624  1.00  0.00    -0.258 C  
ENDBRANCH  15  18
ENDBRANCH  10  12
ENDBRANCH   9  10
ENDBRANCH   6   9
ENDBRANCH   3   4
ENDBRANCH   2   3
TORSDOF 6
ENDMDL
MODEL      202
REMARK 921   NORMALIZED FREE ENERGY PREDICTED BY IDOCK:   -3.23 KCAL/MOL
REMARK 922        TOTAL FREE ENERGY PREDICTED BY IDOCK:   -4.94 KCAL/MOL
REMARK 923 INTER-LIGAND FREE ENERGY PREDICTED BY IDOCK:   -4.49 KCAL/MOL
REMARK 924 INTRA-LIGAND FREE ENERGY PREDICTED BY IDOCK:   -0.46 KCAL/MOL
REMARK 927      BINDING AFFINITY PREDICTED BY RF-SCORE:    0.00 PKD
ROOT
HETATM    1  C   UNL     1     -11.559  14.962  70.084  1.00  0.00    -0.333 C  
HETATM    2  C   UNL     1     -11.820  15.193  68.604  1.00  0.00    -0.329 C  
ENDROOT
BRANCH   2   3
HETATM    3  C   UNL     1     -11.177  14.093  67.761  1.00  0.00    -0.307 C  
BRANCH   3   4
HETATM    4  C   UNL     1     -10.892  12.825  68.578  1.00  0.00    -0.279 C  
HETATM    5  C   UNL     1     -10.197  11.723  67.742  1.00  0.00    -0.205 C  
HETATM    6  C   UNL     1      -9.976  10.446  68.570  1.00  0.00    -0.167 C  
HETATM    7  C   UNL     1      -8.867  12.165  67.096  1.00  0.00    -0.191 C  
HETATM    8  C   UNL     1      -7.756  12.520  68.074  1.00  0.00    -0.140 C  
BRANCH   6   9
HETATM    9  O   UNL     1     -11.191   9.869  69.074  1.00  0.00    -0.184 OA 
BRANCH   9  10
HETATM   10  C   UNL     1     -11.224   9.641  70.410  1.00  0.00    -0.283 C  
HETATM   11  O   UNL     1     -11.684  10.386  71.259  1.00  0.00    -0.338 OA 
BRANCH  10  12
HETATM   12  C   UNL     1     -10.680   8.289  70.714  1.00  0.00    -0.244 A  
HETATM   13  C   UNL     1      -9.323   8.152  70.987  1.00  0.00    -0.180 A  
HETATM   14  C   UNL     1      -8.788   6.899  71.337  1.00  0.00    -0.133 A  
HETATM   15  C   UNL     1      -9.577   5.739  71.426  1.00  0.00    -0.158 A  
HETATM   16  C   UNL     1     -10.944   5.912  71.129  1.00  0.00    -0.327 A  
HETATM   17  C   UNL     1     -11.493   7.157  70.793  1.00  0.00    -0.342 A  
BRANCH  15  18
HETATM   18  N   UNL     1      -9.051   4.482  71.701  1.00  0.00    -0.128 NA 
HETATM   19  C   UNL     1      -7.737   4.092  71.187  1.00  0.00    -0.066 C  
HETATM   20  C   UNL     1      -9.919   3.349  72.015  1.00  0.00    -0.152 C  
ENDBRANCH  15  18
ENDBRANCH  10  12
ENDBRANCH   9  10
ENDBRANCH   6   9
ENDBRANCH   3   4
ENDBRANCH   2   3
TORSDOF 6
ENDMDL
MODEL      203
REMARK 921   NORMALIZED FREE ENERGY PREDICTED BY IDOCK:   -3.18 KCAL/MOL
REMARK 922        TOTAL FREE ENERGY PREDICTED BY IDOCK:   -4.88 KCAL/MOL
REMARK 923 INTER-LIGAND FREE ENERGY PREDICTED BY IDOCK:   -3.61 KCAL/MOL
REMARK 924 INTRA-LIGAND FREE ENERGY PREDICTED BY IDOCK:   -1.27 KCAL/MOL
REMARK 927      BINDING AFFINITY PREDICTED BY RF-SCORE:    0.00 PKD
ROOT
HETATM    1  C   UNL     1      -7.433   9.055  67.179  1.00  0.00    -0.087 C  
HETATM    2  C   UNL     1      -8.179   9.319  68.478  1.00  0.00    -0.114 C  
ENDROOT
BRANCH   2   3
HETATM    3  C   UNL     1      -9.638   9.680  68.200  1.00  0.00    -0.159 C  
BRANCH   3   4
HETATM    4  C   UNL     1     -10.607   8.575  68.643  1.00  0.00    -0.154 C  
HETATM    5  C   UNL     1     -10.510   8.271  70.157  1.00  0.00    -0.225 C  
HETATM    6  C   UNL     1     -11.450   7.122  70.560  1.00  0.00    -0.295 C  
HETATM    7  C   UNL     1     -10.760   9.495  71.065  1.00  0.00    -0.411 C  
HETATM    8  C   UNL     1     -12.160  10.088  70.984  1.00  0.00    -0.469 C  
BRANCH   6   9
HETATM    9  O   UNL     1     -11.177   5.888  69.878  1.00  0.00    -0.378 OA 
BRANCH   9  10
HETATM   10  C   UNL     1      -9.999   5.293  70.188  1.00  0.00    -0.243 C  
HETATM   11  O   UNL     1      -9.596   5.031  71.308  1.00  0.00    -0.151 OA 
BRANCH  10  12
HETATM   12  C   UNL     1      -9.270   4.916  68.946  1.00  0.00    -0.164 A  
HETATM   13  C   UNL     1      -9.770   3.887  68.155  1.00  0.00    -0.124 A  
HETATM   14  C   UNL     1      -9.140   3.546  66.945  1.00  0.00    -0.184 A  
HETATM   15  C   UNL     1      -7.992   4.210  66.477  1.00  0.00    -0.098 A  
HETATM   16  C   UNL     1      -7.505   5.238  67.310  1.00  0.00    -0.084 A  
HETATM   17  C   UNL     1      -8.131   5.597  68.512  1.00  0.00    -0.103 A  
BRANCH  15  18
HETATM   18  N   UNL     1      -7.317   3.839  65.320  1.00  0.00    -0.068 NA 
HETATM   19  C   UNL     1      -8.055   3.472  64.109  1.00  0.00    -0.086 C  
HETATM   20  C   UNL     1      -5.965   3.287  65.375  1.00  0.00    -0.019 C  
ENDBRANCH  15  18
ENDBRANCH  10  12
ENDBRANCH   9  10
ENDBRANCH   6   9
ENDBRANCH   3   4
ENDBRANCH   2   3
TORSDOF 6
ENDMDL
MODEL      204
REMARK 921   NORMALIZED FREE ENERGY PREDICTED BY IDOCK:   -3.18 KCAL/MOL
REMARK 922        TOTAL FREE ENERGY PREDICTED BY IDOCK:   -4.88 KCAL/MOL
REMARK 923 INTER-LIGAND FREE ENERGY PREDICTED BY IDOCK:   -4.09 KCAL/MOL
REMARK 924 INTRA-LIGAND FREE ENERGY PREDICTED BY IDOCK:   -0.79 KCAL/MOL
REMARK 927      BINDING AFFINITY PREDICTED BY RF-SCORE:    0.00 PKD
ROOT
HETATM    1  C   UNL     1      -5.744  17.755  68.520  1.00  0.00    -0.168 C  
HETATM    2  C   UNL     1      -6.465  16.489  68.082  1.00  0.00    -0.141 C  
ENDROOT
BRANCH   2   3
HETATM    3  C   UNL     1      -7.484  16.055  69.134  1.00  0.00    -0.216 C  
BRANCH   3   4
HETATM    4  C   UNL     1      -7.512  14.532  69.326  1.00  0.00    -0.102 C  
HETATM    5  C   UNL     1      -6.095  13.915  69.387  1.00  0.00    -0.104 C  
HETATM    6  C   UNL     1      -6.155  12.383  69.522  1.00  0.00    -0.117 C  
HETATM    7  C   UNL     1      -5.197  14.502  70.497  1.00  0.00    -0.114 C  
HETATM    8  C   UNL     1      -5.677  14.253  71.921  1.00  0.00    -0.124 C  
BRANCH   6   9
HETATM    9  O   UNL     1      -6.834  11.736  68.434  1.00  0.00    -0.061 OA 
BRANCH   9  10
HETATM   10  C   UNL     1      -8.010  11.138  68.747  1.00  0.00    -0.144 C  
HETATM   11  O   UNL     1      -8.202  10.361  69.667  1.00  0.00    -0.155 OA 
BRANCH  10  12
HETATM   12  C   UNL     1      -9.091  11.624  67.846  1.00  0.00    -0.171 A  
HETATM   13  C   UNL     1     -10.371  11.800  68.361  1.00  0.00    -0.223 A  
HETATM   14  C   UNL     1     -11.401  12.315  67.553  1.00  0.00    -0.388 A  
HETATM   15  C   UNL     1     -11.199  12.671  66.207  1.00  0.00    -0.311 A  
HETATM   16  C   UNL     1      -9.894  12.466  65.716  1.00  0.00    -0.253 A  
HETATM   17  C   UNL     1      -8.855  11.967  66.514  1.00  0.00    -0.172 A  
BRANCH  15  18
HETATM   18  N   UNL     1     -12.222  13.113  65.377  1.00  0.00    -0.435 NA 
HETATM   19  C   UNL     1     -12.378  12.569  64.027  1.00  0.00    -0.469 C  
HETATM   20  C   UNL     1     -12.823  14.434  65.551  1.00  0.00    -0.225 C  
ENDBRANCH  15  18
ENDBRANCH  10  12
ENDBRANCH   9  10
ENDBRANCH   6   9
ENDBRANCH   3   4
ENDBRANCH   2   3
TORSDOF 6
ENDMDL
MODEL      205
REMARK 921   NORMALIZED FREE ENERGY PREDICTED BY IDOCK:   -3.14 KCAL/MOL
REMARK 922        TOTAL FREE ENERGY PREDICTED BY IDOCK:   -4.83 KCAL/MOL
REMARK 923 INTER-LIGAND FREE ENERGY PREDICTED BY IDOCK:   -4.86 KCAL/MOL
REMARK 924 INTRA-LIGAND FREE ENERGY PREDICTED BY IDOCK:    0.02 KCAL/MOL
REMARK 927      BINDING AFFINITY PREDICTED BY RF-SCORE:    0.00 PKD
ROOT
HETATM    1  C   UNL     1      -6.499  15.932  70.183  1.00  0.00     0.031 C  
HETATM    2  C   UNL     1      -6.545  16.984  69.085  1.00  0.00    -0.230 C  
ENDROOT
BRANCH   2   3
HETATM    3  C   UNL     1      -7.060  16.381  67.778  1.00  0.00    -0.151 C  
BRANCH   3   4
HETATM    4  C   UNL     1      -8.265  15.457  67.998  1.00  0.00    -0.146 C  
HETATM    5  C   UNL     1      -8.163  14.144  67.185  1.00  0.00    -0.166 C  
HETATM    6  C   UNL     1      -9.409  13.264  67.380  1.00  0.00    -0.217 C  
HETATM    7  C   UNL     1      -6.890  13.319  67.473  1.00  0.00    -0.155 C  
HETATM    8  C   UNL     1      -6.772  12.783  68.894  1.00  0.00    -0.097 C  
BRANCH   6   9
HETATM    9  O   UNL     1     -10.632  13.900  66.975  1.00  0.00    -0.276 OA 
BRANCH   9  10
HETATM   10  C   UNL     1     -11.537  13.099  66.360  1.00  0.00    -0.349 C  
HETATM   11  O   UNL     1     -12.517  13.466  65.735  1.00  0.00    -0.451 OA 
BRANCH  10  12
HETATM   12  C   UNL     1     -11.127  11.673  66.481  1.00  0.00    -0.357 A  
HETATM   13  C   UNL     1     -10.477  11.065  65.413  1.00  0.00    -0.306 A  
HETATM   14  C   UNL     1     -10.024   9.737  65.516  1.00  0.00    -0.329 A  
HETATM   15  C   UNL     1     -10.201   8.966  66.679  1.00  0.00    -0.268 A  
HETATM   16  C   UNL     1     -10.876   9.610  67.735  1.00  0.00    -0.278 A  
HETATM   17  C   UNL     1     -11.321  10.937  67.651  1.00  0.00    -0.345 A  
BRANCH  15  18
HETATM   18  N   UNL     1      -9.822   7.632  66.771  1.00  0.00    -0.225 NA 
HETATM   19  C   UNL     1      -8.618   7.148  66.094  1.00  0.00    -0.146 C  
HETATM   20  C   UNL     1     -10.801   6.584  67.050  1.00  0.00    -0.395 C  
ENDBRANCH  15  18
ENDBRANCH  10  12
ENDBRANCH   9  10
ENDBRANCH   6   9
ENDBRANCH   3   4
ENDBRANCH   2   3
TORSDOF 6
ENDMDL
MODEL      206
REMARK 921   NORMALIZED FREE ENERGY PREDICTED BY IDOCK:   -3.14 KCAL/MOL
REMARK 922        TOTAL FREE ENERGY PREDICTED BY IDOCK:   -4.83 KCAL/MOL
REMARK 923 INTER-LIGAND FREE ENERGY PREDICTED BY IDOCK:   -4.90 KCAL/MOL
REMARK 924 INTRA-LIGAND FREE ENERGY PREDICTED BY IDOCK:    0.07 KCAL/MOL
REMARK 927      BINDING AFFINITY PREDICTED BY RF-SCORE:    0.00 PKD
ROOT
HETATM    1  C   UNL     1      -8.379   7.867  69.900  1.00  0.00    -0.122 C  
HETATM    2  C   UNL     1      -6.908   8.032  69.551  1.00  0.00    -0.046 C  
ENDROOT
BRANCH   2   3
HETATM    3  C   UNL     1      -6.730   9.040  68.415  1.00  0.00    -0.060 C  
BRANCH   3   4
HETATM    4  C   UNL     1      -8.043   9.319  67.672  1.00  0.00    -0.104 C  
HETATM    5  C   UNL     1      -7.836  10.179  66.403  1.00  0.00    -0.114 C  
HETATM    6  C   UNL     1      -9.174  10.490  65.711  1.00  0.00    -0.182 C  
HETATM    7  C   UNL     1      -6.848   9.574  65.382  1.00  0.00    -0.086 C  
HETATM    8  C   UNL     1      -7.283   8.254  64.761  1.00  0.00    -0.082 C  
BRANCH   6   9
HETATM    9  O   UNL     1     -10.100  11.207  66.543  1.00  0.00    -0.210 OA 
BRANCH   9  10
HETATM   10  C   UNL     1     -10.804  10.454  67.424  1.00  0.00    -0.286 C  
HETATM   11  O   UNL     1     -10.997   9.252  67.353  1.00  0.00    -0.188 OA 
BRANCH  10  12
HETATM   12  C   UNL     1     -11.263  11.292  68.566  1.00  0.00    -0.311 A  
HETATM   13  C   UNL     1     -11.313  12.673  68.412  1.00  0.00    -0.329 A  
HETATM   14  C   UNL     1     -11.798  13.490  69.450  1.00  0.00    -0.389 A  
HETATM   15  C   UNL     1     -12.247  12.967  70.676  1.00  0.00    -0.307 A  
HETATM   16  C   UNL     1     -12.168  11.566  70.801  1.00  0.00    -0.463 A  
HETATM   17  C   UNL     1     -11.700  10.739  69.770  1.00  0.00    -0.399 A  
BRANCH  15  18
HETATM   18  N   UNL     1     -12.661  13.765  71.736  1.00  0.00    -0.310 NA 
HETATM   19  C   UNL     1     -13.964  13.550  72.369  1.00  0.00    -0.536 C  
HETATM   20  C   UNL     1     -12.133  15.115  71.920  1.00  0.00    -0.378 C  
ENDBRANCH  15  18
ENDBRANCH  10  12
ENDBRANCH   9  10
ENDBRANCH   6   9
ENDBRANCH   3   4
ENDBRANCH   2   3
TORSDOF 6
ENDMDL
MODEL      207
REMARK 921   NORMALIZED FREE ENERGY PREDICTED BY IDOCK:   -3.12 KCAL/MOL
REMARK 922        TOTAL FREE ENERGY PREDICTED BY IDOCK:   -4.80 KCAL/MOL
REMARK 923 INTER-LIGAND FREE ENERGY PREDICTED BY IDOCK:   -4.26 KCAL/MOL
REMARK 924 INTRA-LIGAND FREE ENERGY PREDICTED BY IDOCK:   -0.54 KCAL/MOL
REMARK 927      BINDING AFFINITY PREDICTED BY RF-SCORE:    0.00 PKD
ROOT
HETATM    1  C   UNL     1      -6.718   3.029  70.207  1.00  0.00    -0.033 C  
HETATM    2  C   UNL     1      -7.100   3.727  68.911  1.00  0.00    -0.050 C  
ENDROOT
BRANCH   2   3
HETATM    3  C   UNL     1      -7.075   5.245  69.085  1.00  0.00    -0.057 C  
BRANCH   3   4
HETATM    4  C   UNL     1      -8.195   5.941  68.300  1.00  0.00    -0.109 C  
HETATM    5  C   UNL     1      -7.653   6.868  67.186  1.00  0.00    -0.107 C  
HETATM    6  C   UNL     1      -8.795   7.595  66.455  1.00  0.00    -0.147 C  
HETATM    7  C   UNL     1      -6.744   6.158  66.160  1.00  0.00    -0.056 C  
HETATM    8  C   UNL     1      -7.423   5.080  65.326  1.00  0.00    -0.077 C  
BRANCH   6   9
HETATM    9  O   UNL     1      -9.597   8.418  67.316  1.00  0.00    -0.149 OA 
BRANCH   9  10
HETATM   10  C   UNL     1     -10.057   9.570  66.768  1.00  0.00    -0.245 C  
HETATM   11  O   UNL     1     -10.046   9.860  65.584  1.00  0.00    -0.289 OA 
BRANCH  10  12
HETATM   12  C   UNL     1     -10.666  10.432  67.817  1.00  0.00    -0.327 A  
HETATM   13  C   UNL     1     -11.185  11.671  67.456  1.00  0.00    -0.355 A  
HETATM   14  C   UNL     1     -11.821  12.484  68.412  1.00  0.00    -0.353 A  
HETATM   15  C   UNL     1     -11.963  12.100  69.757  1.00  0.00    -0.302 A  
HETATM   16  C   UNL     1     -11.413  10.846  70.090  1.00  0.00    -0.405 A  
HETATM   17  C   UNL     1     -10.789  10.020  69.145  1.00  0.00    -0.253 A  
BRANCH  15  18
HETATM   18  N   UNL     1     -12.525  12.922  70.727  1.00  0.00    -0.330 NA 
HETATM   19  C   UNL     1     -12.191  14.347  70.785  1.00  0.00    -0.343 C  
HETATM   20  C   UNL     1     -13.007  12.379  71.995  1.00  0.00    -0.271 C  
ENDBRANCH  15  18
ENDBRANCH  10  12
ENDBRANCH   9  10
ENDBRANCH   6   9
ENDBRANCH   3   4
ENDBRANCH   2   3
TORSDOF 6
ENDMDL
MODEL      208
REMARK 921   NORMALIZED FREE ENERGY PREDICTED BY IDOCK:   -3.10 KCAL/MOL
REMARK 922        TOTAL FREE ENERGY PREDICTED BY IDOCK:   -4.77 KCAL/MOL
REMARK 923 INTER-LIGAND FREE ENERGY PREDICTED BY IDOCK:   -3.57 KCAL/MOL
REMARK 924 INTRA-LIGAND FREE ENERGY PREDICTED BY IDOCK:   -1.21 KCAL/MOL
REMARK 927      BINDING AFFINITY PREDICTED BY RF-SCORE:    0.00 PKD
ROOT
HETATM    1  C   UNL     1     -11.125  11.328  66.492  1.00  0.00    -0.280 C  
HETATM    2  C   UNL     1     -10.617  10.358  67.547  1.00  0.00    -0.312 C  
ENDROOT
BRANCH   2   3
HETATM    3  C   UNL     1      -9.588   9.398  66.950  1.00  0.00    -0.217 C  
BRANCH   3   4
HETATM    4  C   UNL     1      -8.399  10.137  66.319  1.00  0.00    -0.130 C  
HETATM    5  C   UNL     1      -7.067   9.855  67.052  1.00  0.00    -0.089 C  
HETATM    6  C   UNL     1      -5.906  10.652  66.433  1.00  0.00    -0.092 C  
HETATM    7  C   UNL     1      -6.692   8.359  67.131  1.00  0.00    -0.063 C  
HETATM    8  C   UNL     1      -6.426   7.685  65.791  1.00  0.00    -0.042 C  
BRANCH   6   9
HETATM    9  O   UNL     1      -6.099  12.074  66.471  1.00  0.00    -0.158 OA 
BRANCH   9  10
HETATM   10  C   UNL     1      -6.010  12.648  67.696  1.00  0.00    -0.142 C  
HETATM   11  O   UNL     1      -5.135  12.453  68.522  1.00  0.00    -0.051 OA 
BRANCH  10  12
HETATM   12  C   UNL     1      -7.107  13.637  67.883  1.00  0.00    -0.151 A  
HETATM   13  C   UNL     1      -6.915  14.947  67.455  1.00  0.00    -0.203 A  
HETATM   14  C   UNL     1      -7.952  15.891  67.562  1.00  0.00    -0.166 A  
HETATM   15  C   UNL     1      -9.214  15.572  68.096  1.00  0.00    -0.189 A  
HETATM   16  C   UNL     1      -9.367  14.240  68.531  1.00  0.00    -0.200 A  
HETATM   17  C   UNL     1      -8.347  13.285  68.419  1.00  0.00    -0.131 A  
BRANCH  15  18
HETATM   18  N   UNL     1     -10.223  16.510  68.273  1.00  0.00    -0.256 NA 
HETATM   19  C   UNL     1     -11.534  16.111  68.790  1.00  0.00    -0.340 C  
HETATM   20  C   UNL     1     -10.249  17.751  67.501  1.00  0.00    -0.356 C  
ENDBRANCH  15  18
ENDBRANCH  10  12
ENDBRANCH   9  10
ENDBRANCH   6   9
ENDBRANCH   3   4
ENDBRANCH   2   3
TORSDOF 6
ENDMDL
MODEL      209
REMARK 921   NORMALIZED FREE ENERGY PREDICTED BY IDOCK:   -2.99 KCAL/MOL
REMARK 922        TOTAL FREE ENERGY PREDICTED BY IDOCK:   -4.62 KCAL/MOL
REMARK 923 INTER-LIGAND FREE ENERGY PREDICTED BY IDOCK:   -4.61 KCAL/MOL
REMARK 924 INTRA-LIGAND FREE ENERGY PREDICTED BY IDOCK:   -0.02 KCAL/MOL
REMARK 927      BINDING AFFINITY PREDICTED BY RF-SCORE:    0.00 PKD
ROOT
HETATM    1  C   UNL     1     -11.400  14.381  67.082  1.00  0.00    -0.356 C  
HETATM    2  C   UNL     1     -11.346  12.860  67.097  1.00  0.00    -0.352 C  
ENDROOT
BRANCH   2   3
HETATM    3  C   UNL     1     -11.890  12.312  68.416  1.00  0.00    -0.358 C  
BRANCH   3   4
HETATM    4  C   UNL     1     -11.504  10.844  68.641  1.00  0.00    -0.380 C  
HETATM    5  C   UNL     1     -11.052  10.564  70.094  1.00  0.00    -0.369 C  
HETATM    6  C   UNL     1     -10.617   9.100  70.275  1.00  0.00    -0.223 C  
HETATM    7  C   UNL     1     -12.101  10.935  71.165  1.00  0.00    -0.386 C  
HETATM    8  C   UNL     1     -13.395  10.133  71.111  1.00  0.00    -0.372 C  
BRANCH   6   9
HETATM    9  O   UNL     1      -9.524   8.715  69.427  1.00  0.00    -0.159 OA 
BRANCH   9  10
HETATM   10  C   UNL     1      -9.776   7.698  68.566  1.00  0.00    -0.158 C  
HETATM   11  O   UNL     1      -9.992   7.802  67.371  1.00  0.00    -0.162 OA 
BRANCH  10  12
HETATM   12  C   UNL     1      -9.676   6.391  69.271  1.00  0.00    -0.150 A  
HETATM   13  C   UNL     1      -9.360   6.376  70.625  1.00  0.00    -0.169 A  
HETATM   14  C   UNL     1      -9.317   5.163  71.335  1.00  0.00    -0.189 A  
HETATM   15  C   UNL     1      -9.583   3.922  70.728  1.00  0.00    -0.188 A  
HETATM   16  C   UNL     1      -9.885   3.974  69.353  1.00  0.00    -0.115 A  
HETATM   17  C   UNL     1      -9.945   5.177  68.636  1.00  0.00    -0.227 A  
BRANCH  15  18
HETATM   18  N   UNL     1      -9.475   2.709  71.399  1.00  0.00    -0.135 NA 
HETATM   19  C   UNL     1      -9.151   2.670  72.826  1.00  0.00    -0.081 C  
HETATM   20  C   UNL     1      -9.146   1.476  70.687  1.00  0.00    -0.079 C  
ENDBRANCH  15  18
ENDBRANCH  10  12
ENDBRANCH   9  10
ENDBRANCH   6   9
ENDBRANCH   3   4
ENDBRANCH   2   3
TORSDOF 6
ENDMDL
MODEL      210
REMARK 921   NORMALIZED FREE ENERGY PREDICTED BY IDOCK:   -2.95 KCAL/MOL
REMARK 922        TOTAL FREE ENERGY PREDICTED BY IDOCK:   -4.57 KCAL/MOL
REMARK 923 INTER-LIGAND FREE ENERGY PREDICTED BY IDOCK:   -4.47 KCAL/MOL
REMARK 924 INTRA-LIGAND FREE ENERGY PREDICTED BY IDOCK:   -0.11 KCAL/MOL
REMARK 927      BINDING AFFINITY PREDICTED BY RF-SCORE:    0.00 PKD
ROOT
HETATM    1  C   UNL     1      -6.727  19.528  69.675  1.00  0.00    -0.314 C  
HETATM    2  C   UNL     1      -7.023  20.088  68.292  1.00  0.00    -0.330 C  
ENDROOT
BRANCH   2   3
HETATM    3  C   UNL     1      -7.809  19.079  67.455  1.00  0.00    -0.263 C  
BRANCH   3   4
HETATM    4  C   UNL     1      -8.381  17.936  68.305  1.00  0.00    -0.286 C  
HETATM    5  C   UNL     1      -8.684  16.669  67.471  1.00  0.00    -0.198 C  
HETATM    6  C   UNL     1      -9.308  15.562  68.337  1.00  0.00    -0.192 C  
HETATM    7  C   UNL     1      -7.465  16.110  66.705  1.00  0.00    -0.246 C  
HETATM    8  C   UNL     1      -6.324  15.607  67.579  1.00  0.00    -0.181 C  
BRANCH   6   9
HETATM    9  O   UNL     1     -10.545  15.946  68.959  1.00  0.00    -0.220 OA 
BRANCH   9  10
HETATM   10  C   UNL     1     -11.616  15.168  68.669  1.00  0.00    -0.338 C  
HETATM   11  O   UNL     1     -12.775  15.392  68.976  1.00  0.00     0.181 OA 
BRANCH  10  12
HETATM   12  C   UNL     1     -11.199  14.008  67.835  1.00  0.00    -0.295 A  
HETATM   13  C   UNL     1     -10.987  12.778  68.448  1.00  0.00    -0.281 A  
HETATM   14  C   UNL     1     -10.650  11.647  67.681  1.00  0.00    -0.237 A  
HETATM   15  C   UNL     1     -10.510  11.697  66.282  1.00  0.00    -0.246 A  
HETATM   16  C   UNL     1     -10.718  12.962  65.698  1.00  0.00    -0.295 A  
HETATM   17  C   UNL     1     -11.068  14.093  66.448  1.00  0.00    -0.320 A  
BRANCH  15  18
HETATM   18  N   UNL     1     -10.109  10.606  65.520  1.00  0.00    -0.269 NA 
HETATM   19  C   UNL     1     -10.355   9.239  65.982  1.00  0.00     0.061 C  
HETATM   20  C   UNL     1      -9.012  10.714  64.560  1.00  0.00    -0.196 C  
ENDBRANCH  15  18
ENDBRANCH  10  12
ENDBRANCH   9  10
ENDBRANCH   6   9
ENDBRANCH   3   4
ENDBRANCH   2   3
TORSDOF 6
ENDMDL
MODEL      211
REMARK 921   NORMALIZED FREE ENERGY PREDICTED BY IDOCK:   -2.86 KCAL/MOL
REMARK 922        TOTAL FREE ENERGY PREDICTED BY IDOCK:   -4.45 KCAL/MOL
REMARK 923 INTER-LIGAND FREE ENERGY PREDICTED BY IDOCK:   -4.60 KCAL/MOL
REMARK 924 INTRA-LIGAND FREE ENERGY PREDICTED BY IDOCK:    0.15 KCAL/MOL
REMARK 927      BINDING AFFINITY PREDICTED BY RF-SCORE:    0.00 PKD
ROOT
HETATM    1  C   UNL     1      -5.664   7.432  66.398  1.00  0.00    -0.032 C  
HETATM    2  C   UNL     1      -6.275   7.003  67.723  1.00  0.00    -0.042 C  
ENDROOT
BRANCH   2   3
HETATM    3  C   UNL     1      -7.770   6.729  67.567  1.00  0.00    -0.110 C  
BRANCH   3   4
HETATM    4  C   UNL     1      -8.625   7.965  67.880  1.00  0.00    -0.125 C  
HETATM    5  C   UNL     1     -10.072   7.837  67.348  1.00  0.00    -0.288 C  
HETATM    6  C   UNL     1     -10.888   9.111  67.625  1.00  0.00    -0.089 C  
HETATM    7  C   UNL     1     -10.834   6.603  67.877  1.00  0.00    -0.353 C  
HETATM    8  C   UNL     1     -11.083   6.588  69.380  1.00  0.00    -0.407 C  
BRANCH   6   9
HETATM    9  O   UNL     1     -10.335  10.291  67.021  1.00  0.00    -0.219 OA 
BRANCH   9  10
HETATM   10  C   UNL     1      -9.636  11.105  67.851  1.00  0.00    -0.175 C  
HETATM   11  O   UNL     1      -8.436  11.318  67.812  1.00  0.00    -0.120 OA 
BRANCH  10  12
HETATM   12  C   UNL     1     -10.559  11.788  68.799  1.00  0.00    -0.234 A  
HETATM   13  C   UNL     1     -10.774  13.155  68.664  1.00  0.00    -0.274 A  
HETATM   14  C   UNL     1     -11.686  13.820  69.505  1.00  0.00    -0.380 A  
HETATM   15  C   UNL     1     -12.413  13.155  70.508  1.00  0.00    -0.248 A  
HETATM   16  C   UNL     1     -12.158  11.774  70.625  1.00  0.00    -0.407 A  
HETATM   17  C   UNL     1     -11.264  11.096  69.785  1.00  0.00    -0.318 A  
BRANCH  15  18
HETATM   18  N   UNL     1     -13.262  13.810  71.391  1.00  0.00    -0.327 NA 
HETATM   19  C   UNL     1     -13.887  15.083  71.024  1.00  0.00    -0.310 C  
HETATM   20  C   UNL     1     -13.168  13.596  72.834  1.00  0.00    -0.138 C  
ENDBRANCH  15  18
ENDBRANCH  10  12
ENDBRANCH   9  10
ENDBRANCH   6   9
ENDBRANCH   3   4
ENDBRANCH   2   3
TORSDOF 6
ENDMDL
MODEL      212
REMARK 921   NORMALIZED FREE ENERGY PREDICTED BY IDOCK:   -2.83 KCAL/MOL
REMARK 922        TOTAL FREE ENERGY PREDICTED BY IDOCK:   -4.41 KCAL/MOL
REMARK 923 INTER-LIGAND FREE ENERGY PREDICTED BY IDOCK:   -3.87 KCAL/MOL
REMARK 924 INTRA-LIGAND FREE ENERGY PREDICTED BY IDOCK:   -0.54 KCAL/MOL
REMARK 927      BINDING AFFINITY PREDICTED BY RF-SCORE:    0.00 PKD
ROOT
HETATM    1  C   UNL     1      -6.944   2.991  70.478  1.00  0.00    -0.033 C  
HETATM    2  C   UNL     1      -7.461   3.184  69.060  1.00  0.00    -0.048 C  
ENDROOT
BRANCH   2   3
HETATM    3  C   UNL     1      -6.917   4.479  68.457  1.00  0.00    -0.052 C  
BRANCH   3   4
HETATM    4  C   UNL     1      -7.963   5.209  67.602  1.00  0.00    -0.099 C  
HETATM    5  C   UNL     1      -7.514   5.380  66.132  1.00  0.00    -0.083 C  
HETATM    6  C   UNL     1      -8.555   6.163  65.314  1.00  0.00    -0.077 C  
HETATM    7  C   UNL     1      -7.176   4.054  65.416  1.00  0.00    -0.068 C  
HETATM    8  C   UNL     1      -8.344   3.092  65.245  1.00  0.00    -0.096 C  
BRANCH   6   9
HETATM    9  O   UNL     1      -8.808   7.483  65.819  1.00  0.00    -0.158 OA 
BRANCH   9  10
HETATM   10  C   UNL     1      -8.583   8.499  64.950  1.00  0.00    -0.108 C  
HETATM   11  O   UNL     1      -7.904   8.447  63.939  1.00  0.00    -0.135 OA 
BRANCH  10  12
HETATM   12  C   UNL     1      -9.357   9.705  65.356  1.00  0.00    -0.320 A  
HETATM   13  C   UNL     1      -9.332  10.106  66.687  1.00  0.00    -0.195 A  
HETATM   14  C   UNL     1     -10.003  11.274  67.094  1.00  0.00    -0.219 A  
HETATM   15  C   UNL     1     -10.723  12.083  66.196  1.00  0.00    -0.275 A  
HETATM   16  C   UNL     1     -10.738  11.638  64.859  1.00  0.00    -0.352 A  
HETATM   17  C   UNL     1     -10.063  10.484  64.438  1.00  0.00    -0.395 A  
BRANCH  15  18
HETATM   18  N   UNL     1     -11.449  13.199  66.594  1.00  0.00    -0.331 NA 
HETATM   19  C   UNL     1     -11.610  13.519  68.014  1.00  0.00    -0.337 C  
HETATM   20  C   UNL     1     -12.487  13.773  65.740  1.00  0.00    -0.485 C  
ENDBRANCH  15  18
ENDBRANCH  10  12
ENDBRANCH   9  10
ENDBRANCH   6   9
ENDBRANCH   3   4
ENDBRANCH   2   3
TORSDOF 6
ENDMDL
MODEL      213
REMARK 921   NORMALIZED FREE ENERGY PREDICTED BY IDOCK:   -2.81 KCAL/MOL
REMARK 922        TOTAL FREE ENERGY PREDICTED BY IDOCK:   -4.39 KCAL/MOL
REMARK 923 INTER-LIGAND FREE ENERGY PREDICTED BY IDOCK:   -3.10 KCAL/MOL
REMARK 924 INTRA-LIGAND FREE ENERGY PREDICTED BY IDOCK:   -1.29 KCAL/MOL
REMARK 927      BINDING AFFINITY PREDICTED BY RF-SCORE:    0.00 PKD
ROOT
HETATM    1  C   UNL     1     -10.939   9.724  69.547  1.00  0.00    -0.256 C  
HETATM    2  C   UNL     1     -10.485   8.662  70.537  1.00  0.00    -0.237 C  
ENDROOT
BRANCH   2   3
HETATM    3  C   UNL     1     -11.426   7.458  70.510  1.00  0.00    -0.281 C  
BRANCH   3   4
HETATM    4  C   UNL     1     -10.672   6.132  70.338  1.00  0.00    -0.347 C  
HETATM    5  C   UNL     1      -9.641   5.884  71.465  1.00  0.00    -0.175 C  
HETATM    6  C   UNL     1      -8.862   4.578  71.236  1.00  0.00    -0.121 C  
HETATM    7  C   UNL     1     -10.245   5.891  72.886  1.00  0.00    -0.212 C  
HETATM    8  C   UNL     1     -11.248   4.782  73.171  1.00  0.00    -0.390 C  
BRANCH   6   9
HETATM    9  O   UNL     1      -8.129   4.554  70.001  1.00  0.00    -0.066 OA 
BRANCH   9  10
HETATM   10  C   UNL     1      -7.114   5.447  69.901  1.00  0.00    -0.062 C  
HETATM   11  O   UNL     1      -6.130   5.504  70.619  1.00  0.00    -0.023 OA 
BRANCH  10  12
HETATM   12  C   UNL     1      -7.318   6.329  68.720  1.00  0.00    -0.086 A  
HETATM   13  C   UNL     1      -7.356   7.707  68.905  1.00  0.00    -0.090 A  
HETATM   14  C   UNL     1      -7.488   8.572  67.803  1.00  0.00    -0.097 A  
HETATM   15  C   UNL     1      -7.588   8.102  66.481  1.00  0.00    -0.092 A  
HETATM   16  C   UNL     1      -7.561   6.700  66.333  1.00  0.00    -0.090 A  
HETATM   17  C   UNL     1      -7.416   5.828  67.421  1.00  0.00    -0.081 A  
BRANCH  15  18
HETATM   18  N   UNL     1      -7.790   8.939  65.390  1.00  0.00    -0.098 NA 
HETATM   19  C   UNL     1      -8.182  10.337  65.582  1.00  0.00    -0.153 C  
HETATM   20  C   UNL     1      -8.147   8.403  64.079  1.00  0.00    -0.142 C  
ENDBRANCH  15  18
ENDBRANCH  10  12
ENDBRANCH   9  10
ENDBRANCH   6   9
ENDBRANCH   3   4
ENDBRANCH   2   3
TORSDOF 6
ENDMDL
MODEL      214
REMARK 921   NORMALIZED FREE ENERGY PREDICTED BY IDOCK:   -2.79 KCAL/MOL
REMARK 922        TOTAL FREE ENERGY PREDICTED BY IDOCK:   -4.35 KCAL/MOL
REMARK 923 INTER-LIGAND FREE ENERGY PREDICTED BY IDOCK:   -4.37 KCAL/MOL
REMARK 924 INTRA-LIGAND FREE ENERGY PREDICTED BY IDOCK:    0.02 KCAL/MOL
REMARK 927      BINDING AFFINITY PREDICTED BY RF-SCORE:    0.00 PKD
ROOT
HETATM    1  C   UNL     1      -6.490  15.836  70.017  1.00  0.00    -0.068 C  
HETATM    2  C   UNL     1      -6.691  16.630  68.735  1.00  0.00    -0.174 C  
ENDROOT
BRANCH   2   3
HETATM    3  C   UNL     1      -7.005  15.699  67.565  1.00  0.00    -0.218 C  
BRANCH   3   4
HETATM    4  C   UNL     1      -8.188  14.766  67.863  1.00  0.00    -0.154 C  
HETATM    5  C   UNL     1      -7.949  13.324  67.356  1.00  0.00    -0.175 C  
HETATM    6  C   UNL     1      -9.172  12.428  67.617  1.00  0.00    -0.185 C  
HETATM    7  C   UNL     1      -6.680  12.655  67.926  1.00  0.00    -0.109 C  
HETATM    8  C   UNL     1      -6.685  12.430  69.432  1.00  0.00    -0.032 C  
BRANCH   6   9
HETATM    9  O   UNL     1     -10.372  12.891  66.978  1.00  0.00    -0.240 OA 
BRANCH   9  10
HETATM   10  C   UNL     1     -11.319  11.948  66.748  1.00  0.00    -0.330 C  
HETATM   11  O   UNL     1     -12.155  11.967  65.861  1.00  0.00    -0.546 OA 
BRANCH  10  12
HETATM   12  C   UNL     1     -11.154  10.812  67.696  1.00  0.00    -0.384 A  
HETATM   13  C   UNL     1     -10.273   9.786  67.374  1.00  0.00    -0.284 A  
HETATM   14  C   UNL     1     -10.049   8.728  68.274  1.00  0.00    -0.220 A  
HETATM   15  C   UNL     1     -10.692   8.650  69.523  1.00  0.00    -0.182 A  
HETATM   16  C   UNL     1     -11.588   9.699  69.809  1.00  0.00    -0.022 A  
HETATM   17  C   UNL     1     -11.810  10.766  68.928  1.00  0.00    -0.287 A  
BRANCH  15  18
HETATM   18  N   UNL     1     -10.535   7.576  70.392  1.00  0.00    -0.218 NA 
HETATM   19  C   UNL     1      -9.243   6.900  70.520  1.00  0.00    -0.156 C  
HETATM   20  C   UNL     1     -11.673   6.750  70.789  1.00  0.00    -0.386 C  
ENDBRANCH  15  18
ENDBRANCH  10  12
ENDBRANCH   9  10
ENDBRANCH   6   9
ENDBRANCH   3   4
ENDBRANCH   2   3
TORSDOF 6
ENDMDL
MODEL      215
REMARK 921   NORMALIZED FREE ENERGY PREDICTED BY IDOCK:   -2.78 KCAL/MOL
REMARK 922        TOTAL FREE ENERGY PREDICTED BY IDOCK:   -4.35 KCAL/MOL
REMARK 923 INTER-LIGAND FREE ENERGY PREDICTED BY IDOCK:   -3.29 KCAL/MOL
REMARK 924 INTRA-LIGAND FREE ENERGY PREDICTED BY IDOCK:   -1.06 KCAL/MOL
REMARK 927      BINDING AFFINITY PREDICTED BY RF-SCORE:    0.00 PKD
ROOT
HETATM    1  C   UNL     1     -11.858   6.983  70.951  1.00  0.00    -0.401 C  
HETATM    2  C   UNL     1     -11.259   6.167  69.815  1.00  0.00    -0.494 C  
ENDROOT
BRANCH   2   3
HETATM    3  C   UNL     1     -10.877   7.069  68.642  1.00  0.00    -0.191 C  
BRANCH   3   4
HETATM    4  C   UNL     1      -9.736   8.032  68.994  1.00  0.00    -0.159 C  
HETATM    5  C   UNL     1      -9.949   9.447  68.405  1.00  0.00    -0.191 C  
HETATM    6  C   UNL     1      -8.764  10.373  68.725  1.00  0.00    -0.146 C  
HETATM    7  C   UNL     1     -11.270  10.119  68.837  1.00  0.00    -0.220 C  
HETATM    8  C   UNL     1     -11.394  10.411  70.326  1.00  0.00    -0.406 C  
BRANCH   6   9
HETATM    9  O   UNL     1      -7.509   9.902  68.210  1.00  0.00    -0.079 OA 
BRANCH   9  10
HETATM   10  C   UNL     1      -7.382   9.923  66.860  1.00  0.00    -0.091 C  
HETATM   11  O   UNL     1      -7.189  10.908  66.168  1.00  0.00    -0.139 OA 
BRANCH  10  12
HETATM   12  C   UNL     1      -7.433   8.537  66.317  1.00  0.00    -0.090 A  
HETATM   13  C   UNL     1      -7.976   8.327  65.054  1.00  0.00    -0.141 A  
HETATM   14  C   UNL     1      -7.985   7.040  64.486  1.00  0.00    -0.104 A  
HETATM   15  C   UNL     1      -7.460   5.917  65.151  1.00  0.00    -0.079 A  
HETATM   16  C   UNL     1      -6.932   6.165  66.434  1.00  0.00    -0.067 A  
HETATM   17  C   UNL     1      -6.904   7.445  67.005  1.00  0.00    -0.074 A  
BRANCH  15  18
HETATM   18  N   UNL     1      -7.525   4.629  64.634  1.00  0.00    -0.071 NA 
HETATM   19  C   UNL     1      -6.305   3.906  64.270  1.00  0.00    -0.026 C  
HETATM   20  C   UNL     1      -8.722   4.148  63.946  1.00  0.00    -0.119 C  
ENDBRANCH  15  18
ENDBRANCH  10  12
ENDBRANCH   9  10
ENDBRANCH   6   9
ENDBRANCH   3   4
ENDBRANCH   2   3
TORSDOF 6
ENDMDL
MODEL      216
REMARK 921   NORMALIZED FREE ENERGY PREDICTED BY IDOCK:   -2.75 KCAL/MOL
REMARK 922        TOTAL FREE ENERGY PREDICTED BY IDOCK:   -4.31 KCAL/MOL
REMARK 923 INTER-LIGAND FREE ENERGY PREDICTED BY IDOCK:   -3.31 KCAL/MOL
REMARK 924 INTRA-LIGAND FREE ENERGY PREDICTED BY IDOCK:   -1.00 KCAL/MOL
REMARK 927      BINDING AFFINITY PREDICTED BY RF-SCORE:    0.00 PKD
ROOT
HETATM    1  C   UNL     1     -10.022   5.276  67.643  1.00  0.00    -0.202 C  
HETATM    2  C   UNL     1     -10.862   6.363  66.990  1.00  0.00    -0.464 C  
ENDROOT
BRANCH   2   3
HETATM    3  C   UNL     1     -10.132   7.706  67.024  1.00  0.00    -0.338 C  
BRANCH   3   4
HETATM    4  C   UNL     1     -10.173   8.356  68.414  1.00  0.00    -0.239 C  
HETATM    5  C   UNL     1      -8.858   9.092  68.765  1.00  0.00    -0.137 C  
HETATM    6  C   UNL     1      -8.907   9.684  70.184  1.00  0.00    -0.231 C  
HETATM    7  C   UNL     1      -8.458  10.188  67.754  1.00  0.00    -0.114 C  
HETATM    8  C   UNL     1      -9.421  11.362  67.654  1.00  0.00    -0.165 C  
BRANCH   6   9
HETATM    9  O   UNL     1      -9.112   8.701  71.211  1.00  0.00    -0.171 OA 
BRANCH   9  10
HETATM   10  C   UNL     1      -8.005   8.027  71.609  1.00  0.00    -0.112 C  
HETATM   11  O   UNL     1      -6.880   8.486  71.715  1.00  0.00    -0.075 OA 
BRANCH  10  12
HETATM   12  C   UNL     1      -8.360   6.632  71.988  1.00  0.00    -0.106 A  
HETATM   13  C   UNL     1      -7.961   6.147  73.229  1.00  0.00    -0.103 A  
HETATM   14  C   UNL     1      -8.331   4.855  73.644  1.00  0.00    -0.106 A  
HETATM   15  C   UNL     1      -9.107   3.998  72.842  1.00  0.00    -0.107 A  
HETATM   16  C   UNL     1      -9.481   4.517  71.587  1.00  0.00    -0.210 A  
HETATM   17  C   UNL     1      -9.131   5.808  71.167  1.00  0.00    -0.157 A  
BRANCH  15  18
HETATM   18  N   UNL     1      -9.421   2.694  73.207  1.00  0.00    -0.088 NA 
HETATM   19  C   UNL     1      -8.899   2.119  74.449  1.00  0.00    -0.065 C  
HETATM   20  C   UNL     1      -9.793   1.696  72.207  1.00  0.00    -0.116 C  
ENDBRANCH  15  18
ENDBRANCH  10  12
ENDBRANCH   9  10
ENDBRANCH   6   9
ENDBRANCH   3   4
ENDBRANCH   2   3
TORSDOF 6
ENDMDL
MODEL      217
REMARK 921   NORMALIZED FREE ENERGY PREDICTED BY IDOCK:   -2.73 KCAL/MOL
REMARK 922        TOTAL FREE ENERGY PREDICTED BY IDOCK:   -4.28 KCAL/MOL
REMARK 923 INTER-LIGAND FREE ENERGY PREDICTED BY IDOCK:   -4.05 KCAL/MOL
REMARK 924 INTRA-LIGAND FREE ENERGY PREDICTED BY IDOCK:   -0.23 KCAL/MOL
REMARK 927      BINDING AFFINITY PREDICTED BY RF-SCORE:    0.00 PKD
ROOT
HETATM    1  C   UNL     1     -13.032  15.222  72.354  1.00  0.00    -0.473 C  
HETATM    2  C   UNL     1     -12.933  14.273  71.169  1.00  0.00    -0.423 C  
ENDROOT
BRANCH   2   3
HETATM    3  C   UNL     1     -13.059  12.820  71.626  1.00  0.00    -0.428 C  
BRANCH   3   4
HETATM    4  C   UNL     1     -12.559  11.829  70.566  1.00  0.00    -0.234 C  
HETATM    5  C   UNL     1     -11.819  10.620  71.186  1.00  0.00    -0.339 C  
HETATM    6  C   UNL     1     -11.280   9.674  70.099  1.00  0.00    -0.256 C  
HETATM    7  C   UNL     1     -12.659   9.820  72.205  1.00  0.00    -0.264 C  
HETATM    8  C   UNL     1     -13.894   9.135  71.635  1.00  0.00    -0.396 C  
BRANCH   6   9
HETATM    9  O   UNL     1     -10.353  10.302  69.199  1.00  0.00    -0.196 OA 
BRANCH   9  10
HETATM   10  C   UNL     1     -10.314   9.790  67.943  1.00  0.00    -0.213 C  
HETATM   11  O   UNL     1     -11.096  10.034  67.040  1.00  0.00    -0.139 OA 
BRANCH  10  12
HETATM   12  C   UNL     1      -9.113   8.926  67.777  1.00  0.00    -0.143 A  
HETATM   13  C   UNL     1      -8.858   7.937  68.721  1.00  0.00    -0.138 A  
HETATM   14  C   UNL     1      -7.766   7.064  68.562  1.00  0.00    -0.120 A  
HETATM   15  C   UNL     1      -6.889   7.142  67.466  1.00  0.00    -0.070 A  
HETATM   16  C   UNL     1      -7.170   8.166  66.538  1.00  0.00    -0.080 A  
HETATM   17  C   UNL     1      -8.262   9.033  66.676  1.00  0.00    -0.118 A  
BRANCH  15  18
HETATM   18  N   UNL     1      -5.766   6.334  67.332  1.00  0.00    -0.012 NA 
HETATM   19  C   UNL     1      -5.408   5.760  66.033  1.00  0.00    -0.009 C  
HETATM   20  C   UNL     1      -5.222   5.598  68.471  1.00  0.00    -0.003 C  
ENDBRANCH  15  18
ENDBRANCH  10  12
ENDBRANCH   9  10
ENDBRANCH   6   9
ENDBRANCH   3   4
ENDBRANCH   2   3
TORSDOF 6
ENDMDL
MODEL      218
REMARK 921   NORMALIZED FREE ENERGY PREDICTED BY IDOCK:   -2.72 KCAL/MOL
REMARK 922        TOTAL FREE ENERGY PREDICTED BY IDOCK:   -4.26 KCAL/MOL
REMARK 923 INTER-LIGAND FREE ENERGY PREDICTED BY IDOCK:   -3.26 KCAL/MOL
REMARK 924 INTRA-LIGAND FREE ENERGY PREDICTED BY IDOCK:   -1.00 KCAL/MOL
REMARK 927      BINDING AFFINITY PREDICTED BY RF-SCORE:    0.00 PKD
ROOT
HETATM    1  C   UNL     1     -11.658   6.307  69.688  1.00  0.00    -0.287 C  
HETATM    2  C   UNL     1     -10.159   6.484  69.496  1.00  0.00    -0.203 C  
ENDROOT
BRANCH   2   3
HETATM    3  C   UNL     1      -9.528   7.138  70.724  1.00  0.00    -0.164 C  
BRANCH   3   4
HETATM    4  C   UNL     1      -8.059   7.517  70.494  1.00  0.00    -0.106 C  
HETATM    5  C   UNL     1      -7.509   8.458  71.592  1.00  0.00    -0.118 C  
HETATM    6  C   UNL     1      -6.054   8.866  71.305  1.00  0.00    -0.057 C  
HETATM    7  C   UNL     1      -7.620   7.892  73.024  1.00  0.00    -0.154 C  
HETATM    8  C   UNL     1      -6.802   6.636  73.291  1.00  0.00    -0.076 C  
BRANCH   6   9
HETATM    9  O   UNL     1      -5.886   9.555  70.056  1.00  0.00    -0.034 OA 
BRANCH   9  10
HETATM   10  C   UNL     1      -6.398  10.809  70.001  1.00  0.00    -0.137 C  
HETATM   11  O   UNL     1      -6.096  11.744  70.723  1.00  0.00    -0.337 OA 
BRANCH  10  12
HETATM   12  C   UNL     1      -7.351  10.926  68.863  1.00  0.00    -0.111 A  
HETATM   13  C   UNL     1      -8.707  11.085  69.131  1.00  0.00    -0.002 A  
HETATM   14  C   UNL     1      -9.626  11.259  68.081  1.00  0.00    -0.186 A  
HETATM   15  C   UNL     1      -9.236  11.279  66.730  1.00  0.00    -0.175 A  
HETATM   16  C   UNL     1      -7.857  11.101  66.496  1.00  0.00    -0.151 A  
HETATM   17  C   UNL     1      -6.929  10.941  67.533  1.00  0.00    -0.084 A  
BRANCH  15  18
HETATM   18  N   UNL     1     -10.140  11.379  65.679  1.00  0.00    -0.237 NA 
HETATM   19  C   UNL     1     -11.415  12.077  65.854  1.00  0.00    -0.333 C  
HETATM   20  C   UNL     1     -10.146  10.405  64.590  1.00  0.00    -0.308 C  
ENDBRANCH  15  18
ENDBRANCH  10  12
ENDBRANCH   9  10
ENDBRANCH   6   9
ENDBRANCH   3   4
ENDBRANCH   2   3
TORSDOF 6
ENDMDL
MODEL      219
REMARK 921   NORMALIZED FREE ENERGY PREDICTED BY IDOCK:   -2.67 KCAL/MOL
REMARK 922        TOTAL FREE ENERGY PREDICTED BY IDOCK:   -4.20 KCAL/MOL
REMARK 923 INTER-LIGAND FREE ENERGY PREDICTED BY IDOCK:   -3.75 KCAL/MOL
REMARK 924 INTRA-LIGAND FREE ENERGY PREDICTED BY IDOCK:   -0.44 KCAL/MOL
REMARK 927      BINDING AFFINITY PREDICTED BY RF-SCORE:    0.00 PKD
ROOT
HETATM    1  C   UNL     1     -11.642  14.904  67.282  1.00  0.00    -0.337 C  
HETATM    2  C   UNL     1     -11.663  13.384  67.218  1.00  0.00    -0.424 C  
ENDROOT
BRANCH   2   3
HETATM    3  C   UNL     1     -12.057  12.790  68.570  1.00  0.00    -0.142 C  
BRANCH   3   4
HETATM    4  C   UNL     1     -11.494  11.377  68.773  1.00  0.00    -0.354 C  
HETATM    5  C   UNL     1     -11.245  11.044  70.263  1.00  0.00    -0.199 C  
HETATM    6  C   UNL     1     -10.628   9.645  70.431  1.00  0.00    -0.295 C  
HETATM    7  C   UNL     1     -12.497  11.174  71.157  1.00  0.00    -0.498 C  
HETATM    8  C   UNL     1     -13.628  10.207  70.836  1.00  0.00    -0.012 C  
BRANCH   6   9
HETATM    9  O   UNL     1      -9.366   9.489  69.762  1.00  0.00    -0.181 OA 
BRANCH   9  10
HETATM   10  C   UNL     1      -8.384   8.902  70.489  1.00  0.00    -0.159 C  
HETATM   11  O   UNL     1      -7.729   9.427  71.373  1.00  0.00    -0.334 OA 
BRANCH  10  12
HETATM   12  C   UNL     1      -8.253   7.467  70.114  1.00  0.00    -0.133 A  
HETATM   13  C   UNL     1      -7.536   7.131  68.971  1.00  0.00    -0.094 A  
HETATM   14  C   UNL     1      -7.342   5.782  68.620  1.00  0.00    -0.084 A  
HETATM   15  C   UNL     1      -7.855   4.721  69.388  1.00  0.00    -0.063 A  
HETATM   16  C   UNL     1      -8.588   5.099  70.530  1.00  0.00    -0.126 A  
HETATM   17  C   UNL     1      -8.777   6.438  70.899  1.00  0.00    -0.136 A  
BRANCH  15  18
HETATM   18  N   UNL     1      -7.733   3.387  69.016  1.00  0.00    -0.051 NA 
HETATM   19  C   UNL     1      -6.420   2.740  68.971  1.00  0.00    -0.029 C  
HETATM   20  C   UNL     1      -8.737   2.740  68.175  1.00  0.00    -0.103 C  
ENDBRANCH  15  18
ENDBRANCH  10  12
ENDBRANCH   9  10
ENDBRANCH   6   9
ENDBRANCH   3   4
ENDBRANCH   2   3
TORSDOF 6
ENDMDL
MODEL      220
REMARK 921   NORMALIZED FREE ENERGY PREDICTED BY IDOCK:   -2.65 KCAL/MOL
REMARK 922        TOTAL FREE ENERGY PREDICTED BY IDOCK:   -4.17 KCAL/MOL
REMARK 923 INTER-LIGAND FREE ENERGY PREDICTED BY IDOCK:   -3.60 KCAL/MOL
REMARK 924 INTRA-LIGAND FREE ENERGY PREDICTED BY IDOCK:   -0.57 KCAL/MOL
REMARK 927      BINDING AFFINITY PREDICTED BY RF-SCORE:    0.00 PKD
ROOT
HETATM    1  C   UNL     1     -11.253  14.458  65.557  1.00  0.00    -0.330 C  
HETATM    2  C   UNL     1      -9.862  14.660  66.139  1.00  0.00    -0.334 C  
ENDROOT
BRANCH   2   3
HETATM    3  C   UNL     1      -9.941  14.976  67.632  1.00  0.00    -0.225 C  
BRANCH   3   4
HETATM    4  C   UNL     1      -8.625  14.675  68.363  1.00  0.00    -0.169 C  
HETATM    5  C   UNL     1      -7.383  14.896  67.467  1.00  0.00    -0.229 C  
HETATM    6  C   UNL     1      -6.085  14.531  68.206  1.00  0.00    -0.118 C  
HETATM    7  C   UNL     1      -7.271  16.321  66.883  1.00  0.00    -0.257 C  
HETATM    8  C   UNL     1      -7.081  17.430  67.909  1.00  0.00    -0.178 C  
BRANCH   6   9
HETATM    9  O   UNL     1      -6.035  13.163  68.642  1.00  0.00    -0.069 OA 
BRANCH   9  10
HETATM   10  C   UNL     1      -6.037  12.232  67.657  1.00  0.00    -0.120 C  
HETATM   11  O   UNL     1      -5.392  12.273  66.623  1.00  0.00    -0.333 OA 
BRANCH  10  12
HETATM   12  C   UNL     1      -6.895  11.077  68.042  1.00  0.00    -0.067 A  
HETATM   13  C   UNL     1      -7.316  10.960  69.363  1.00  0.00    -0.116 A  
HETATM   14  C   UNL     1      -8.175   9.915  69.748  1.00  0.00    -0.191 A  
HETATM   15  C   UNL     1      -8.645   8.950  68.840  1.00  0.00    -0.135 A  
HETATM   16  C   UNL     1      -8.187   9.091  67.514  1.00  0.00    -0.109 A  
HETATM   17  C   UNL     1      -7.342  10.135  67.114  1.00  0.00    -0.091 A  
BRANCH  15  18
HETATM   18  N   UNL     1      -9.437   7.872  69.219  1.00  0.00    -0.152 NA 
HETATM   19  C   UNL     1     -10.684   8.083  69.957  1.00  0.00    -0.244 C  
HETATM   20  C   UNL     1      -8.867   6.538  69.395  1.00  0.00    -0.133 C  
ENDBRANCH  15  18
ENDBRANCH  10  12
ENDBRANCH   9  10
ENDBRANCH   6   9
ENDBRANCH   3   4
ENDBRANCH   2   3
TORSDOF 6
ENDMDL
MODEL      221
REMARK 921   NORMALIZED FREE ENERGY PREDICTED BY IDOCK:   -2.61 KCAL/MOL
REMARK 922        TOTAL FREE ENERGY PREDICTED BY IDOCK:   -4.11 KCAL/MOL
REMARK 923 INTER-LIGAND FREE ENERGY PREDICTED BY IDOCK:   -3.65 KCAL/MOL
REMARK 924 INTRA-LIGAND FREE ENERGY PREDICTED BY IDOCK:   -0.47 KCAL/MOL
REMARK 927      BINDING AFFINITY PREDICTED BY RF-SCORE:    0.00 PKD
ROOT
HETATM    1  C   UNL     1     -10.977  14.924  66.258  1.00  0.00    -0.338 C  
HETATM    2  C   UNL     1     -10.978  13.405  66.165  1.00  0.00    -0.285 C  
ENDROOT
BRANCH   2   3
HETATM    3  C   UNL     1     -11.693  12.789  67.366  1.00  0.00    -0.425 C  
BRANCH   3   4
HETATM    4  C   UNL     1     -11.296  11.323  67.593  1.00  0.00    -0.352 C  
HETATM    5  C   UNL     1     -10.609  11.099  68.961  1.00  0.00    -0.251 C  
HETATM    6  C   UNL     1     -10.172   9.634  69.135  1.00  0.00    -0.202 C  
HETATM    7  C   UNL     1     -11.455  11.540  70.174  1.00  0.00    -0.258 C  
HETATM    8  C   UNL     1     -12.751  10.767  70.378  1.00  0.00    -0.346 C  
BRANCH   6   9
HETATM    9  O   UNL     1      -9.244   9.187  68.134  1.00  0.00    -0.132 OA 
BRANCH   9  10
HETATM   10  C   UNL     1      -9.586   8.049  67.481  1.00  0.00    -0.153 C  
HETATM   11  O   UNL     1     -10.520   7.914  66.708  1.00  0.00    -0.327 OA 
BRANCH  10  12
HETATM   12  C   UNL     1      -8.602   6.972  67.774  1.00  0.00    -0.122 A  
HETATM   13  C   UNL     1      -8.089   6.221  66.721  1.00  0.00    -0.109 A  
HETATM   14  C   UNL     1      -7.112   5.236  66.956  1.00  0.00    -0.070 A  
HETATM   15  C   UNL     1      -6.612   4.959  68.241  1.00  0.00    -0.045 A  
HETATM   16  C   UNL     1      -7.165   5.729  69.285  1.00  0.00    -0.066 A  
HETATM   17  C   UNL     1      -8.128   6.723  69.063  1.00  0.00    -0.117 A  
BRANCH  15  18
HETATM   18  N   UNL     1      -5.701   3.942  68.499  1.00  0.00    -0.021 NA 
HETATM   19  C   UNL     1      -5.268   3.037  67.432  1.00  0.00    -0.009 C  
HETATM   20  C   UNL     1      -5.545   3.385  69.841  1.00  0.00    -0.017 C  
ENDBRANCH  15  18
ENDBRANCH  10  12
ENDBRANCH   9  10
ENDBRANCH   6   9
ENDBRANCH   3   4
ENDBRANCH   2   3
TORSDOF 6
ENDMDL
MODEL      222
REMARK 921   NORMALIZED FREE ENERGY PREDICTED BY IDOCK:   -2.50 KCAL/MOL
REMARK 922        TOTAL FREE ENERGY PREDICTED BY IDOCK:   -3.97 KCAL/MOL
REMARK 923 INTER-LIGAND FREE ENERGY PREDICTED BY IDOCK:   -3.37 KCAL/MOL
REMARK 924 INTRA-LIGAND FREE ENERGY PREDICTED BY IDOCK:   -0.60 KCAL/MOL
REMARK 927      BINDING AFFINITY PREDICTED BY RF-SCORE:    0.00 PKD
ROOT
HETATM    1  C   UNL     1      -6.115  10.193  63.751  1.00  0.00    -0.138 C  
HETATM    2  C   UNL     1      -7.452   9.936  64.431  1.00  0.00    -0.137 C  
ENDROOT
BRANCH   2   3
HETATM    3  C   UNL     1      -7.916   8.501  64.185  1.00  0.00    -0.150 C  
BRANCH   3   4
HETATM    4  C   UNL     1      -8.436   7.829  65.463  1.00  0.00    -0.146 C  
HETATM    5  C   UNL     1      -7.608   6.584  65.860  1.00  0.00    -0.087 C  
HETATM    6  C   UNL     1      -8.186   5.899  67.110  1.00  0.00    -0.105 C  
HETATM    7  C   UNL     1      -6.104   6.865  66.065  1.00  0.00    -0.035 C  
HETATM    8  C   UNL     1      -5.770   7.805  67.216  1.00  0.00    -0.037 C  
BRANCH   6   9
HETATM    9  O   UNL     1      -9.541   5.452  66.947  1.00  0.00    -0.127 OA 
BRANCH   9  10
HETATM   10  C   UNL     1     -10.490   6.225  67.528  1.00  0.00    -0.236 C  
HETATM   11  O   UNL     1     -11.477   6.688  66.982  1.00  0.00    -0.233 OA 
BRANCH  10  12
HETATM   12  C   UNL     1     -10.209   6.380  68.982  1.00  0.00    -0.216 A  
HETATM   13  C   UNL     1      -9.767   7.610  69.456  1.00  0.00    -0.168 A  
HETATM   14  C   UNL     1      -9.550   7.808  70.832  1.00  0.00    -0.173 A  
HETATM   15  C   UNL     1      -9.760   6.794  71.784  1.00  0.00    -0.160 A  
HETATM   16  C   UNL     1     -10.193   5.557  71.265  1.00  0.00    -0.283 A  
HETATM   17  C   UNL     1     -10.427   5.351  69.899  1.00  0.00    -0.378 A  
BRANCH  15  18
HETATM   18  N   UNL     1      -9.482   6.952  73.137  1.00  0.00    -0.144 NA 
HETATM   19  C   UNL     1      -8.608   8.031  73.599  1.00  0.00    -0.260 C  
HETATM   20  C   UNL     1      -9.569   5.827  74.065  1.00  0.00    -0.153 C  
ENDBRANCH  15  18
ENDBRANCH  10  12
ENDBRANCH   9  10
ENDBRANCH   6   9
ENDBRANCH   3   4
ENDBRANCH   2   3
TORSDOF 6
ENDMDL
MODEL      223
REMARK 921   NORMALIZED FREE ENERGY PREDICTED BY IDOCK:   -2.49 KCAL/MOL
REMARK 922        TOTAL FREE ENERGY PREDICTED BY IDOCK:   -3.95 KCAL/MOL
REMARK 923 INTER-LIGAND FREE ENERGY PREDICTED BY IDOCK:   -3.34 KCAL/MOL
REMARK 924 INTRA-LIGAND FREE ENERGY PREDICTED BY IDOCK:   -0.61 KCAL/MOL
REMARK 927      BINDING AFFINITY PREDICTED BY RF-SCORE:    0.00 PKD
ROOT
HETATM    1  C   UNL     1     -10.814   9.372  69.528  1.00  0.00    -0.231 C  
HETATM    2  C   UNL     1     -10.296   8.263  70.432  1.00  0.00    -0.214 C  
ENDROOT
BRANCH   2   3
HETATM    3  C   UNL     1     -11.446   7.390  70.932  1.00  0.00    -0.311 C  
BRANCH   3   4
HETATM    4  C   UNL     1     -11.238   5.906  70.602  1.00  0.00    -0.284 C  
HETATM    5  C   UNL     1     -10.043   5.288  71.368  1.00  0.00    -0.266 C  
HETATM    6  C   UNL     1      -9.824   3.818  70.974  1.00  0.00    -0.134 C  
HETATM    7  C   UNL     1     -10.146   5.410  72.903  1.00  0.00    -0.204 C  
HETATM    8  C   UNL     1     -11.308   4.658  73.538  1.00  0.00    -0.353 C  
BRANCH   6   9
HETATM    9  O   UNL     1      -9.553   3.630  69.577  1.00  0.00    -0.185 OA 
BRANCH   9  10
HETATM   10  C   UNL     1      -8.368   4.119  69.136  1.00  0.00    -0.073 C  
HETATM   11  O   UNL     1      -7.368   4.303  69.809  1.00  0.00    -0.049 OA 
BRANCH  10  12
HETATM   12  C   UNL     1      -8.417   4.339  67.664  1.00  0.00    -0.101 A  
HETATM   13  C   UNL     1      -7.726   5.416  67.119  1.00  0.00    -0.096 A  
HETATM   14  C   UNL     1      -7.702   5.617  65.726  1.00  0.00    -0.088 A  
HETATM   15  C   UNL     1      -8.363   4.760  64.828  1.00  0.00    -0.132 A  
HETATM   16  C   UNL     1      -9.064   3.689  65.417  1.00  0.00    -0.147 A  
HETATM   17  C   UNL     1      -9.085   3.469  66.801  1.00  0.00    -0.179 A  
BRANCH  15  18
HETATM   18  N   UNL     1      -8.408   4.986  63.457  1.00  0.00    -0.120 NA 
HETATM   19  C   UNL     1      -7.686   6.112  62.860  1.00  0.00    -0.091 C  
HETATM   20  C   UNL     1      -9.525   4.507  62.646  1.00  0.00    -0.084 C  
ENDBRANCH  15  18
ENDBRANCH  10  12
ENDBRANCH   9  10
ENDBRANCH   6   9
ENDBRANCH   3   4
ENDBRANCH   2   3
TORSDOF 6
ENDMDL
MODEL      224
REMARK 921   NORMALIZED FREE ENERGY PREDICTED BY IDOCK:   -2.48 KCAL/MOL
REMARK 922        TOTAL FREE ENERGY PREDICTED BY IDOCK:   -3.94 KCAL/MOL
REMARK 923 INTER-LIGAND FREE ENERGY PREDICTED BY IDOCK:   -3.52 KCAL/MOL
REMARK 924 INTRA-LIGAND FREE ENERGY PREDICTED BY IDOCK:   -0.42 KCAL/MOL
REMARK 927      BINDING AFFINITY PREDICTED BY RF-SCORE:    0.00 PKD
ROOT
HETATM    1  C   UNL     1      -6.432   4.520  69.990  1.00  0.00    -0.032 C  
HETATM    2  C   UNL     1      -7.285   4.874  68.781  1.00  0.00    -0.057 C  
ENDROOT
BRANCH   2   3
HETATM    3  C   UNL     1      -6.989   6.296  68.307  1.00  0.00    -0.080 C  
BRANCH   3   4
HETATM    4  C   UNL     1      -8.268   7.094  68.020  1.00  0.00    -0.120 C  
HETATM    5  C   UNL     1      -8.601   7.162  66.511  1.00  0.00    -0.130 C  
HETATM    6  C   UNL     1      -9.854   8.014  66.250  1.00  0.00    -0.091 C  
HETATM    7  C   UNL     1      -8.756   5.782  65.835  1.00  0.00    -0.149 C  
HETATM    8  C   UNL     1      -9.917   4.937  66.343  1.00  0.00    -0.258 C  
BRANCH   6   9
HETATM    9  O   UNL     1      -9.731   9.372  66.702  1.00  0.00    -0.186 OA 
BRANCH   9  10
HETATM   10  C   UNL     1      -9.610  10.308  65.728  1.00  0.00    -0.224 C  
HETATM   11  O   UNL     1      -9.815  10.141  64.538  1.00  0.00    -0.324 OA 
BRANCH  10  12
HETATM   12  C   UNL     1      -9.261  11.627  66.323  1.00  0.00    -0.225 A  
HETATM   13  C   UNL     1      -8.032  11.778  66.955  1.00  0.00    -0.164 A  
HETATM   14  C   UNL     1      -7.645  13.026  67.475  1.00  0.00    -0.166 A  
HETATM   15  C   UNL     1      -8.462  14.167  67.388  1.00  0.00    -0.203 A  
HETATM   16  C   UNL     1      -9.706  13.974  66.754  1.00  0.00    -0.283 A  
HETATM   17  C   UNL     1     -10.098  12.739  66.219  1.00  0.00    -0.267 A  
BRANCH  15  18
HETATM   18  N   UNL     1      -8.125  15.389  67.959  1.00  0.00    -0.137 NA 
HETATM   19  C   UNL     1      -7.478  16.433  67.162  1.00  0.00    -0.192 C  
HETATM   20  C   UNL     1      -7.893  15.516  69.396  1.00  0.00    -0.231 C  
ENDBRANCH  15  18
ENDBRANCH  10  12
ENDBRANCH   9  10
ENDBRANCH   6   9
ENDBRANCH   3   4
ENDBRANCH   2   3
TORSDOF 6
ENDMDL
MODEL      225
REMARK 921   NORMALIZED FREE ENERGY PREDICTED BY IDOCK:   -2.40 KCAL/MOL
REMARK 922        TOTAL FREE ENERGY PREDICTED BY IDOCK:   -3.82 KCAL/MOL
REMARK 923 INTER-LIGAND FREE ENERGY PREDICTED BY IDOCK:   -3.02 KCAL/MOL
REMARK 924 INTRA-LIGAND FREE ENERGY PREDICTED BY IDOCK:   -0.80 KCAL/MOL
REMARK 927      BINDING AFFINITY PREDICTED BY RF-SCORE:    0.00 PKD
ROOT
HETATM    1  C   UNL     1     -12.375   8.667  70.796  1.00  0.00     0.032 C  
HETATM    2  C   UNL     1     -12.785   7.628  71.829  1.00  0.00    -0.356 C  
ENDROOT
BRANCH   2   3
HETATM    3  C   UNL     1     -11.773   6.484  71.879  1.00  0.00    -0.371 C  
BRANCH   3   4
HETATM    4  C   UNL     1     -10.340   6.960  71.604  1.00  0.00    -0.216 C  
HETATM    5  C   UNL     1      -9.279   5.899  71.979  1.00  0.00    -0.154 C  
HETATM    6  C   UNL     1      -7.852   6.425  71.747  1.00  0.00    -0.101 C  
HETATM    7  C   UNL     1      -9.459   4.543  71.262  1.00  0.00    -0.222 C  
HETATM    8  C   UNL     1      -9.298   4.583  69.749  1.00  0.00    -0.223 C  
BRANCH   6   9
HETATM    9  O   UNL     1      -7.541   7.600  72.512  1.00  0.00    -0.079 OA 
BRANCH   9  10
HETATM   10  C   UNL     1      -6.810   8.544  71.869  1.00  0.00    -0.090 C  
HETATM   11  O   UNL     1      -5.799   9.082  72.286  1.00  0.00    -0.078 OA 
BRANCH  10  12
HETATM   12  C   UNL     1      -7.371   8.794  70.513  1.00  0.00    -0.066 A  
HETATM   13  C   UNL     1      -8.485   9.617  70.385  1.00  0.00    -0.187 A  
HETATM   14  C   UNL     1      -9.004   9.923  69.113  1.00  0.00    -0.170 A  
HETATM   15  C   UNL     1      -8.440   9.421  67.926  1.00  0.00    -0.116 A  
HETATM   16  C   UNL     1      -7.323   8.579  68.096  1.00  0.00    -0.092 A  
HETATM   17  C   UNL     1      -6.787   8.278  69.355  1.00  0.00    -0.043 A  
BRANCH  15  18
HETATM   18  N   UNL     1      -8.984   9.656  66.669  1.00  0.00    -0.144 NA 
HETATM   19  C   UNL     1      -9.708   8.600  65.958  1.00  0.00    -0.168 C  
HETATM   20  C   UNL     1      -8.445  10.693  65.791  1.00  0.00    -0.178 C  
ENDBRANCH  15  18
ENDBRANCH  10  12
ENDBRANCH   9  10
ENDBRANCH   6   9
ENDBRANCH   3   4
ENDBRANCH   2   3
TORSDOF 6
ENDMDL
MODEL      226
REMARK 921   NORMALIZED FREE ENERGY PREDICTED BY IDOCK:   -2.37 KCAL/MOL
REMARK 922        TOTAL FREE ENERGY PREDICTED BY IDOCK:   -3.79 KCAL/MOL
REMARK 923 INTER-LIGAND FREE ENERGY PREDICTED BY IDOCK:   -3.01 KCAL/MOL
REMARK 924 INTRA-LIGAND FREE ENERGY PREDICTED BY IDOCK:   -0.77 KCAL/MOL
REMARK 927      BINDING AFFINITY PREDICTED BY RF-SCORE:    0.00 PKD
ROOT
HETATM    1  C   UNL     1     -12.397   8.696  70.820  1.00  0.00     0.032 C  
HETATM    2  C   UNL     1     -12.795   7.628  71.829  1.00  0.00    -0.357 C  
ENDROOT
BRANCH   2   3
HETATM    3  C   UNL     1     -11.756   6.509  71.872  1.00  0.00    -0.371 C  
BRANCH   3   4
HETATM    4  C   UNL     1     -10.335   7.021  71.600  1.00  0.00    -0.216 C  
HETATM    5  C   UNL     1      -9.415   6.908  72.839  1.00  0.00    -0.161 C  
HETATM    6  C   UNL     1      -8.016   7.481  72.555  1.00  0.00    -0.103 C  
HETATM    7  C   UNL     1      -9.289   5.477  73.405  1.00  0.00    -0.138 C  
HETATM    8  C   UNL     1      -8.635   4.466  72.473  1.00  0.00    -0.112 C  
BRANCH   6   9
HETATM    9  O   UNL     1      -8.028   8.867  72.181  1.00  0.00    -0.364 OA 
BRANCH   9  10
HETATM   10  C   UNL     1      -7.211   9.207  71.153  1.00  0.00    -0.073 C  
HETATM   11  O   UNL     1      -6.352  10.071  71.169  1.00  0.00    -0.284 OA 
BRANCH  10  12
HETATM   12  C   UNL     1      -7.450   8.310  69.989  1.00  0.00    -0.064 A  
HETATM   13  C   UNL     1      -8.532   8.564  69.153  1.00  0.00    -0.125 A  
HETATM   14  C   UNL     1      -8.752   7.773  68.010  1.00  0.00    -0.125 A  
HETATM   15  C   UNL     1      -7.910   6.703  67.658  1.00  0.00    -0.111 A  
HETATM   16  C   UNL     1      -6.833   6.467  68.536  1.00  0.00    -0.071 A  
HETATM   17  C   UNL     1      -6.594   7.255  69.670  1.00  0.00    -0.040 A  
BRANCH  15  18
HETATM   18  N   UNL     1      -8.155   5.870  66.573  1.00  0.00    -0.102 NA 
HETATM   19  C   UNL     1      -8.026   6.368  65.203  1.00  0.00    -0.116 C  
HETATM   20  C   UNL     1      -9.025   4.702  66.695  1.00  0.00    -0.112 C  
ENDBRANCH  15  18
ENDBRANCH  10  12
ENDBRANCH   9  10
ENDBRANCH   6   9
ENDBRANCH   3   4
ENDBRANCH   2   3
TORSDOF 6
ENDMDL
MODEL      227
REMARK 921   NORMALIZED FREE ENERGY PREDICTED BY IDOCK:   -2.27 KCAL/MOL
REMARK 922        TOTAL FREE ENERGY PREDICTED BY IDOCK:   -3.65 KCAL/MOL
REMARK 923 INTER-LIGAND FREE ENERGY PREDICTED BY IDOCK:   -3.78 KCAL/MOL
REMARK 924 INTRA-LIGAND FREE ENERGY PREDICTED BY IDOCK:    0.13 KCAL/MOL
REMARK 927      BINDING AFFINITY PREDICTED BY RF-SCORE:    0.00 PKD
ROOT
HETATM    1  C   UNL     1     -11.814   7.428  70.908  1.00  0.00    -0.320 C  
HETATM    2  C   UNL     1     -11.094   6.702  69.782  1.00  0.00    -0.398 C  
ENDROOT
BRANCH   2   3
HETATM    3  C   UNL     1     -10.697   7.677  68.674  1.00  0.00    -0.095 C  
BRANCH   3   4
HETATM    4  C   UNL     1      -9.836   8.835  69.197  1.00  0.00    -0.181 C  
HETATM    5  C   UNL     1      -9.744  10.008  68.192  1.00  0.00    -0.156 C  
HETATM    6  C   UNL     1      -8.830  11.128  68.718  1.00  0.00    -0.125 C  
HETATM    7  C   UNL     1     -11.111  10.598  67.782  1.00  0.00    -0.385 C  
HETATM    8  C   UNL     1     -11.901  11.251  68.908  1.00  0.00    -0.413 C  
BRANCH   6   9
HETATM    9  O   UNL     1      -7.482  10.700  68.969  1.00  0.00    -0.096 OA 
BRANCH   9  10
HETATM   10  C   UNL     1      -6.713  11.563  69.677  1.00  0.00    -0.083 C  
HETATM   11  O   UNL     1      -6.004  11.283  70.629  1.00  0.00    -0.266 OA 
BRANCH  10  12
HETATM   12  C   UNL     1      -6.783  12.924  69.079  1.00  0.00    -0.095 A  
HETATM   13  C   UNL     1      -6.381  14.017  69.839  1.00  0.00    -0.128 A  
HETATM   14  C   UNL     1      -6.378  15.310  69.285  1.00  0.00    -0.126 A  
HETATM   15  C   UNL     1      -6.775  15.565  67.960  1.00  0.00    -0.140 A  
HETATM   16  C   UNL     1      -7.189  14.436  67.224  1.00  0.00    -0.030 A  
HETATM   17  C   UNL     1      -7.184  13.141  67.760  1.00  0.00    -0.147 A  
BRANCH  15  18
HETATM   18  N   UNL     1      -6.845  16.844  67.421  1.00  0.00    -0.141 NA 
HETATM   19  C   UNL     1      -5.839  17.309  66.464  1.00  0.00    -0.205 C  
HETATM   20  C   UNL     1      -7.535  17.926  68.121  1.00  0.00    -0.250 C  
ENDBRANCH  15  18
ENDBRANCH  10  12
ENDBRANCH   9  10
ENDBRANCH   6   9
ENDBRANCH   3   4
ENDBRANCH   2   3
TORSDOF 6
ENDMDL
MODEL      228
REMARK 921   NORMALIZED FREE ENERGY PREDICTED BY IDOCK:   -2.14 KCAL/MOL
REMARK 922        TOTAL FREE ENERGY PREDICTED BY IDOCK:   -3.48 KCAL/MOL
REMARK 923 INTER-LIGAND FREE ENERGY PREDICTED BY IDOCK:   -2.78 KCAL/MOL
REMARK 924 INTRA-LIGAND FREE ENERGY PREDICTED BY IDOCK:   -0.71 KCAL/MOL
REMARK 927      BINDING AFFINITY PREDICTED BY RF-SCORE:    0.00 PKD
ROOT
HETATM    1  C   UNL     1     -12.513  15.801  69.851  1.00  0.00    -0.115 C  
HETATM    2  C   UNL     1     -11.211  16.217  69.183  1.00  0.00    -0.336 C  
ENDROOT
BRANCH   2   3
HETATM    3  C   UNL     1     -11.409  17.485  68.352  1.00  0.00     0.547 C  
BRANCH   3   4
HETATM    4  C   UNL     1     -10.310  18.526  68.607  1.00  0.00    -0.271 C  
HETATM    5  C   UNL     1      -9.229  18.532  67.500  1.00  0.00    -0.288 C  
HETATM    6  C   UNL     1      -8.113  19.544  67.811  1.00  0.00    -0.296 C  
HETATM    7  C   UNL     1      -9.780  18.781  66.080  1.00  0.00    -0.161 C  
HETATM    8  C   UNL     1     -10.418  20.146  65.860  1.00  0.00    -0.427 C  
BRANCH   6   9
HETATM    9  O   UNL     1      -7.429  19.285  69.047  1.00  0.00    -0.352 OA 
BRANCH   9  10
HETATM   10  C   UNL     1      -6.293  18.551  68.949  1.00  0.00    -0.234 C  
HETATM   11  O   UNL     1      -5.157  18.954  69.129  1.00  0.00    -0.187 OA 
BRANCH  10  12
HETATM   12  C   UNL     1      -6.623  17.128  68.662  1.00  0.00    -0.180 A  
HETATM   13  C   UNL     1      -5.937  16.468  67.648  1.00  0.00    -0.163 A  
HETATM   14  C   UNL     1      -6.181  15.107  67.390  1.00  0.00     0.040 A  
HETATM   15  C   UNL     1      -7.114  14.354  68.126  1.00  0.00    -0.124 A  
HETATM   16  C   UNL     1      -7.800  15.059  69.135  1.00  0.00    -0.188 A  
HETATM   17  C   UNL     1      -7.556  16.411  69.412  1.00  0.00    -0.098 A  
BRANCH  15  18
HETATM   18  N   UNL     1      -7.417  13.028  67.837  1.00  0.00    -0.121 NA 
HETATM   19  C   UNL     1      -8.103  12.672  66.593  1.00  0.00     0.193 C  
HETATM   20  C   UNL     1      -7.574  12.038  68.900  1.00  0.00    -0.016 C  
ENDBRANCH  15  18
ENDBRANCH  10  12
ENDBRANCH   9  10
ENDBRANCH   6   9
ENDBRANCH   3   4
ENDBRANCH   2   3
TORSDOF 6
ENDMDL
MODEL      229
REMARK 921   NORMALIZED FREE ENERGY PREDICTED BY IDOCK:   -2.03 KCAL/MOL
REMARK 922        TOTAL FREE ENERGY PREDICTED BY IDOCK:   -3.33 KCAL/MOL
REMARK 923 INTER-LIGAND FREE ENERGY PREDICTED BY IDOCK:   -2.54 KCAL/MOL
REMARK 924 INTRA-LIGAND FREE ENERGY PREDICTED BY IDOCK:   -0.78 KCAL/MOL
REMARK 927      BINDING AFFINITY PREDICTED BY RF-SCORE:    0.00 PKD
ROOT
HETATM    1  C   UNL     1     -11.658  13.121  67.124  1.00  0.00    -0.410 C  
HETATM    2  C   UNL     1     -10.994  11.775  66.871  1.00  0.00    -0.333 C  
ENDROOT
BRANCH   2   3
HETATM    3  C   UNL     1      -9.472  11.916  66.861  1.00  0.00    -0.205 C  
BRANCH   3   4
HETATM    4  C   UNL     1      -8.875  11.894  68.274  1.00  0.00    -0.174 C  
HETATM    5  C   UNL     1      -7.387  11.470  68.284  1.00  0.00    -0.091 C  
HETATM    6  C   UNL     1      -6.831  11.402  69.717  1.00  0.00    -0.025 C  
HETATM    7  C   UNL     1      -6.472  12.355  67.410  1.00  0.00    -0.154 C  
HETATM    8  C   UNL     1      -6.356  13.807  67.854  1.00  0.00    -0.162 C  
BRANCH   6   9
HETATM    9  O   UNL     1      -7.526  10.469  70.559  1.00  0.00    -0.095 OA 
BRANCH   9  10
HETATM   10  C   UNL     1      -7.075   9.191  70.520  1.00  0.00    -0.088 C  
HETATM   11  O   UNL     1      -6.408   8.636  71.376  1.00  0.00    -0.048 OA 
BRANCH  10  12
HETATM   12  C   UNL     1      -7.578   8.505  69.299  1.00  0.00    -0.095 A  
HETATM   13  C   UNL     1      -6.669   7.880  68.453  1.00  0.00    -0.066 A  
HETATM   14  C   UNL     1      -7.115   7.172  67.322  1.00  0.00    -0.084 A  
HETATM   15  C   UNL     1      -8.477   7.060  66.990  1.00  0.00    -0.121 A  
HETATM   16  C   UNL     1      -9.369   7.718  67.862  1.00  0.00    -0.148 A  
HETATM   17  C   UNL     1      -8.939   8.415  68.999  1.00  0.00    -0.147 A  
BRANCH  15  18
HETATM   18  N   UNL     1      -8.929   6.425  65.839  1.00  0.00    -0.134 NA 
HETATM   19  C   UNL     1      -9.345   5.021  65.874  1.00  0.00    -0.159 C  
HETATM   20  C   UNL     1      -8.532   6.888  64.512  1.00  0.00     0.196 C  
ENDBRANCH  15  18
ENDBRANCH  10  12
ENDBRANCH   9  10
ENDBRANCH   6   9
ENDBRANCH   3   4
ENDBRANCH   2   3
TORSDOF 6
ENDMDL
MODEL      230
REMARK 921   NORMALIZED FREE ENERGY PREDICTED BY IDOCK:   -1.87 KCAL/MOL
REMARK 922        TOTAL FREE ENERGY PREDICTED BY IDOCK:   -3.11 KCAL/MOL
REMARK 923 INTER-LIGAND FREE ENERGY PREDICTED BY IDOCK:   -2.35 KCAL/MOL
REMARK 924 INTRA-LIGAND FREE ENERGY PREDICTED BY IDOCK:   -0.76 KCAL/MOL
REMARK 927      BINDING AFFINITY PREDICTED BY RF-SCORE:    0.00 PKD
ROOT
HETATM    1  C   UNL     1     -10.567   8.787  70.042  1.00  0.00    -0.232 C  
HETATM    2  C   UNL     1     -11.762   7.856  70.184  1.00  0.00     0.154 C  
ENDROOT
BRANCH   2   3
HETATM    3  C   UNL     1     -11.408   6.446  69.715  1.00  0.00    -0.494 C  
BRANCH   3   4
HETATM    4  C   UNL     1     -10.487   5.716  70.702  1.00  0.00    -0.340 C  
HETATM    5  C   UNL     1     -10.117   4.291  70.228  1.00  0.00    -0.096 C  
HETATM    6  C   UNL     1      -9.241   3.564  71.263  1.00  0.00    -0.125 C  
HETATM    7  C   UNL     1      -9.438   4.242  68.843  1.00  0.00    -0.236 C  
HETATM    8  C   UNL     1      -8.082   4.929  68.759  1.00  0.00    -0.084 C  
BRANCH   6   9
HETATM    9  O   UNL     1      -9.869   3.417  72.547  1.00  0.00    -0.135 OA 
BRANCH   9  10
HETATM   10  C   UNL     1      -9.050   3.538  73.620  1.00  0.00    -0.093 C  
HETATM   11  O   UNL     1      -8.893   2.712  74.504  1.00  0.00    -0.070 OA 
BRANCH  10  12
HETATM   12  C   UNL     1      -8.284   4.812  73.543  1.00  0.00    -0.107 A  
HETATM   13  C   UNL     1      -8.965   6.017  73.672  1.00  0.00    -0.127 A  
HETATM   14  C   UNL     1      -8.264   7.237  73.663  1.00  0.00    -0.155 A  
HETATM   15  C   UNL     1      -6.866   7.304  73.524  1.00  0.00    -0.065 A  
HETATM   16  C   UNL     1      -6.212   6.064  73.382  1.00  0.00    -0.063 A  
HETATM   17  C   UNL     1      -6.896   4.841  73.402  1.00  0.00    -0.069 A  
BRANCH  15  18
HETATM   18  N   UNL     1      -6.168   8.503  73.443  1.00  0.00    -0.110 NA 
HETATM   19  C   UNL     1      -6.188   9.458  74.553  1.00  0.00     0.147 C  
HETATM   20  C   UNL     1      -5.851   9.110  72.151  1.00  0.00    -0.048 C  
ENDBRANCH  15  18
ENDBRANCH  10  12
ENDBRANCH   9  10
ENDBRANCH   6   9
ENDBRANCH   3   4
ENDBRANCH   2   3
TORSDOF 6
ENDMDL
MODEL      231
REMARK 921   NORMALIZED FREE ENERGY PREDICTED BY IDOCK:   -1.83 KCAL/MOL
REMARK 922        TOTAL FREE ENERGY PREDICTED BY IDOCK:   -3.05 KCAL/MOL
REMARK 923 INTER-LIGAND FREE ENERGY PREDICTED BY IDOCK:   -3.42 KCAL/MOL
REMARK 924 INTRA-LIGAND FREE ENERGY PREDICTED BY IDOCK:    0.37 KCAL/MOL
REMARK 927      BINDING AFFINITY PREDICTED BY RF-SCORE:    0.00 PKD
ROOT
HETATM    1  C   UNL     1     -10.392  19.379  65.781  1.00  0.00    -0.431 C  
HETATM    2  C   UNL     1     -10.560  17.870  65.881  1.00  0.00    -0.216 C  
ENDROOT
BRANCH   2   3
HETATM    3  C   UNL     1     -10.734  17.440  67.337  1.00  0.00    -0.251 C  
BRANCH   3   4
HETATM    4  C   UNL     1     -11.115  15.959  67.467  1.00  0.00    -0.235 C  
HETATM    5  C   UNL     1      -9.883  15.041  67.644  1.00  0.00    -0.220 C  
HETATM    6  C   UNL     1     -10.291  13.560  67.713  1.00  0.00    -0.241 C  
HETATM    7  C   UNL     1      -8.998  15.398  68.858  1.00  0.00    -0.208 C  
HETATM    8  C   UNL     1      -9.666  15.240  70.217  1.00  0.00     0.273 C  
BRANCH   6   9
HETATM    9  O   UNL     1     -10.979  13.097  66.541  1.00  0.00    -0.281 OA 
BRANCH   9  10
HETATM   10  C   UNL     1     -10.462  11.990  65.953  1.00  0.00    -0.255 C  
HETATM   11  O   UNL     1     -10.547  11.692  64.774  1.00  0.00    -0.276 OA 
BRANCH  10  12
HETATM   12  C   UNL     1      -9.687  11.195  66.945  1.00  0.00    -0.216 A  
HETATM   13  C   UNL     1      -8.423  10.731  66.598  1.00  0.00    -0.142 A  
HETATM   14  C   UNL     1      -7.639  10.029  67.532  1.00  0.00    -0.091 A  
HETATM   15  C   UNL     1      -8.081   9.761  68.840  1.00  0.00    -0.101 A  
HETATM   16  C   UNL     1      -9.372  10.234  69.152  1.00  0.00    -0.214 A  
HETATM   17  C   UNL     1     -10.158  10.946  68.236  1.00  0.00    -0.189 A  
BRANCH  15  18
HETATM   18  N   UNL     1      -7.349   9.008  69.751  1.00  0.00    -0.055 NA 
HETATM   19  C   UNL     1      -7.523   7.557  69.832  1.00  0.00    -0.084 C  
HETATM   20  C   UNL     1      -6.813   9.606  70.972  1.00  0.00     0.010 C  
ENDBRANCH  15  18
ENDBRANCH  10  12
ENDBRANCH   9  10
ENDBRANCH   6   9
ENDBRANCH   3   4
ENDBRANCH   2   3
TORSDOF 6
ENDMDL
MODEL      232
REMARK 921   NORMALIZED FREE ENERGY PREDICTED BY IDOCK:   -1.74 KCAL/MOL
REMARK 922        TOTAL FREE ENERGY PREDICTED BY IDOCK:   -2.94 KCAL/MOL
REMARK 923 INTER-LIGAND FREE ENERGY PREDICTED BY IDOCK:   -2.16 KCAL/MOL
REMARK 924 INTRA-LIGAND FREE ENERGY PREDICTED BY IDOCK:   -0.77 KCAL/MOL
REMARK 927      BINDING AFFINITY PREDICTED BY RF-SCORE:    0.00 PKD
ROOT
HETATM    1  C   UNL     1     -11.076   8.244  70.479  1.00  0.00    -0.259 C  
HETATM    2  C   UNL     1     -11.950   7.015  70.685  1.00  0.00    -0.361 C  
ENDROOT
BRANCH   2   3
HETATM    3  C   UNL     1     -11.289   5.774  70.085  1.00  0.00    -0.062 C  
BRANCH   3   4
HETATM    4  C   UNL     1      -9.809   5.657  70.473  1.00  0.00    -0.249 C  
HETATM    5  C   UNL     1      -9.106   4.465  69.780  1.00  0.00    -0.174 C  
HETATM    6  C   UNL     1      -7.641   4.338  70.230  1.00  0.00    -0.046 C  
HETATM    7  C   UNL     1      -9.178   4.498  68.238  1.00  0.00    -0.174 C  
HETATM    8  C   UNL     1      -8.463   5.670  67.579  1.00  0.00    -0.102 C  
BRANCH   6   9
HETATM    9  O   UNL     1      -7.489   4.135  71.644  1.00  0.00    -0.057 OA 
BRANCH   9  10
HETATM   10  C   UNL     1      -6.396   4.707  72.207  1.00  0.00    -0.026 C  
HETATM   11  O   UNL     1      -5.539   4.136  72.860  1.00  0.00    -0.006 OA 
BRANCH  10  12
HETATM   12  C   UNL     1      -6.331   6.151  71.852  1.00  0.00    -0.046 A  
HETATM   13  C   UNL     1      -5.561   6.544  70.763  1.00  0.00    -0.023 A  
HETATM   14  C   UNL     1      -5.525   7.893  70.364  1.00  0.00    -0.023 A  
HETATM   15  C   UNL     1      -6.248   8.898  71.031  1.00  0.00    -0.052 A  
HETATM   16  C   UNL     1      -7.006   8.465  72.138  1.00  0.00    -0.103 A  
HETATM   17  C   UNL     1      -7.062   7.123  72.538  1.00  0.00    -0.068 A  
BRANCH  15  18
HETATM   18  N   UNL     1      -6.167  10.243  70.692  1.00  0.00    -0.194 NA 
HETATM   19  C   UNL     1      -6.634  10.716  69.388  1.00  0.00    -0.075 C  
HETATM   20  C   UNL     1      -5.187  11.126  71.321  1.00  0.00    -0.065 C  
ENDBRANCH  15  18
ENDBRANCH  10  12
ENDBRANCH   9  10
ENDBRANCH   6   9
ENDBRANCH   3   4
ENDBRANCH   2   3
TORSDOF 6
ENDMDL
MODEL      233
REMARK 921   NORMALIZED FREE ENERGY PREDICTED BY IDOCK:   -1.67 KCAL/MOL
REMARK 922        TOTAL FREE ENERGY PREDICTED BY IDOCK:   -2.84 KCAL/MOL
REMARK 923 INTER-LIGAND FREE ENERGY PREDICTED BY IDOCK:   -2.49 KCAL/MOL
REMARK 924 INTRA-LIGAND FREE ENERGY PREDICTED BY IDOCK:   -0.36 KCAL/MOL
REMARK 927      BINDING AFFINITY PREDICTED BY RF-SCORE:    0.00 PKD
ROOT
HETATM    1  C   UNL     1     -12.068  13.162  67.634  1.00  0.00    -0.281 C  
HETATM    2  C   UNL     1     -11.193  11.919  67.705  1.00  0.00    -0.330 C  
ENDROOT
BRANCH   2   3
HETATM    3  C   UNL     1      -9.739  12.261  67.382  1.00  0.00    -0.185 C  
BRANCH   3   4
HETATM    4  C   UNL     1      -8.820  12.112  68.602  1.00  0.00    -0.004 C  
HETATM    5  C   UNL     1      -7.322  12.244  68.237  1.00  0.00    -0.108 C  
HETATM    6  C   UNL     1      -6.424  12.033  69.468  1.00  0.00    -0.109 C  
HETATM    7  C   UNL     1      -6.955  13.573  67.543  1.00  0.00    -0.157 C  
HETATM    8  C   UNL     1      -7.151  14.823  68.389  1.00  0.00    -0.114 C  
BRANCH   6   9
HETATM    9  O   UNL     1      -6.582  10.744  70.082  1.00  0.00    -0.149 OA 
BRANCH   9  10
HETATM   10  C   UNL     1      -6.425   9.677  69.260  1.00  0.00    -0.044 C  
HETATM   11  O   UNL     1      -5.729   9.633  68.260  1.00  0.00    -0.040 OA 
BRANCH  10  12
HETATM   12  C   UNL     1      -7.173   8.505  69.792  1.00  0.00    -0.052 A  
HETATM   13  C   UNL     1      -7.591   7.514  68.910  1.00  0.00    -0.105 A  
HETATM   14  C   UNL     1      -8.247   6.364  69.386  1.00  0.00    -0.118 A  
HETATM   15  C   UNL     1      -8.512   6.157  70.752  1.00  0.00    -0.131 A  
HETATM   16  C   UNL     1      -8.087   7.188  71.614  1.00  0.00    -0.102 A  
HETATM   17  C   UNL     1      -7.421   8.332  71.155  1.00  0.00    -0.076 A  
BRANCH  15  18
HETATM   18  N   UNL     1      -9.221   5.061  71.230  1.00  0.00    -0.142 NA 
HETATM   19  C   UNL     1      -8.812   3.698  70.887  1.00  0.00    -0.083 C  
HETATM   20  C   UNL     1     -10.628   5.175  71.610  1.00  0.00    -0.156 C  
ENDBRANCH  15  18
ENDBRANCH  10  12
ENDBRANCH   9  10
ENDBRANCH   6   9
ENDBRANCH   3   4
ENDBRANCH   2   3
TORSDOF 6
ENDMDL
MODEL      234
REMARK 921   NORMALIZED FREE ENERGY PREDICTED BY IDOCK:   -0.89 KCAL/MOL
REMARK 922        TOTAL FREE ENERGY PREDICTED BY IDOCK:   -1.78 KCAL/MOL
REMARK 923 INTER-LIGAND FREE ENERGY PREDICTED BY IDOCK:   -1.75 KCAL/MOL
REMARK 924 INTRA-LIGAND FREE ENERGY PREDICTED BY IDOCK:   -0.04 KCAL/MOL
REMARK 927      BINDING AFFINITY PREDICTED BY RF-SCORE:    0.00 PKD
ROOT
HETATM    1  C   UNL     1      -5.726  13.137  72.452  1.00  0.00     0.697 C  
HETATM    2  C   UNL     1      -5.132  14.266  71.623  1.00  0.00    -0.163 C  
ENDROOT
BRANCH   2   3
HETATM    3  C   UNL     1      -5.485  14.096  70.146  1.00  0.00    -0.107 C  
BRANCH   3   4
HETATM    4  C   UNL     1      -6.759  13.264  69.942  1.00  0.00     0.200 C  
HETATM    5  C   UNL     1      -6.556  12.103  68.940  1.00  0.00    -0.090 C  
HETATM    6  C   UNL     1      -7.862  11.323  68.713  1.00  0.00    -0.139 C  
HETATM    7  C   UNL     1      -5.423  11.127  69.324  1.00  0.00    -0.040 C  
HETATM    8  C   UNL     1      -5.645  10.351  70.615  1.00  0.00    -0.088 C  
BRANCH   6   9
HETATM    9  O   UNL     1      -8.931  12.129  68.192  1.00  0.00    -0.184 OA 
BRANCH   9  10
HETATM   10  C   UNL     1     -10.039  11.454  67.800  1.00  0.00    -0.181 C  
HETATM   11  O   UNL     1     -11.165  11.912  67.701  1.00  0.00    -0.239 OA 
BRANCH  10  12
HETATM   12  C   UNL     1      -9.685  10.060  67.417  1.00  0.00    -0.196 A  
HETATM   13  C   UNL     1      -8.938   9.846  66.263  1.00  0.00    -0.169 A  
HETATM   14  C   UNL     1      -8.535   8.547  65.904  1.00  0.00    -0.164 A  
HETATM   15  C   UNL     1      -8.859   7.416  66.674  1.00  0.00    -0.143 A  
HETATM   16  C   UNL     1      -9.628   7.668  67.828  1.00  0.00    -0.169 A  
HETATM   17  C   UNL     1     -10.025   8.959  68.204  1.00  0.00    -0.208 A  
BRANCH  15  18
HETATM   18  N   UNL     1      -8.529   6.119  66.296  1.00  0.00    -0.126 NA 
HETATM   19  C   UNL     1      -7.586   5.876  65.203  1.00  0.00    -0.088 C  
HETATM   20  C   UNL     1      -9.435   5.001  66.551  1.00  0.00    -0.149 C  
ENDBRANCH  15  18
ENDBRANCH  10  12
ENDBRANCH   9  10
ENDBRANCH   6   9
ENDBRANCH   3   4
ENDBRANCH   2   3
TORSDOF 6
ENDMDL
MODEL      235
REMARK 921   NORMALIZED FREE ENERGY PREDICTED BY IDOCK:    0.09 KCAL/MOL
REMARK 922        TOTAL FREE ENERGY PREDICTED BY IDOCK:   -0.47 KCAL/MOL
REMARK 923 INTER-LIGAND FREE ENERGY PREDICTED BY IDOCK:   -1.54 KCAL/MOL
REMARK 924 INTRA-LIGAND FREE ENERGY PREDICTED BY IDOCK:    1.08 KCAL/MOL
REMARK 927      BINDING AFFINITY PREDICTED BY RF-SCORE:    0.00 PKD
ROOT
HETATM    1  C   UNL     1      -5.875  13.076  72.485  1.00  0.00     1.226 C  
HETATM    2  C   UNL     1      -5.174  14.354  72.051  1.00  0.00    -0.176 C  
ENDROOT
BRANCH   2   3
HETATM    3  C   UNL     1      -5.363  14.594  70.554  1.00  0.00    -0.127 C  
BRANCH   3   4
HETATM    4  C   UNL     1      -6.639  13.934  70.014  1.00  0.00     0.010 C  
HETATM    5  C   UNL     1      -6.376  13.077  68.753  1.00  0.00    -0.084 C  
HETATM    6  C   UNL     1      -7.680  12.475  68.201  1.00  0.00    -0.141 C  
HETATM    7  C   UNL     1      -5.329  11.960  68.954  1.00  0.00    -0.050 C  
HETATM    8  C   UNL     1      -5.716  10.880  69.955  1.00  0.00    -0.077 C  
BRANCH   6   9
HETATM    9  O   UNL     1      -8.656  13.461  67.828  1.00  0.00    -0.168 OA 
BRANCH   9  10
HETATM   10  C   UNL     1      -9.684  13.012  67.067  1.00  0.00    -0.235 C  
HETATM   11  O   UNL     1     -10.793  13.513  66.985  1.00  0.00    -0.278 OA 
BRANCH  10  12
HETATM   12  C   UNL     1      -9.252  11.840  66.258  1.00  0.00    -0.227 A  
HETATM   13  C   UNL     1      -9.655  11.751  64.930  1.00  0.00    -0.132 A  
HETATM   14  C   UNL     1      -9.216  10.687  64.120  1.00  0.00    -0.267 A  
HETATM   15  C   UNL     1      -8.365   9.675  64.599  1.00  0.00    -0.158 A  
HETATM   16  C   UNL     1      -7.989   9.790  65.952  1.00  0.00    -0.111 A  
HETATM   17  C   UNL     1      -8.408  10.851  66.766  1.00  0.00    -0.138 A  
BRANCH  15  18
HETATM   18  N   UNL     1      -7.980   8.581  63.833  1.00  0.00    -0.154 NA 
HETATM   19  C   UNL     1      -8.028   8.638  62.371  1.00  0.00    -0.149 C  
HETATM   20  C   UNL     1      -8.031   7.223  64.371  1.00  0.00    -0.106 C  
ENDBRANCH  15  18
ENDBRANCH  10  12
ENDBRANCH   9  10
ENDBRANCH   6   9
ENDBRANCH   3   4
ENDBRANCH   2   3
TORSDOF 6
ENDMDL
MODEL      236
REMARK 921   NORMALIZED FREE ENERGY PREDICTED BY IDOCK:    0.28 KCAL/MOL
REMARK 922        TOTAL FREE ENERGY PREDICTED BY IDOCK:   -0.20 KCAL/MOL
REMARK 923 INTER-LIGAND FREE ENERGY PREDICTED BY IDOCK:   -1.49 KCAL/MOL
REMARK 924 INTRA-LIGAND FREE ENERGY PREDICTED BY IDOCK:    1.29 KCAL/MOL
REMARK 927      BINDING AFFINITY PREDICTED BY RF-SCORE:    0.00 PKD
ROOT
HETATM    1  C   UNL     1      -5.726  13.137  72.452  1.00  0.00     0.697 C  
HETATM    2  C   UNL     1      -5.126  14.263  71.623  1.00  0.00    -0.163 C  
ENDROOT
BRANCH   2   3
HETATM    3  C   UNL     1      -5.449  14.075  70.141  1.00  0.00    -0.109 C  
BRANCH   3   4
HETATM    4  C   UNL     1      -6.711  13.229  69.922  1.00  0.00     0.200 C  
HETATM    5  C   UNL     1      -6.413  11.891  69.204  1.00  0.00    -0.098 C  
HETATM    6  C   UNL     1      -7.702  11.092  68.948  1.00  0.00    -0.140 C  
HETATM    7  C   UNL     1      -5.381  11.001  69.930  1.00  0.00    -0.051 C  
HETATM    8  C   UNL     1      -5.809  10.497  71.302  1.00  0.00     0.125 C  
BRANCH   6   9
HETATM    9  O   UNL     1      -8.657  11.787  68.132  1.00  0.00    -0.147 OA 
BRANCH   9  10
HETATM   10  C   UNL     1      -9.724  11.057  67.722  1.00  0.00    -0.170 C  
HETATM   11  O   UNL     1     -10.640  11.450  67.020  1.00  0.00    -0.225 OA 
BRANCH  10  12
HETATM   12  C   UNL     1      -9.593   9.649  68.187  1.00  0.00    -0.159 A  
HETATM   13  C   UNL     1      -9.495   9.396  69.551  1.00  0.00    -0.187 A  
HETATM   14  C   UNL     1      -9.431   8.074  70.029  1.00  0.00    -0.160 A  
HETATM   15  C   UNL     1      -9.459   6.959  69.172  1.00  0.00    -0.142 A  
HETATM   16  C   UNL     1      -9.544   7.254  67.797  1.00  0.00    -0.158 A  
HETATM   17  C   UNL     1      -9.623   8.566  67.308  1.00  0.00    -0.220 A  
BRANCH  15  18
HETATM   18  N   UNL     1      -9.325   5.651  69.623  1.00  0.00    -0.135 NA 
HETATM   19  C   UNL     1      -9.415   5.339  71.051  1.00  0.00    -0.161 C  
HETATM   20  C   UNL     1      -8.589   4.654  68.848  1.00  0.00    -0.084 C  
ENDBRANCH  15  18
ENDBRANCH  10  12
ENDBRANCH   9  10
ENDBRANCH   6   9
ENDBRANCH   3   4
ENDBRANCH   2   3
TORSDOF 6
ENDMDL
MODEL      237
REMARK 921   NORMALIZED FREE ENERGY PREDICTED BY IDOCK:    1.65 KCAL/MOL
REMARK 922        TOTAL FREE ENERGY PREDICTED BY IDOCK:    1.65 KCAL/MOL
REMARK 923 INTER-LIGAND FREE ENERGY PREDICTED BY IDOCK:   -1.42 KCAL/MOL
REMARK 924 INTRA-LIGAND FREE ENERGY PREDICTED BY IDOCK:    3.07 KCAL/MOL
REMARK 927      BINDING AFFINITY PREDICTED BY RF-SCORE:    0.00 PKD
ROOT
HETATM    1  C   UNL     1     -10.771  16.993  70.970  1.00  0.00     1.250 C  
HETATM    2  C   UNL     1     -10.841  15.525  70.579  1.00  0.00    -0.353 C  
ENDROOT
BRANCH   2   3
HETATM    3  C   UNL     1     -12.241  15.161  70.086  1.00  0.00    -0.395 C  
BRANCH   3   4
HETATM    4  C   UNL     1     -12.214  14.077  69.000  1.00  0.00    -0.280 C  
HETATM    5  C   UNL     1     -11.126  14.335  67.930  1.00  0.00    -0.293 C  
HETATM    6  C   UNL     1     -11.160  13.265  66.826  1.00  0.00    -0.292 C  
HETATM    7  C   UNL     1      -9.696  14.454  68.499  1.00  0.00    -0.225 C  
HETATM    8  C   UNL     1      -9.151  13.194  69.158  1.00  0.00     0.662 C  
BRANCH   6   9
HETATM    9  O   UNL     1     -12.413  13.199  66.126  1.00  0.00    -0.400 OA 
BRANCH   9  10
HETATM   10  C   UNL     1     -12.426  12.425  65.013  1.00  0.00    -0.316 C  
HETATM   11  O   UNL     1     -13.367  12.269  64.254  1.00  0.00    -0.777 OA 
BRANCH  10  12
HETATM   12  C   UNL     1     -11.081  11.831  64.784  1.00  0.00    -0.356 A  
HETATM   13  C   UNL     1      -9.957  12.504  65.252  1.00  0.00    -0.226 A  
HETATM   14  C   UNL     1      -8.676  11.941  65.105  1.00  0.00     0.631 A  
HETATM   15  C   UNL     1      -8.463  10.696  64.488  1.00  0.00    -0.079 A  
HETATM   16  C   UNL     1      -9.623  10.050  64.013  1.00  0.00    -0.243 A  
HETATM   17  C   UNL     1     -10.906  10.592  64.165  1.00  0.00     0.608 A  
BRANCH  15  18
HETATM   18  N   UNL     1      -7.199  10.160  64.272  1.00  0.00    -0.131 NA 
HETATM   19  C   UNL     1      -6.988   9.123  63.261  1.00  0.00    -0.089 C  
HETATM   20  C   UNL     1      -6.180  10.176  65.319  1.00  0.00    -0.118 C  
ENDBRANCH  15  18
ENDBRANCH  10  12
ENDBRANCH   9  10
ENDBRANCH   6   9
ENDBRANCH   3   4
ENDBRANCH   2   3
TORSDOF 6
ENDMDL
MODEL      238
REMARK 921   NORMALIZED FREE ENERGY PREDICTED BY IDOCK:   11.15 KCAL/MOL
REMARK 922        TOTAL FREE ENERGY PREDICTED BY IDOCK:   14.47 KCAL/MOL
REMARK 923 INTER-LIGAND FREE ENERGY PREDICTED BY IDOCK:   14.73 KCAL/MOL
REMARK 924 INTRA-LIGAND FREE ENERGY PREDICTED BY IDOCK:   -0.25 KCAL/MOL
REMARK 927      BINDING AFFINITY PREDICTED BY RF-SCORE:    0.00 PKD
ROOT
HETATM    1  C   UNL     1      -7.813  19.069  65.868  1.00  0.00    -0.136 C  
HETATM    2  C   UNL     1      -8.462  18.502  64.614  1.00  0.00     5.185 C  
ENDROOT
BRANCH   2   3
HETATM    3  C   UNL     1      -9.849  17.942  64.928  1.00  0.00     2.711 C  
BRANCH   3   4
HETATM    4  C   UNL     1      -9.971  16.453  64.574  1.00  0.00     2.133 C  
HETATM    5  C   UNL     1     -11.176  15.774  65.267  1.00  0.00    -0.192 C  
HETATM    6  C   UNL     1     -11.240  14.273  64.939  1.00  0.00    -0.379 C  
HETATM    7  C   UNL     1     -12.537  16.435  64.959  1.00  0.00     2.721 C  
HETATM    8  C   UNL     1     -12.976  16.371  63.502  1.00  0.00     4.653 C  
BRANCH   6   9
HETATM    9  O   UNL     1     -10.071  13.545  65.347  1.00  0.00    -0.299 OA 
BRANCH   9  10
HETATM   10  C   UNL     1      -9.983  13.267  66.671  1.00  0.00    -0.272 C  
HETATM   11  O   UNL     1     -10.506  13.895  67.576  1.00  0.00    -0.246 OA 
BRANCH  10  12
HETATM   12  C   UNL     1      -9.208  12.014  66.884  1.00  0.00    -0.197 A  
HETATM   13  C   UNL     1      -8.505  11.848  68.072  1.00  0.00    -0.162 A  
HETATM   14  C   UNL     1      -7.812  10.652  68.331  1.00  0.00    -0.113 A  
HETATM   15  C   UNL     1      -7.789   9.580  67.421  1.00  0.00    -0.102 A  
HETATM   16  C   UNL     1      -8.501   9.788  66.222  1.00  0.00    -0.129 A  
HETATM   17  C   UNL     1      -9.207  10.969  65.957  1.00  0.00    -0.213 A  
BRANCH  15  18
HETATM   18  N   UNL     1      -7.051   8.421  67.630  1.00  0.00    -0.082 NA 
HETATM   19  C   UNL     1      -7.694   7.106  67.584  1.00  0.00    -0.112 C  
HETATM   20  C   UNL     1      -5.809   8.441  68.400  1.00  0.00    -0.041 C  
ENDBRANCH  15  18
ENDBRANCH  10  12
ENDBRANCH   9  10
ENDBRANCH   6   9
ENDBRANCH   3   4
ENDBRANCH   2   3
TORSDOF 6
ENDMDL
