MODEL        1
REMARK 921   NORMALIZED FREE ENERGY PREDICTED BY IDOCK:   -8.67 KCAL/MOL
REMARK 922        TOTAL FREE ENERGY PREDICTED BY IDOCK:  -11.80 KCAL/MOL
REMARK 923 INTER-LIGAND FREE ENERGY PREDICTED BY IDOCK:  -11.21 KCAL/MOL
REMARK 924 INTRA-LIGAND FREE ENERGY PREDICTED BY IDOCK:   -0.59 KCAL/MOL
REMARK 927      BINDING AFFINITY PREDICTED BY RF-SCORE:    0.00 PKD
ROOT
HETATM    1  C   UNL     1     -10.799  19.576  65.721  1.00  0.00    -0.403 C  
HETATM    2  C   UNL     1      -9.811  18.509  66.114  1.00  0.00    -0.283 C  
HETATM    3  O   UNL     1      -8.618  18.680  65.855  1.00  0.00    -0.488 OA 
ENDROOT
BRANCH   2   4
HETATM    4  C   UNL     1     -10.282  17.293  66.878  1.00  0.00    -0.322 C  
HETATM    5  C   UNL     1     -10.415  17.318  68.221  1.00  0.00    -0.385 C  
HETATM    6  C   UNL     1     -10.029  18.450  69.154  1.00  0.00    -0.206 C  
HETATM    7  C   UNL     1     -11.012  16.135  68.876  1.00  0.00    -0.324 A  
HETATM    8  C   UNL     1     -11.128  16.014  70.238  1.00  0.00    -0.374 A  
HETATM    9  N   UNL     1     -11.705  14.974  70.844  1.00  0.00    -0.306 NA 
HETATM   10  C   UNL     1     -12.229  13.993  70.105  1.00  0.00    -0.359 A  
HETATM   11  N   UNL     1     -12.145  14.001  68.767  1.00  0.00    -0.340 NA 
HETATM   12  O   UNL     1     -10.111  15.852  65.019  1.00  0.00    -0.444 OA 
HETATM   13  C   UNL     1     -10.587  16.021  66.140  1.00  0.00    -0.297 C  
HETATM   14  C   UNL     1     -11.540  15.064  68.167  1.00  0.00    -0.340 A  
HETATM   15  N   UNL     1     -11.402  15.072  66.749  1.00  0.00    -0.327 N  
BRANCH  10  16
HETATM   16  N   UNL     1     -12.910  12.961  70.746  1.00  0.00    -0.122 NA 
HETATM   17  H   UNL     1     -13.810  13.202  71.161  1.00  0.00     0.000 HD 
BRANCH  16  18
HETATM   18  C   UNL     1     -12.500  11.630  70.883  1.00  0.00    -0.341 A  
HETATM   19  C   UNL     1     -12.647   9.620  72.042  1.00  0.00    -0.361 A  
HETATM   20  C   UNL     1     -11.439  11.093  70.163  1.00  0.00    -0.361 A  
HETATM   21  C   UNL     1     -10.926   9.840  70.484  1.00  0.00    -0.384 A  
HETATM   22  N   UNL     1     -13.149  10.869  71.784  1.00  0.00    -0.480 NA 
HETATM   23  C   UNL     1     -11.497   9.059  71.481  1.00  0.00    -0.337 A  
BRANCH  23  24
HETATM   24  N   UNL     1     -10.938   7.852  71.832  1.00  0.00    -0.245 NA 
HETATM   25  C   UNL     1      -9.861   7.770  72.841  1.00  0.00    -0.264 C  
HETATM   26  C   UNL     1     -10.327   6.941  74.060  1.00  0.00    -0.320 C  
HETATM   27  N   UNL     1     -10.816   5.599  73.697  1.00  0.00    -0.383 NA 
HETATM   28  C   UNL     1     -11.894   5.726  72.696  1.00  0.00    -0.142 C  
HETATM   29  H   UNL     1     -11.107   5.061  74.514  1.00  0.00     0.000 HD 
HETATM   30  C   UNL     1     -11.492   6.546  71.449  1.00  0.00    -0.309 C  
ENDBRANCH  23  24
ENDBRANCH  16  18
ENDBRANCH  10  16
BRANCH  15  31
HETATM   31  C   UNL     1     -11.827  13.871  66.010  1.00  0.00    -0.393 C  
HETATM   32  C   UNL     1     -12.535  14.107  64.662  1.00  0.00    -0.375 C  
HETATM   33  C   UNL     1     -10.666  12.921  65.687  1.00  0.00    -0.295 C  
HETATM   34  C   UNL     1     -12.366  12.781  63.938  1.00  0.00    -0.510 C  
HETATM   35  C   UNL     1     -10.971  12.307  64.323  1.00  0.00    -0.392 C  
ENDBRANCH  15  31
ENDBRANCH   2   4
TORSDOF 5
ENDMDL
MODEL        2
REMARK 921   NORMALIZED FREE ENERGY PREDICTED BY IDOCK:   -8.64 KCAL/MOL
REMARK 922        TOTAL FREE ENERGY PREDICTED BY IDOCK:  -11.75 KCAL/MOL
REMARK 923 INTER-LIGAND FREE ENERGY PREDICTED BY IDOCK:  -11.23 KCAL/MOL
REMARK 924 INTRA-LIGAND FREE ENERGY PREDICTED BY IDOCK:   -0.52 KCAL/MOL
REMARK 927      BINDING AFFINITY PREDICTED BY RF-SCORE:    0.00 PKD
ROOT
HETATM    1  C   UNL     1     -10.747  19.466  65.647  1.00  0.00    -0.377 C  
HETATM    2  C   UNL     1      -9.763  18.433  66.133  1.00  0.00    -0.229 C  
HETATM    3  O   UNL     1      -8.568  18.582  65.867  1.00  0.00    -0.497 OA 
ENDROOT
BRANCH   2   4
HETATM    4  C   UNL     1     -10.240  17.285  66.993  1.00  0.00    -0.320 C  
HETATM    5  C   UNL     1     -10.361  17.415  68.330  1.00  0.00    -0.379 C  
HETATM    6  C   UNL     1      -9.956  18.612  69.170  1.00  0.00    -0.237 C  
HETATM    7  C   UNL     1     -10.965  16.293  69.079  1.00  0.00    -0.325 A  
HETATM    8  C   UNL     1     -11.071  16.278  70.447  1.00  0.00    -0.311 A  
HETATM    9  N   UNL     1     -11.652  15.294  71.136  1.00  0.00    -0.338 NA 
HETATM   10  C   UNL     1     -12.192  14.265  70.479  1.00  0.00    -0.356 A  
HETATM   11  N   UNL     1     -12.119  14.168  69.144  1.00  0.00    -0.344 NA 
HETATM   12  O   UNL     1     -10.097  15.703  65.249  1.00  0.00    -0.343 OA 
HETATM   13  C   UNL     1     -10.563  15.964  66.357  1.00  0.00    -0.297 C  
HETATM   14  C   UNL     1     -11.509  15.176  68.459  1.00  0.00    -0.320 A  
HETATM   15  N   UNL     1     -11.382  15.072  67.044  1.00  0.00    -0.341 N  
BRANCH  10  16
HETATM   16  N   UNL     1     -12.878  13.292  71.202  1.00  0.00    -0.315 NA 
HETATM   17  H   UNL     1     -13.632  13.624  71.804  1.00  0.00     0.000 HD 
BRANCH  16  18
HETATM   18  C   UNL     1     -12.650  11.912  71.196  1.00  0.00    -0.288 A  
HETATM   19  C   UNL     1     -13.060   9.831  72.149  1.00  0.00    -0.422 A  
HETATM   20  C   UNL     1     -11.675  11.315  70.407  1.00  0.00    -0.398 A  
HETATM   21  C   UNL     1     -11.333   9.978  70.590  1.00  0.00    -0.425 A  
HETATM   22  N   UNL     1     -13.391  11.155  72.029  1.00  0.00    -0.401 NA 
HETATM   23  C   UNL     1     -11.999   9.182  71.513  1.00  0.00    -0.352 A  
BRANCH  23  24
HETATM   24  N   UNL     1     -11.606   7.882  71.729  1.00  0.00    -0.266 NA 
HETATM   25  C   UNL     1     -12.116   6.776  70.891  1.00  0.00    -0.367 C  
HETATM   26  C   UNL     1     -10.956   6.101  70.125  1.00  0.00    -0.358 C  
HETATM   27  N   UNL     1      -9.868   5.639  71.006  1.00  0.00    -0.172 NA 
HETATM   28  C   UNL     1      -9.382   6.774  71.818  1.00  0.00    -0.147 C  
HETATM   29  H   UNL     1      -9.117   5.185  70.487  1.00  0.00     0.000 HD 
HETATM   30  C   UNL     1     -10.496   7.494  72.611  1.00  0.00    -0.271 C  
ENDBRANCH  23  24
ENDBRANCH  16  18
ENDBRANCH  10  16
BRANCH  15  31
HETATM   31  C   UNL     1     -11.825  13.823  66.403  1.00  0.00    -0.404 C  
HETATM   32  C   UNL     1     -12.496  13.957  65.023  1.00  0.00    -0.447 C  
HETATM   33  C   UNL     1     -10.685  12.817  66.193  1.00  0.00    -0.297 C  
HETATM   34  C   UNL     1     -12.349  12.568  64.422  1.00  0.00    -0.537 C  
HETATM   35  C   UNL     1     -10.977  12.093  64.881  1.00  0.00    -0.355 C  
ENDBRANCH  15  31
ENDBRANCH   2   4
TORSDOF 5
ENDMDL
MODEL        3
REMARK 921   NORMALIZED FREE ENERGY PREDICTED BY IDOCK:   -8.53 KCAL/MOL
REMARK 922        TOTAL FREE ENERGY PREDICTED BY IDOCK:  -11.61 KCAL/MOL
REMARK 923 INTER-LIGAND FREE ENERGY PREDICTED BY IDOCK:  -11.10 KCAL/MOL
REMARK 924 INTRA-LIGAND FREE ENERGY PREDICTED BY IDOCK:   -0.51 KCAL/MOL
REMARK 927      BINDING AFFINITY PREDICTED BY RF-SCORE:    0.00 PKD
ROOT
HETATM    1  C   UNL     1     -10.649  19.703  65.921  1.00  0.00    -0.566 C  
HETATM    2  C   UNL     1      -9.694  18.576  66.219  1.00  0.00    -0.305 C  
HETATM    3  O   UNL     1      -8.515  18.692  65.877  1.00  0.00    -0.491 OA 
ENDROOT
BRANCH   2   4
HETATM    4  C   UNL     1     -10.173  17.368  66.990  1.00  0.00    -0.323 C  
HETATM    5  C   UNL     1     -10.349  17.416  68.327  1.00  0.00    -0.374 C  
HETATM    6  C   UNL     1     -10.008  18.570  69.251  1.00  0.00    -0.092 C  
HETATM    7  C   UNL     1     -10.951  16.236  68.985  1.00  0.00    -0.325 A  
HETATM    8  C   UNL     1     -11.109  16.138  70.344  1.00  0.00    -0.351 A  
HETATM    9  N   UNL     1     -11.691  15.102  70.951  1.00  0.00    -0.305 NA 
HETATM   10  C   UNL     1     -12.178  14.100  70.214  1.00  0.00    -0.349 A  
HETATM   11  N   UNL     1     -12.051  14.085  68.879  1.00  0.00    -0.347 NA 
HETATM   12  O   UNL     1      -9.922  15.896  65.164  1.00  0.00    -0.420 OA 
HETATM   13  C   UNL     1     -10.436  16.079  66.266  1.00  0.00    -0.320 C  
HETATM   14  C   UNL     1     -11.441  15.146  68.280  1.00  0.00    -0.336 A  
HETATM   15  N   UNL     1     -11.257  15.129  66.866  1.00  0.00    -0.321 N  
BRANCH  10  16
HETATM   16  N   UNL     1     -12.865  13.071  70.852  1.00  0.00    -0.202 NA 
HETATM   17  H   UNL     1     -13.758  13.319  71.277  1.00  0.00     0.000 HD 
BRANCH  16  18
HETATM   18  C   UNL     1     -12.469  11.734  70.974  1.00  0.00    -0.309 A  
HETATM   19  C   UNL     1     -11.145   9.982  70.209  1.00  0.00    -0.318 A  
HETATM   20  C   UNL     1     -13.123  10.828  71.800  1.00  0.00    -0.573 A  
HETATM   21  C   UNL     1     -12.838   9.468  71.728  1.00  0.00    -0.496 A  
HETATM   22  N   UNL     1     -11.432  11.322  70.219  1.00  0.00    -0.256 NA 
HETATM   23  C   UNL     1     -11.847   8.981  70.886  1.00  0.00    -0.253 A  
BRANCH  23  24
HETATM   24  N   UNL     1     -11.623   7.628  70.777  1.00  0.00    -0.284 NA 
HETATM   25  C   UNL     1     -10.466   7.100  70.023  1.00  0.00    -0.221 C  
HETATM   26  C   UNL     1      -9.521   6.318  70.964  1.00  0.00    -0.175 C  
HETATM   27  N   UNL     1     -10.202   5.244  71.709  1.00  0.00    -0.203 NA 
HETATM   28  C   UNL     1     -11.343   5.814  72.454  1.00  0.00    -0.294 C  
HETATM   29  H   UNL     1      -9.563   4.730  72.316  1.00  0.00     0.000 HD 
HETATM   30  C   UNL     1     -12.328   6.611  71.568  1.00  0.00    -0.313 C  
ENDBRANCH  23  24
ENDBRANCH  16  18
ENDBRANCH  10  16
BRANCH  15  31
HETATM   31  C   UNL     1     -11.643  13.909  66.137  1.00  0.00    -0.359 C  
HETATM   32  C   UNL     1     -12.326  14.111  64.771  1.00  0.00    -0.436 C  
HETATM   33  C   UNL     1     -10.456  12.978  65.853  1.00  0.00    -0.293 C  
HETATM   34  C   UNL     1     -12.114  12.778  64.070  1.00  0.00    -0.533 C  
HETATM   35  C   UNL     1     -10.719  12.338  64.493  1.00  0.00    -0.358 C  
ENDBRANCH  15  31
ENDBRANCH   2   4
TORSDOF 5
ENDMDL
MODEL        4
REMARK 921   NORMALIZED FREE ENERGY PREDICTED BY IDOCK:   -8.24 KCAL/MOL
REMARK 922        TOTAL FREE ENERGY PREDICTED BY IDOCK:  -11.24 KCAL/MOL
REMARK 923 INTER-LIGAND FREE ENERGY PREDICTED BY IDOCK:  -10.95 KCAL/MOL
REMARK 924 INTRA-LIGAND FREE ENERGY PREDICTED BY IDOCK:   -0.29 KCAL/MOL
REMARK 927      BINDING AFFINITY PREDICTED BY RF-SCORE:    0.00 PKD
ROOT
HETATM    1  C   UNL     1      -8.469  16.191  66.354  1.00  0.00    -0.369 C  
HETATM    2  C   UNL     1      -9.943  15.937  66.171  1.00  0.00    -0.314 C  
HETATM    3  O   UNL     1     -10.498  16.372  65.160  1.00  0.00    -0.622 OA 
ENDROOT
BRANCH   2   4
HETATM    4  C   UNL     1     -10.693  15.100  67.181  1.00  0.00    -0.310 C  
HETATM    5  C   UNL     1     -10.810  13.763  67.033  1.00  0.00    -0.288 C  
HETATM    6  C   UNL     1     -10.349  12.933  65.851  1.00  0.00    -0.297 C  
HETATM    7  C   UNL     1     -11.439  13.002  68.133  1.00  0.00    -0.356 A  
HETATM    8  C   UNL     1     -11.681  11.653  68.065  1.00  0.00    -0.281 A  
HETATM    9  N   UNL     1     -12.205  10.942  69.065  1.00  0.00    -0.450 NA 
HETATM   10  C   UNL     1     -12.497  11.549  70.218  1.00  0.00    -0.205 A  
HETATM   11  N   UNL     1     -12.324  12.869  70.380  1.00  0.00    -0.299 NA 
HETATM   12  O   UNL     1     -11.589  16.966  68.311  1.00  0.00     0.007 OA 
HETATM   13  C   UNL     1     -11.344  15.762  68.361  1.00  0.00    -0.372 C  
HETATM   14  C   UNL     1     -11.801  13.580  69.342  1.00  0.00    -0.335 A  
HETATM   15  N   UNL     1     -11.650  14.991  69.478  1.00  0.00    -0.292 N  
BRANCH  10  16
HETATM   16  N   UNL     1     -12.955  10.779  71.285  1.00  0.00    -0.400 NA 
HETATM   17  H   UNL     1     -13.666  11.207  71.878  1.00  0.00     0.000 HD 
BRANCH  16  18
HETATM   18  C   UNL     1     -12.550   9.486  71.634  1.00  0.00    -0.388 A  
HETATM   19  C   UNL     1     -10.815   8.019  72.129  1.00  0.00    -0.279 A  
HETATM   20  C   UNL     1     -13.415   8.399  71.625  1.00  0.00    -0.363 A  
HETATM   21  C   UNL     1     -12.928   7.103  71.765  1.00  0.00    -0.367 A  
HETATM   22  N   UNL     1     -11.253   9.305  71.949  1.00  0.00    -0.344 NA 
HETATM   23  C   UNL     1     -11.580   6.858  71.987  1.00  0.00    -0.285 A  
BRANCH  23  24
HETATM   24  N   UNL     1     -11.104   5.569  72.057  1.00  0.00    -0.220 NA 
HETATM   25  C   UNL     1     -10.149   5.048  71.055  1.00  0.00    -0.227 C  
HETATM   26  C   UNL     1      -8.811   4.673  71.731  1.00  0.00    -0.122 C  
HETATM   27  N   UNL     1      -8.970   3.728  72.851  1.00  0.00    -0.096 NA 
HETATM   28  C   UNL     1      -9.922   4.290  73.831  1.00  0.00    -0.141 C  
HETATM   29  H   UNL     1      -8.076   3.481  73.277  1.00  0.00     0.000 HD 
HETATM   30  C   UNL     1     -11.284   4.687  73.218  1.00  0.00    -0.325 C  
ENDBRANCH  23  24
ENDBRANCH  16  18
ENDBRANCH  10  16
BRANCH  15  31
HETATM   31  C   UNL     1     -12.170  15.624  70.701  1.00  0.00    -0.405 C  
HETATM   32  C   UNL     1     -13.606  15.245  71.114  1.00  0.00    -0.540 C  
HETATM   33  C   UNL     1     -11.312  15.334  71.940  1.00  0.00    -0.447 C  
HETATM   34  C   UNL     1     -13.651  15.597  72.594  1.00  0.00    -0.667 C  
HETATM   35  C   UNL     1     -12.273  15.223  73.121  1.00  0.00    -0.549 C  
ENDBRANCH  15  31
ENDBRANCH   2   4
TORSDOF 5
ENDMDL
MODEL        5
REMARK 921   NORMALIZED FREE ENERGY PREDICTED BY IDOCK:   -8.24 KCAL/MOL
REMARK 922        TOTAL FREE ENERGY PREDICTED BY IDOCK:  -11.23 KCAL/MOL
REMARK 923 INTER-LIGAND FREE ENERGY PREDICTED BY IDOCK:  -10.58 KCAL/MOL
REMARK 924 INTRA-LIGAND FREE ENERGY PREDICTED BY IDOCK:   -0.66 KCAL/MOL
REMARK 927      BINDING AFFINITY PREDICTED BY RF-SCORE:    0.00 PKD
ROOT
HETATM    1  C   UNL     1     -11.841   8.720  72.108  1.00  0.00    -0.436 C  
HETATM    2  C   UNL     1     -12.809   9.493  71.249  1.00  0.00    -0.333 C  
HETATM    3  O   UNL     1     -13.975   9.099  71.168  1.00  0.00    -0.247 OA 
ENDROOT
BRANCH   2   4
HETATM    4  C   UNL     1     -12.360  10.766  70.569  1.00  0.00    -0.458 C  
HETATM    5  C   UNL     1     -11.674  10.734  69.407  1.00  0.00    -0.378 C  
HETATM    6  C   UNL     1     -11.159   9.503  68.687  1.00  0.00    -0.034 C  
HETATM    7  C   UNL     1     -11.395  12.022  68.738  1.00  0.00    -0.331 A  
HETATM    8  C   UNL     1     -10.642  12.122  67.595  1.00  0.00    -0.210 A  
HETATM    9  N   UNL     1     -10.418  13.270  66.952  1.00  0.00    -0.260 NA 
HETATM   10  C   UNL     1     -10.966  14.397  67.413  1.00  0.00    -0.299 A  
HETATM   11  N   UNL     1     -11.696  14.413  68.537  1.00  0.00    -0.320 NA 
HETATM   12  O   UNL     1     -12.914  12.139  72.405  1.00  0.00    -0.214 OA 
HETATM   13  C   UNL     1     -12.659  12.094  71.203  1.00  0.00    -0.260 C  
HETATM   14  C   UNL     1     -11.902  13.233  69.187  1.00  0.00    -0.329 A  
HETATM   15  N   UNL     1     -12.638  13.235  70.407  1.00  0.00    -0.198 N  
BRANCH  10  16
HETATM   16  N   UNL     1     -10.802  15.571  66.682  1.00  0.00    -0.307 NA 
HETATM   17  H   UNL     1     -11.497  15.753  65.957  1.00  0.00     0.000 HD 
BRANCH  16  18
HETATM   18  C   UNL     1      -9.792  16.528  66.829  1.00  0.00    -0.266 A  
HETATM   19  C   UNL     1      -7.707  17.324  66.180  1.00  0.00    -0.282 A  
HETATM   20  C   UNL     1      -9.783  17.458  67.862  1.00  0.00    -0.272 A  
HETATM   21  C   UNL     1      -8.659  18.244  68.099  1.00  0.00    -0.290 A  
HETATM   22  N   UNL     1      -8.777  16.502  65.945  1.00  0.00    -0.467 NA 
HETATM   23  C   UNL     1      -7.544  18.177  67.275  1.00  0.00    -0.216 A  
BRANCH  23  24
HETATM   24  N   UNL     1      -6.416  18.911  67.562  1.00  0.00    -0.194 NA 
HETATM   25  C   UNL     1      -5.951  19.987  66.662  1.00  0.00    -0.174 C  
HETATM   26  C   UNL     1      -5.988  21.350  67.388  1.00  0.00    -0.343 C  
HETATM   27  N   UNL     1      -5.231  21.356  68.653  1.00  0.00    -0.475 NA 
HETATM   28  C   UNL     1      -5.732  20.274  69.525  1.00  0.00    -0.319 C  
HETATM   29  H   UNL     1      -5.255  22.266  69.113  1.00  0.00     0.000 HD 
HETATM   30  C   UNL     1      -5.722  18.880  68.857  1.00  0.00    -0.206 C  
ENDBRANCH  23  24
ENDBRANCH  16  18
ENDBRANCH  10  16
BRANCH  15  31
HETATM   31  C   UNL     1     -13.049  14.537  70.961  1.00  0.00    -0.366 C  
HETATM   32  C   UNL     1     -14.393  14.572  71.712  1.00  0.00    -0.609 C  
HETATM   33  C   UNL     1     -12.028  15.119  71.947  1.00  0.00    -0.465 C  
HETATM   34  C   UNL     1     -14.282  15.820  72.575  1.00  0.00    -0.406 C  
HETATM   35  C   UNL     1     -12.828  15.850  73.023  1.00  0.00    -0.615 C  
ENDBRANCH  15  31
ENDBRANCH   2   4
TORSDOF 5
ENDMDL
MODEL        6
REMARK 921   NORMALIZED FREE ENERGY PREDICTED BY IDOCK:   -7.85 KCAL/MOL
REMARK 922        TOTAL FREE ENERGY PREDICTED BY IDOCK:  -10.73 KCAL/MOL
REMARK 923 INTER-LIGAND FREE ENERGY PREDICTED BY IDOCK:  -10.51 KCAL/MOL
REMARK 924 INTRA-LIGAND FREE ENERGY PREDICTED BY IDOCK:   -0.22 KCAL/MOL
REMARK 927      BINDING AFFINITY PREDICTED BY RF-SCORE:    0.00 PKD
ROOT
HETATM    1  C   UNL     1      -9.518  20.283  65.973  1.00  0.00    -0.274 C  
HETATM    2  C   UNL     1     -10.378  19.319  66.748  1.00  0.00    -0.432 C  
HETATM    3  O   UNL     1     -11.393  19.745  67.304  1.00  0.00    -0.126 OA 
ENDROOT
BRANCH   2   4
HETATM    4  C   UNL     1     -10.030  17.848  66.768  1.00  0.00    -0.339 C  
HETATM    5  C   UNL     1      -9.182  17.343  67.687  1.00  0.00    -0.234 C  
HETATM    6  C   UNL     1      -8.385  18.120  68.718  1.00  0.00    -0.227 C  
HETATM    7  C   UNL     1      -9.002  15.876  67.725  1.00  0.00    -0.176 A  
HETATM    8  C   UNL     1      -8.111  15.253  68.562  1.00  0.00    -0.143 A  
HETATM    9  N   UNL     1      -7.968  13.929  68.642  1.00  0.00    -0.133 NA 
HETATM   10  C   UNL     1      -8.742  13.140  67.892  1.00  0.00    -0.192 A  
HETATM   11  N   UNL     1      -9.626  13.648  67.021  1.00  0.00    -0.243 NA 
HETATM   12  O   UNL     1     -11.052  17.408  64.688  1.00  0.00    -1.029 OA 
HETATM   13  C   UNL     1     -10.616  16.930  65.734  1.00  0.00    -0.230 C  
HETATM   14  C   UNL     1      -9.747  15.003  66.944  1.00  0.00    -0.238 A  
HETATM   15  N   UNL     1     -10.649  15.564  65.994  1.00  0.00    -0.314 N  
BRANCH  10  16
HETATM   16  N   UNL     1      -8.650  11.760  68.053  1.00  0.00    -0.151 NA 
HETATM   17  H   UNL     1      -7.884  11.298  67.562  1.00  0.00     0.000 HD 
BRANCH  16  18
HETATM   18  C   UNL     1      -9.489  10.936  68.811  1.00  0.00    -0.190 A  
HETATM   19  C   UNL     1     -11.589  10.558  69.734  1.00  0.00    -0.294 A  
HETATM   20  C   UNL     1      -9.019   9.843  69.530  1.00  0.00    -0.224 A  
HETATM   21  C   UNL     1      -9.842   9.185  70.439  1.00  0.00    -0.263 A  
HETATM   22  N   UNL     1     -10.795  11.259  68.864  1.00  0.00    -0.197 NA 
HETATM   23  C   UNL     1     -11.172   9.550  70.606  1.00  0.00    -0.302 A  
BRANCH  23  24
HETATM   24  N   UNL     1     -11.953   8.935  71.556  1.00  0.00    -0.312 NA 
HETATM   25  C   UNL     1     -13.257   9.501  71.962  1.00  0.00    -0.452 C  
HETATM   26  C   UNL     1     -14.402   8.522  71.615  1.00  0.00    -0.413 C  
HETATM   27  N   UNL     1     -14.209   7.177  72.185  1.00  0.00    -0.620 NA 
HETATM   28  C   UNL     1     -12.902   6.645  71.749  1.00  0.00    -0.179 C  
HETATM   29  H   UNL     1     -14.979   6.547  71.957  1.00  0.00     0.000 HD 
HETATM   30  C   UNL     1     -11.712   7.578  72.067  1.00  0.00    -0.294 C  
ENDBRANCH  23  24
ENDBRANCH  16  18
ENDBRANCH  10  16
BRANCH  15  31
HETATM   31  C   UNL     1     -11.328  14.645  65.065  1.00  0.00    -0.390 C  
HETATM   32  C   UNL     1     -10.448  13.577  64.387  1.00  0.00    -0.366 C  
HETATM   33  C   UNL     1     -12.469  13.858  65.724  1.00  0.00    -0.530 C  
HETATM   34  C   UNL     1     -11.450  12.517  63.955  1.00  0.00    -0.507 C  
HETATM   35  C   UNL     1     -12.475  12.474  65.079  1.00  0.00    -0.494 C  
ENDBRANCH  15  31
ENDBRANCH   2   4
TORSDOF 5
ENDMDL
MODEL        7
REMARK 921   NORMALIZED FREE ENERGY PREDICTED BY IDOCK:   -7.79 KCAL/MOL
REMARK 922        TOTAL FREE ENERGY PREDICTED BY IDOCK:  -10.66 KCAL/MOL
REMARK 923 INTER-LIGAND FREE ENERGY PREDICTED BY IDOCK:  -10.09 KCAL/MOL
REMARK 924 INTRA-LIGAND FREE ENERGY PREDICTED BY IDOCK:   -0.57 KCAL/MOL
REMARK 927      BINDING AFFINITY PREDICTED BY RF-SCORE:    0.00 PKD
ROOT
HETATM    1  C   UNL     1      -9.986  17.270  67.095  1.00  0.00    -0.282 C  
HETATM    2  C   UNL     1      -9.401  16.217  68.000  1.00  0.00    -0.214 C  
HETATM    3  O   UNL     1      -8.212  16.301  68.316  1.00  0.00    -0.163 OA 
ENDROOT
BRANCH   2   4
HETATM    4  C   UNL     1     -10.288  15.129  68.561  1.00  0.00    -0.230 C  
HETATM    5  C   UNL     1     -10.399  13.932  67.948  1.00  0.00    -0.240 C  
HETATM    6  C   UNL     1      -9.794  13.530  66.616  1.00  0.00    -0.279 C  
HETATM    7  C   UNL     1     -11.175  12.877  68.633  1.00  0.00    -0.321 A  
HETATM    8  C   UNL     1     -11.421  11.648  68.075  1.00  0.00    -0.315 A  
HETATM    9  N   UNL     1     -12.081  10.669  68.698  1.00  0.00    -0.360 NA 
HETATM   10  C   UNL     1     -12.516  10.862  69.945  1.00  0.00    -0.224 A  
HETATM   11  N   UNL     1     -12.352  12.036  70.572  1.00  0.00    -0.319 NA 
HETATM   12  O   UNL     1     -11.305  16.546  70.148  1.00  0.00    -0.267 OA 
HETATM   13  C   UNL     1     -11.082  15.385  69.809  1.00  0.00    -0.288 C  
HETATM   14  C   UNL     1     -11.688  13.028  69.914  1.00  0.00    -0.256 A  
HETATM   15  N   UNL     1     -11.541  14.297  70.545  1.00  0.00    -0.227 N  
BRANCH  10  16
HETATM   16  N   UNL     1     -13.120   9.802  70.617  1.00  0.00    -0.586 NA 
HETATM   17  H   UNL     1     -14.139   9.776  70.597  1.00  0.00     0.000 HD 
BRANCH  16  18
HETATM   18  C   UNL     1     -12.485   8.769  71.316  1.00  0.00    -0.260 A  
HETATM   19  C   UNL     1     -10.620   8.023  72.486  1.00  0.00    -0.329 A  
HETATM   20  C   UNL     1     -12.978   7.471  71.350  1.00  0.00    -0.379 A  
HETATM   21  C   UNL     1     -12.210   6.433  71.869  1.00  0.00    -0.332 A  
HETATM   22  N   UNL     1     -11.329   9.061  71.942  1.00  0.00    -0.369 NA 
HETATM   23  C   UNL     1     -10.962   6.669  72.432  1.00  0.00    -0.244 A  
BRANCH  23  24
HETATM   24  N   UNL     1     -10.186   5.625  72.880  1.00  0.00    -0.180 NA 
HETATM   25  C   UNL     1     -10.513   4.909  74.131  1.00  0.00    -0.286 C  
HETATM   26  C   UNL     1     -10.832   3.426  73.835  1.00  0.00    -0.217 C  
HETATM   27  N   UNL     1      -9.760   2.736  73.095  1.00  0.00    -0.098 NA 
HETATM   28  C   UNL     1      -9.471   3.479  71.850  1.00  0.00    -0.137 C  
HETATM   29  H   UNL     1      -9.981   1.756  72.918  1.00  0.00     0.000 HD 
HETATM   30  C   UNL     1      -9.143   4.972  72.077  1.00  0.00    -0.136 C  
ENDBRANCH  23  24
ENDBRANCH  16  18
ENDBRANCH  10  16
BRANCH  15  31
HETATM   31  C   UNL     1     -12.213  14.504  71.840  1.00  0.00    -0.285 C  
HETATM   32  C   UNL     1     -11.545  15.496  72.811  1.00  0.00    -0.472 C  
HETATM   33  C   UNL     1     -13.657  15.002  71.695  1.00  0.00    -0.530 C  
HETATM   34  C   UNL     1     -12.676  15.885  73.751  1.00  0.00    -0.729 C  
HETATM   35  C   UNL     1     -13.908  15.955  72.861  1.00  0.00    -0.530 C  
ENDBRANCH  15  31
ENDBRANCH   2   4
TORSDOF 5
ENDMDL
MODEL        8
REMARK 921   NORMALIZED FREE ENERGY PREDICTED BY IDOCK:   -7.72 KCAL/MOL
REMARK 922        TOTAL FREE ENERGY PREDICTED BY IDOCK:  -10.56 KCAL/MOL
REMARK 923 INTER-LIGAND FREE ENERGY PREDICTED BY IDOCK:  -10.34 KCAL/MOL
REMARK 924 INTRA-LIGAND FREE ENERGY PREDICTED BY IDOCK:   -0.23 KCAL/MOL
REMARK 927      BINDING AFFINITY PREDICTED BY RF-SCORE:    0.00 PKD
ROOT
HETATM    1  C   UNL     1      -9.462  19.893  65.853  1.00  0.00    -0.294 C  
HETATM    2  C   UNL     1     -10.206  18.855  66.652  1.00  0.00    -0.405 C  
HETATM    3  O   UNL     1     -11.129  19.220  67.384  1.00  0.00    -0.444 OA 
ENDROOT
BRANCH   2   4
HETATM    4  C   UNL     1      -9.864  17.392  66.489  1.00  0.00    -0.310 C  
HETATM    5  C   UNL     1      -8.888  16.816  67.222  1.00  0.00    -0.216 C  
HETATM    6  C   UNL     1      -7.944  17.507  68.186  1.00  0.00    -0.250 C  
HETATM    7  C   UNL     1      -8.711  15.353  67.102  1.00  0.00    -0.243 A  
HETATM    8  C   UNL     1      -7.706  14.668  67.738  1.00  0.00    -0.157 A  
HETATM    9  N   UNL     1      -7.558  13.343  67.677  1.00  0.00    -0.159 NA 
HETATM   10  C   UNL     1      -8.438  12.616  66.985  1.00  0.00    -0.150 A  
HETATM   11  N   UNL     1      -9.441  13.190  66.305  1.00  0.00    -0.227 NA 
HETATM   12  O   UNL     1     -11.187  17.127  64.555  1.00  0.00    -1.104 OA 
HETATM   13  C   UNL     1     -10.602  16.563  65.478  1.00  0.00    -0.295 C  
HETATM   14  C   UNL     1      -9.567  14.545  66.367  1.00  0.00    -0.303 A  
HETATM   15  N   UNL     1     -10.600  15.179  65.617  1.00  0.00    -0.331 N  
BRANCH  10  16
HETATM   16  N   UNL     1      -8.327  11.228  67.007  1.00  0.00    -0.146 NA 
HETATM   17  H   UNL     1      -7.724  10.811  66.298  1.00  0.00     0.000 HD 
BRANCH  16  18
HETATM   18  C   UNL     1      -8.950  10.341  67.892  1.00  0.00    -0.131 A  
HETATM   19  C   UNL     1     -10.517   8.657  68.234  1.00  0.00    -0.184 A  
HETATM   20  C   UNL     1      -8.779  10.408  69.269  1.00  0.00    -0.160 A  
HETATM   21  C   UNL     1      -9.580   9.655  70.121  1.00  0.00    -0.300 A  
HETATM   22  N   UNL     1      -9.778   9.417  67.366  1.00  0.00    -0.152 NA 
HETATM   23  C   UNL     1     -10.523   8.763  69.627  1.00  0.00    -0.220 A  
BRANCH  23  24
HETATM   24  N   UNL     1     -11.353   8.075  70.482  1.00  0.00    -0.257 NA 
HETATM   25  C   UNL     1     -11.570   6.621  70.335  1.00  0.00    -0.398 C  
HETATM   26  C   UNL     1     -11.065   5.871  71.588  1.00  0.00    -0.258 C  
HETATM   27  N   UNL     1     -11.657   6.370  72.843  1.00  0.00    -0.492 NA 
HETATM   28  C   UNL     1     -11.410   7.823  72.954  1.00  0.00    -0.349 C  
HETATM   29  H   UNL     1     -11.323   5.857  73.659  1.00  0.00     0.000 HD 
HETATM   30  C   UNL     1     -11.893   8.632  71.730  1.00  0.00    -0.337 C  
ENDBRANCH  23  24
ENDBRANCH  16  18
ENDBRANCH  10  16
BRANCH  15  31
HETATM   31  C   UNL     1     -11.414  14.338  64.722  1.00  0.00    -0.393 C  
HETATM   32  C   UNL     1     -10.675  13.212  63.975  1.00  0.00    -0.330 C  
HETATM   33  C   UNL     1     -12.574  13.640  65.445  1.00  0.00    -0.533 C  
HETATM   34  C   UNL     1     -11.791  12.250  63.595  1.00  0.00    -0.610 C  
HETATM   35  C   UNL     1     -12.741  12.274  64.783  1.00  0.00    -0.198 C  
ENDBRANCH  15  31
ENDBRANCH   2   4
TORSDOF 5
ENDMDL
MODEL        9
REMARK 921   NORMALIZED FREE ENERGY PREDICTED BY IDOCK:   -7.64 KCAL/MOL
REMARK 922        TOTAL FREE ENERGY PREDICTED BY IDOCK:  -10.46 KCAL/MOL
REMARK 923 INTER-LIGAND FREE ENERGY PREDICTED BY IDOCK:  -10.03 KCAL/MOL
REMARK 924 INTRA-LIGAND FREE ENERGY PREDICTED BY IDOCK:   -0.43 KCAL/MOL
REMARK 927      BINDING AFFINITY PREDICTED BY RF-SCORE:    0.00 PKD
ROOT
HETATM    1  C   UNL     1      -8.712  16.778  66.417  1.00  0.00    -0.337 C  
HETATM    2  C   UNL     1     -10.124  16.304  66.189  1.00  0.00    -0.344 C  
HETATM    3  O   UNL     1     -10.793  16.839  65.302  1.00  0.00    -0.497 OA 
ENDROOT
BRANCH   2   4
HETATM    4  C   UNL     1     -10.667  15.143  66.991  1.00  0.00    -0.307 C  
HETATM    5  C   UNL     1     -10.694  13.893  66.482  1.00  0.00    -0.277 C  
HETATM    6  C   UNL     1     -10.324  13.475  65.072  1.00  0.00    -0.379 C  
HETATM    7  C   UNL     1     -11.111  12.795  67.379  1.00  0.00    -0.312 A  
HETATM    8  C   UNL     1     -11.250  11.497  66.956  1.00  0.00    -0.300 A  
HETATM    9  N   UNL     1     -11.581  10.485  67.761  1.00  0.00    -0.407 NA 
HETATM   10  C   UNL     1     -11.769  10.718  69.062  1.00  0.00    -0.286 A  
HETATM   11  N   UNL     1     -11.685  11.955  69.573  1.00  0.00    -0.322 NA 
HETATM   12  O   UNL     1     -11.558  16.517  68.689  1.00  0.00    -0.261 OA 
HETATM   13  C   UNL     1     -11.211  15.381  68.370  1.00  0.00    -0.315 C  
HETATM   14  C   UNL     1     -11.359  12.976  68.733  1.00  0.00    -0.289 A  
HETATM   15  N   UNL     1     -11.307  14.305  69.247  1.00  0.00    -0.270 N  
BRANCH  10  16
HETATM   16  N   UNL     1     -12.022   9.640  69.907  1.00  0.00    -0.451 NA 
HETATM   17  H   UNL     1     -12.906   9.153  69.766  1.00  0.00     0.000 HD 
BRANCH  16  18
HETATM   18  C   UNL     1     -11.199   9.151  70.928  1.00  0.00    -0.295 A  
HETATM   19  C   UNL     1      -9.050   8.819  71.753  1.00  0.00    -0.235 A  
HETATM   20  C   UNL     1     -11.679   8.369  71.971  1.00  0.00    -0.417 A  
HETATM   21  C   UNL     1     -10.801   7.726  72.838  1.00  0.00    -0.453 A  
HETATM   22  N   UNL     1      -9.883   9.430  70.853  1.00  0.00    -0.283 NA 
HETATM   23  C   UNL     1      -9.427   7.899  72.735  1.00  0.00    -0.241 A  
BRANCH  23  24
HETATM   24  N   UNL     1      -8.569   7.204  73.556  1.00  0.00    -0.131 NA 
HETATM   25  C   UNL     1      -8.956   5.906  74.147  1.00  0.00    -0.123 C  
HETATM   26  C   UNL     1      -8.020   4.784  73.643  1.00  0.00    -0.106 C  
HETATM   27  N   UNL     1      -6.593   5.068  73.878  1.00  0.00    -0.067 NA 
HETATM   28  C   UNL     1      -6.247   6.367  73.266  1.00  0.00    -0.063 C  
HETATM   29  H   UNL     1      -5.990   4.313  73.551  1.00  0.00     0.000 HD 
HETATM   30  C   UNL     1      -7.148   7.534  73.729  1.00  0.00    -0.091 C  
ENDBRANCH  23  24
ENDBRANCH  16  18
ENDBRANCH  10  16
BRANCH  15  31
HETATM   31  C   UNL     1     -11.715  14.517  70.646  1.00  0.00    -0.270 C  
HETATM   32  C   UNL     1     -11.191  15.795  71.329  1.00  0.00    -0.376 C  
HETATM   33  C   UNL     1     -13.238  14.567  70.827  1.00  0.00    -0.313 C  
HETATM   34  C   UNL     1     -12.157  15.998  72.486  1.00  0.00    -0.635 C  
HETATM   35  C   UNL     1     -13.513  15.583  71.932  1.00  0.00    -0.576 C  
ENDBRANCH  15  31
ENDBRANCH   2   4
TORSDOF 5
ENDMDL
MODEL       10
REMARK 921   NORMALIZED FREE ENERGY PREDICTED BY IDOCK:   -7.60 KCAL/MOL
REMARK 922        TOTAL FREE ENERGY PREDICTED BY IDOCK:  -10.42 KCAL/MOL
REMARK 923 INTER-LIGAND FREE ENERGY PREDICTED BY IDOCK:   -9.87 KCAL/MOL
REMARK 924 INTRA-LIGAND FREE ENERGY PREDICTED BY IDOCK:   -0.54 KCAL/MOL
REMARK 927      BINDING AFFINITY PREDICTED BY RF-SCORE:    0.00 PKD
ROOT
HETATM    1  C   UNL     1      -9.285   6.500  71.463  1.00  0.00    -0.144 C  
HETATM    2  C   UNL     1     -10.556   6.716  70.682  1.00  0.00    -0.227 C  
HETATM    3  O   UNL     1     -11.246   5.737  70.391  1.00  0.00    -0.286 OA 
ENDROOT
BRANCH   2   4
HETATM    4  C   UNL     1     -10.997   8.120  70.337  1.00  0.00    -0.248 C  
HETATM    5  C   UNL     1     -11.715   8.861  71.207  1.00  0.00    -0.370 C  
HETATM    6  C   UNL     1     -12.274   8.412  72.543  1.00  0.00    -0.381 C  
HETATM    7  C   UNL     1     -11.987  10.269  70.849  1.00  0.00    -0.473 A  
HETATM    8  C   UNL     1     -12.769  11.097  71.615  1.00  0.00    -0.360 A  
HETATM    9  N   UNL     1     -12.988  12.383  71.331  1.00  0.00    -0.321 NA 
HETATM   10  C   UNL     1     -12.405  12.926  70.260  1.00  0.00    -0.223 A  
HETATM   11  N   UNL     1     -11.645  12.198  69.430  1.00  0.00    -0.302 NA 
HETATM   12  O   UNL     1     -10.367   7.939  68.072  1.00  0.00    -0.203 OA 
HETATM   13  C   UNL     1     -10.655   8.699  68.995  1.00  0.00    -0.160 C  
HETATM   14  C   UNL     1     -11.444  10.884  69.729  1.00  0.00    -0.313 A  
HETATM   15  N   UNL     1     -10.675  10.081  68.837  1.00  0.00    -0.211 N  
BRANCH  10  16
HETATM   16  N   UNL     1     -12.566  14.290  70.027  1.00  0.00    -0.461 NA 
HETATM   17  H   UNL     1     -13.370  14.732  70.471  1.00  0.00     0.000 HD 
BRANCH  16  18
HETATM   18  C   UNL     1     -11.748  15.120  69.253  1.00  0.00    -0.329 A  
HETATM   19  C   UNL     1     -10.297  16.934  69.149  1.00  0.00    -0.319 A  
HETATM   20  C   UNL     1     -11.742  15.086  67.864  1.00  0.00    -0.310 A  
HETATM   21  C   UNL     1     -11.084  16.069  67.132  1.00  0.00    -0.104 A  
HETATM   22  N   UNL     1     -10.972  16.009  69.902  1.00  0.00    -0.326 NA 
HETATM   23  C   UNL     1     -10.355  17.071  67.760  1.00  0.00    -0.335 A  
BRANCH  23  24
HETATM   24  N   UNL     1      -9.765  18.074  67.026  1.00  0.00    -0.291 NA 
HETATM   25  C   UNL     1     -10.524  19.276  66.621  1.00  0.00    -0.449 C  
HETATM   26  C   UNL     1      -9.906  20.543  67.256  1.00  0.00    -0.441 C  
HETATM   27  N   UNL     1      -8.470  20.699  66.963  1.00  0.00    -0.551 NA 
HETATM   28  C   UNL     1      -7.749  19.482  67.390  1.00  0.00    -0.251 C  
HETATM   29  H   UNL     1      -8.080  21.545  67.378  1.00  0.00     0.000 HD 
HETATM   30  C   UNL     1      -8.319  18.177  66.788  1.00  0.00    -0.254 C  
ENDBRANCH  23  24
ENDBRANCH  16  18
ENDBRANCH  10  16
BRANCH  15  31
HETATM   31  C   UNL     1     -10.224  10.694  67.576  1.00  0.00    -0.199 C  
HETATM   32  C   UNL     1     -11.272  11.507  66.793  1.00  0.00    -0.350 C  
HETATM   33  C   UNL     1      -9.038  11.650  67.763  1.00  0.00    -0.175 C  
HETATM   34  C   UNL     1     -10.428  12.403  65.899  1.00  0.00    -0.284 C  
HETATM   35  C   UNL     1      -9.230  12.784  66.758  1.00  0.00    -0.225 C  
ENDBRANCH  15  31
ENDBRANCH   2   4
TORSDOF 5
ENDMDL
MODEL       11
REMARK 921   NORMALIZED FREE ENERGY PREDICTED BY IDOCK:   -7.53 KCAL/MOL
REMARK 922        TOTAL FREE ENERGY PREDICTED BY IDOCK:  -10.33 KCAL/MOL
REMARK 923 INTER-LIGAND FREE ENERGY PREDICTED BY IDOCK:   -9.62 KCAL/MOL
REMARK 924 INTRA-LIGAND FREE ENERGY PREDICTED BY IDOCK:   -0.71 KCAL/MOL
REMARK 927      BINDING AFFINITY PREDICTED BY RF-SCORE:    0.00 PKD
ROOT
HETATM    1  C   UNL     1     -10.179   7.888  73.141  1.00  0.00    -0.358 C  
HETATM    2  C   UNL     1     -11.271   7.665  72.127  1.00  0.00    -0.284 C  
HETATM    3  O   UNL     1     -12.229   6.952  72.435  1.00  0.00    -0.172 OA 
ENDROOT
BRANCH   2   4
HETATM    4  C   UNL     1     -11.213   8.369  70.791  1.00  0.00    -0.290 C  
HETATM    5  C   UNL     1     -11.755   9.593  70.622  1.00  0.00    -0.353 C  
HETATM    6  C   UNL     1     -12.568  10.378  71.633  1.00  0.00    -0.521 C  
HETATM    7  C   UNL     1     -11.534  10.269  69.326  1.00  0.00    -0.223 A  
HETATM    8  C   UNL     1     -12.097  11.480  69.009  1.00  0.00    -0.238 A  
HETATM    9  N   UNL     1     -11.873  12.126  67.863  1.00  0.00    -0.490 NA 
HETATM   10  C   UNL     1     -11.037  11.598  66.966  1.00  0.00    -0.302 A  
HETATM   11  N   UNL     1     -10.455  10.406  67.165  1.00  0.00    -0.242 NA 
HETATM   12  O   UNL     1     -10.427   6.468  69.636  1.00  0.00    -0.190 OA 
HETATM   13  C   UNL     1     -10.564   7.690  69.620  1.00  0.00    -0.243 C  
HETATM   14  C   UNL     1     -10.708   9.756  68.335  1.00  0.00    -0.221 A  
HETATM   15  N   UNL     1     -10.135   8.468  68.549  1.00  0.00    -0.189 N  
BRANCH  10  16
HETATM   16  N   UNL     1     -10.739  12.325  65.817  1.00  0.00    -0.255 NA 
HETATM   17  H   UNL     1     -10.826  11.828  64.931  1.00  0.00     0.000 HD 
BRANCH  16  18
HETATM   18  C   UNL     1     -10.332  13.662  65.741  1.00  0.00    -0.298 A  
HETATM   19  C   UNL     1      -8.997  15.377  66.567  1.00  0.00    -0.309 A  
HETATM   20  C   UNL     1     -10.977  14.600  64.944  1.00  0.00    -0.419 A  
HETATM   21  C   UNL     1     -10.681  15.955  65.062  1.00  0.00    -0.426 A  
HETATM   22  N   UNL     1      -9.294  14.041  66.511  1.00  0.00    -0.276 NA 
HETATM   23  C   UNL     1      -9.689  16.406  65.923  1.00  0.00    -0.294 A  
BRANCH  23  24
HETATM   24  N   UNL     1      -9.454  17.752  66.077  1.00  0.00    -0.527 NA 
HETATM   25  C   UNL     1     -10.529  18.747  65.875  1.00  0.00    -0.376 C  
HETATM   26  C   UNL     1     -10.810  19.512  67.188  1.00  0.00    -0.437 C  
HETATM   27  N   UNL     1      -9.608  20.142  67.762  1.00  0.00    -0.379 NA 
HETATM   28  C   UNL     1      -8.564  19.115  67.957  1.00  0.00    -0.310 C  
HETATM   29  H   UNL     1      -9.813  20.653  68.621  1.00  0.00     0.000 HD 
HETATM   30  C   UNL     1      -8.235  18.312  66.678  1.00  0.00    -0.262 C  
ENDBRANCH  23  24
ENDBRANCH  16  18
ENDBRANCH  10  16
BRANCH  15  31
HETATM   31  C   UNL     1      -9.381   7.859  67.440  1.00  0.00    -0.141 C  
HETATM   32  C   UNL     1      -8.042   7.191  67.804  1.00  0.00    -0.115 C  
HETATM   33  C   UNL     1     -10.175   6.776  66.696  1.00  0.00    -0.211 C  
HETATM   34  C   UNL     1      -7.791   6.245  66.639  1.00  0.00    -0.104 C  
HETATM   35  C   UNL     1      -9.169   5.708  66.277  1.00  0.00    -0.165 C  
ENDBRANCH  15  31
ENDBRANCH   2   4
TORSDOF 5
ENDMDL
MODEL       12
REMARK 921   NORMALIZED FREE ENERGY PREDICTED BY IDOCK:   -7.42 KCAL/MOL
REMARK 922        TOTAL FREE ENERGY PREDICTED BY IDOCK:  -10.18 KCAL/MOL
REMARK 923 INTER-LIGAND FREE ENERGY PREDICTED BY IDOCK:   -9.51 KCAL/MOL
REMARK 924 INTRA-LIGAND FREE ENERGY PREDICTED BY IDOCK:   -0.66 KCAL/MOL
REMARK 927      BINDING AFFINITY PREDICTED BY RF-SCORE:    0.00 PKD
ROOT
HETATM    1  C   UNL     1     -11.709  15.811  72.091  1.00  0.00    -0.573 C  
HETATM    2  C   UNL     1     -12.813  15.160  71.299  1.00  0.00    -0.391 C  
HETATM    3  O   UNL     1     -13.873  15.772  71.147  1.00  0.00    -0.537 OA 
ENDROOT
BRANCH   2   4
HETATM    4  C   UNL     1     -12.581  13.817  70.646  1.00  0.00    -0.386 C  
HETATM    5  C   UNL     1     -12.085  13.723  69.395  1.00  0.00    -0.377 C  
HETATM    6  C   UNL     1     -11.804  14.865  68.438  1.00  0.00    -0.309 C  
HETATM    7  C   UNL     1     -11.758  12.375  68.884  1.00  0.00    -0.372 A  
HETATM    8  C   UNL     1     -11.320  12.147  67.603  1.00  0.00    -0.314 A  
HETATM    9  N   UNL     1     -10.978  10.943  67.140  1.00  0.00    -0.282 NA 
HETATM   10  C   UNL     1     -11.032   9.887  67.954  1.00  0.00    -0.223 A  
HETATM   11  N   UNL     1     -11.471   9.996  69.217  1.00  0.00    -0.118 NA 
HETATM   12  O   UNL     1     -13.723  12.618  72.327  1.00  0.00    -0.507 OA 
HETATM   13  C   UNL     1     -12.929  12.559  71.389  1.00  0.00    -0.251 C  
HETATM   14  C   UNL     1     -11.830  11.231  69.667  1.00  0.00    -0.360 A  
HETATM   15  N   UNL     1     -12.341  11.362  70.991  1.00  0.00    -0.366 N  
BRANCH  10  16
HETATM   16  N   UNL     1     -10.583   8.655  67.487  1.00  0.00    -0.412 NA 
HETATM   17  H   UNL     1     -10.592   8.524  66.475  1.00  0.00     0.000 HD 
BRANCH  16  18
HETATM   18  C   UNL     1     -10.120   7.576  68.248  1.00  0.00    -0.183 A  
HETATM   19  C   UNL     1     -10.563   5.527  69.256  1.00  0.00    -0.255 A  
HETATM   20  C   UNL     1      -8.889   7.583  68.892  1.00  0.00    -0.135 A  
HETATM   21  C   UNL     1      -8.563   6.590  69.811  1.00  0.00    -0.136 A  
HETATM   22  N   UNL     1     -10.937   6.513  68.380  1.00  0.00    -0.288 NA 
HETATM   23  C   UNL     1      -9.420   5.526  70.060  1.00  0.00    -0.159 A  
BRANCH  23  24
HETATM   24  N   UNL     1      -9.114   4.589  71.019  1.00  0.00    -0.127 NA 
HETATM   25  C   UNL     1      -9.504   4.779  72.432  1.00  0.00    -0.134 C  
HETATM   26  C   UNL     1     -10.482   3.668  72.876  1.00  0.00    -0.156 C  
HETATM   27  N   UNL     1      -9.958   2.309  72.651  1.00  0.00    -0.124 NA 
HETATM   28  C   UNL     1      -9.588   2.157  71.228  1.00  0.00    -0.146 C  
HETATM   29  H   UNL     1     -10.609   1.587  72.960  1.00  0.00     0.000 HD 
HETATM   30  C   UNL     1      -8.610   3.241  70.721  1.00  0.00    -0.071 C  
ENDBRANCH  23  24
ENDBRANCH  16  18
ENDBRANCH  10  16
BRANCH  15  31
HETATM   31  C   UNL     1     -12.556  10.131  71.770  1.00  0.00    -0.403 C  
HETATM   32  C   UNL     1     -13.739   9.243  71.339  1.00  0.00    -0.325 C  
HETATM   33  C   UNL     1     -11.338   9.198  71.768  1.00  0.00    -0.451 C  
HETATM   34  C   UNL     1     -13.391   7.883  71.927  1.00  0.00    -0.318 C  
HETATM   35  C   UNL     1     -11.881   7.771  71.770  1.00  0.00    -0.328 C  
ENDBRANCH  15  31
ENDBRANCH   2   4
TORSDOF 5
ENDMDL
MODEL       13
REMARK 921   NORMALIZED FREE ENERGY PREDICTED BY IDOCK:   -7.32 KCAL/MOL
REMARK 922        TOTAL FREE ENERGY PREDICTED BY IDOCK:  -10.05 KCAL/MOL
REMARK 923 INTER-LIGAND FREE ENERGY PREDICTED BY IDOCK:  -10.14 KCAL/MOL
REMARK 924 INTRA-LIGAND FREE ENERGY PREDICTED BY IDOCK:    0.09 KCAL/MOL
REMARK 927      BINDING AFFINITY PREDICTED BY RF-SCORE:    0.00 PKD
ROOT
HETATM    1  C   UNL     1      -9.440   6.755  71.888  1.00  0.00    -0.146 C  
HETATM    2  C   UNL     1     -10.655   6.944  71.018  1.00  0.00    -0.220 C  
HETATM    3  O   UNL     1     -11.563   6.112  71.078  1.00  0.00    -0.303 OA 
ENDROOT
BRANCH   2   4
HETATM    4  C   UNL     1     -10.774   8.176  70.150  1.00  0.00    -0.243 C  
HETATM    5  C   UNL     1     -10.279   8.198  68.894  1.00  0.00    -0.221 C  
HETATM    6  C   UNL     1      -9.465   7.113  68.216  1.00  0.00    -0.133 C  
HETATM    7  C   UNL     1     -10.559   9.389  68.066  1.00  0.00    -0.278 A  
HETATM    8  C   UNL     1     -10.047   9.559  66.804  1.00  0.00    -0.245 A  
HETATM    9  N   UNL     1     -10.325  10.606  66.025  1.00  0.00    -0.245 NA 
HETATM   10  C   UNL     1     -11.167  11.545  66.464  1.00  0.00    -0.259 A  
HETATM   11  N   UNL     1     -11.702  11.488  67.692  1.00  0.00    -0.594 NA 
HETATM   12  O   UNL     1     -11.526   9.549  71.914  1.00  0.00    -0.355 OA 
HETATM   13  C   UNL     1     -11.432   9.410  70.696  1.00  0.00    -0.284 C  
HETATM   14  C   UNL     1     -11.394  10.419  68.478  1.00  0.00    -0.220 A  
HETATM   15  N   UNL     1     -11.917  10.361  69.803  1.00  0.00    -0.211 N  
BRANCH  10  16
HETATM   16  N   UNL     1     -11.522  12.582  65.606  1.00  0.00    -0.342 NA 
HETATM   17  H   UNL     1     -12.261  12.380  64.933  1.00  0.00     0.000 HD 
BRANCH  16  18
HETATM   18  C   UNL     1     -10.979  13.871  65.563  1.00  0.00    -0.302 A  
HETATM   19  C   UNL     1      -9.452  15.407  66.409  1.00  0.00    -0.296 A  
HETATM   20  C   UNL     1     -11.541  14.900  64.817  1.00  0.00    -0.410 A  
HETATM   21  C   UNL     1     -11.103  16.211  64.972  1.00  0.00    -0.304 A  
HETATM   22  N   UNL     1      -9.889  14.112  66.316  1.00  0.00    -0.296 NA 
HETATM   23  C   UNL     1     -10.048  16.525  65.819  1.00  0.00    -0.303 A  
BRANCH  23  24
HETATM   24  N   UNL     1      -9.669  17.833  66.012  1.00  0.00    -0.533 NA 
HETATM   25  C   UNL     1     -10.656  18.932  65.963  1.00  0.00    -0.403 C  
HETATM   26  C   UNL     1     -10.736  19.646  67.332  1.00  0.00    -0.435 C  
HETATM   27  N   UNL     1      -9.430  20.129  67.813  1.00  0.00    -0.363 NA 
HETATM   28  C   UNL     1      -8.478  19.001  67.855  1.00  0.00    -0.296 C  
HETATM   29  H   UNL     1      -9.502  20.609  68.711  1.00  0.00     0.000 HD 
HETATM   30  C   UNL     1      -8.350  18.243  66.514  1.00  0.00    -0.266 C  
ENDBRANCH  23  24
ENDBRANCH  16  18
ENDBRANCH  10  16
BRANCH  15  31
HETATM   31  C   UNL     1     -12.681  11.522  70.292  1.00  0.00    -0.010 C  
HETATM   32  C   UNL     1     -13.269  11.410  71.711  1.00  0.00    -0.472 C  
HETATM   33  C   UNL     1     -11.860  12.819  70.304  1.00  0.00    -0.292 C  
HETATM   34  C   UNL     1     -13.504  12.858  72.111  1.00  0.00    -0.619 C  
HETATM   35  C   UNL     1     -12.324  13.616  71.520  1.00  0.00    -0.242 C  
ENDBRANCH  15  31
ENDBRANCH   2   4
TORSDOF 5
ENDMDL
MODEL       14
REMARK 921   NORMALIZED FREE ENERGY PREDICTED BY IDOCK:   -7.28 KCAL/MOL
REMARK 922        TOTAL FREE ENERGY PREDICTED BY IDOCK:  -10.00 KCAL/MOL
REMARK 923 INTER-LIGAND FREE ENERGY PREDICTED BY IDOCK:  -10.07 KCAL/MOL
REMARK 924 INTRA-LIGAND FREE ENERGY PREDICTED BY IDOCK:    0.07 KCAL/MOL
REMARK 927      BINDING AFFINITY PREDICTED BY RF-SCORE:    0.00 PKD
ROOT
HETATM    1  C   UNL     1     -11.857   8.056  72.589  1.00  0.00    -0.380 C  
HETATM    2  C   UNL     1     -12.715   8.963  71.747  1.00  0.00    -0.364 C  
HETATM    3  O   UNL     1     -13.924   8.731  71.668  1.00  0.00    -0.399 OA 
ENDROOT
BRANCH   2   4
HETATM    4  C   UNL     1     -12.103  10.174  71.080  1.00  0.00    -0.485 C  
HETATM    5  C   UNL     1     -11.130  10.045  70.154  1.00  0.00    -0.371 C  
HETATM    6  C   UNL     1     -10.438   8.763  69.730  1.00  0.00    -0.222 C  
HETATM    7  C   UNL     1     -10.683  11.266  69.451  1.00  0.00    -0.188 A  
HETATM    8  C   UNL     1      -9.652  11.273  68.546  1.00  0.00    -0.198 A  
HETATM    9  N   UNL     1      -9.265  12.356  67.870  1.00  0.00    -0.185 NA 
HETATM   10  C   UNL     1      -9.918  13.507  68.046  1.00  0.00    -0.248 A  
HETATM   11  N   UNL     1     -10.923  13.615  68.927  1.00  0.00    -0.249 NA 
HETATM   12  O   UNL     1     -13.130  11.708  72.547  1.00  0.00    -0.076 OA 
HETATM   13  C   UNL     1     -12.563  11.549  71.468  1.00  0.00    -0.258 C  
HETATM   14  C   UNL     1     -11.294  12.502  69.619  1.00  0.00    -0.112 A  
HETATM   15  N   UNL     1     -12.331  12.605  70.592  1.00  0.00    -0.342 N  
BRANCH  10  16
HETATM   16  N   UNL     1      -9.566  14.606  67.266  1.00  0.00    -0.217 NA 
HETATM   17  H   UNL     1      -9.632  14.482  66.256  1.00  0.00     0.000 HD 
BRANCH  16  18
HETATM   18  C   UNL     1      -9.133  15.859  67.712  1.00  0.00    -0.196 A  
HETATM   19  C   UNL     1      -9.224  18.174  67.513  1.00  0.00    -0.257 A  
HETATM   20  C   UNL     1      -8.081  16.016  68.606  1.00  0.00    -0.187 A  
HETATM   21  C   UNL     1      -7.542  17.275  68.854  1.00  0.00    -0.235 A  
HETATM   22  N   UNL     1      -9.750  16.946  67.210  1.00  0.00    -0.246 NA 
HETATM   23  C   UNL     1      -8.079  18.417  68.275  1.00  0.00    -0.298 A  
BRANCH  23  24
HETATM   24  N   UNL     1      -7.494  19.646  68.477  1.00  0.00    -0.331 NA 
HETATM   25  C   UNL     1      -6.639  19.905  69.654  1.00  0.00    -0.338 C  
HETATM   26  C   UNL     1      -5.198  20.242  69.210  1.00  0.00    -0.226 C  
HETATM   27  N   UNL     1      -5.131  21.360  68.252  1.00  0.00    -0.488 NA 
HETATM   28  C   UNL     1      -5.991  21.058  67.089  1.00  0.00    -0.281 C  
HETATM   29  H   UNL     1      -4.173  21.579  67.979  1.00  0.00     0.000 HD 
HETATM   30  C   UNL     1      -7.449  20.712  67.466  1.00  0.00    -0.309 C  
ENDBRANCH  23  24
ENDBRANCH  16  18
ENDBRANCH  10  16
BRANCH  15  31
HETATM   31  C   UNL     1     -12.877  13.943  70.875  1.00  0.00    -0.300 C  
HETATM   32  C   UNL     1     -14.156  13.996  71.732  1.00  0.00    -0.452 C  
HETATM   33  C   UNL     1     -11.878  14.859  71.596  1.00  0.00    -0.429 C  
HETATM   34  C   UNL     1     -14.158  15.418  72.275  1.00  0.00    -0.660 C  
HETATM   35  C   UNL     1     -12.693  15.724  72.554  1.00  0.00    -0.540 C  
ENDBRANCH  15  31
ENDBRANCH   2   4
TORSDOF 5
ENDMDL
MODEL       15
REMARK 921   NORMALIZED FREE ENERGY PREDICTED BY IDOCK:   -7.27 KCAL/MOL
REMARK 922        TOTAL FREE ENERGY PREDICTED BY IDOCK:   -9.98 KCAL/MOL
REMARK 923 INTER-LIGAND FREE ENERGY PREDICTED BY IDOCK:   -9.52 KCAL/MOL
REMARK 924 INTRA-LIGAND FREE ENERGY PREDICTED BY IDOCK:   -0.46 KCAL/MOL
REMARK 927      BINDING AFFINITY PREDICTED BY RF-SCORE:    0.00 PKD
ROOT
HETATM    1  C   UNL     1     -11.221   6.289  69.438  1.00  0.00    -0.489 C  
HETATM    2  C   UNL     1     -10.270   7.455  69.523  1.00  0.00    -0.204 C  
HETATM    3  O   UNL     1      -9.086   7.236  69.790  1.00  0.00    -0.142 OA 
ENDROOT
BRANCH   2   4
HETATM    4  C   UNL     1     -10.760   8.850  69.209  1.00  0.00    -0.177 C  
HETATM    5  C   UNL     1     -11.292   9.636  70.168  1.00  0.00    -0.275 C  
HETATM    6  C   UNL     1     -11.587   9.250  71.605  1.00  0.00    -0.463 C  
HETATM    7  C   UNL     1     -11.618  11.033  69.809  1.00  0.00    -0.401 A  
HETATM    8  C   UNL     1     -12.232  11.903  70.675  1.00  0.00    -0.331 A  
HETATM    9  N   UNL     1     -12.493  13.179  70.384  1.00  0.00    -0.256 NA 
HETATM   10  C   UNL     1     -12.123  13.670  69.199  1.00  0.00    -0.319 A  
HETATM   11  N   UNL     1     -11.541  12.897  68.270  1.00  0.00    -0.313 NA 
HETATM   12  O   UNL     1     -10.578   8.568  66.875  1.00  0.00    -0.298 OA 
HETATM   13  C   UNL     1     -10.678   9.368  67.803  1.00  0.00    -0.229 C  
HETATM   14  C   UNL     1     -11.296  11.593  68.581  1.00  0.00    -0.267 A  
HETATM   15  N   UNL     1     -10.719  10.744  67.593  1.00  0.00    -0.238 N  
BRANCH  10  16
HETATM   16  N   UNL     1     -12.316  15.025  68.943  1.00  0.00    -0.594 NA 
HETATM   17  H   UNL     1     -13.275  15.365  69.006  1.00  0.00     0.000 HD 
BRANCH  16  18
HETATM   18  C   UNL     1     -11.341  15.972  68.611  1.00  0.00    -0.383 A  
HETATM   19  C   UNL     1      -9.996  17.749  69.275  1.00  0.00    -0.096 A  
HETATM   20  C   UNL     1     -10.929  16.200  67.303  1.00  0.00    -0.175 A  
HETATM   21  C   UNL     1     -10.125  17.292  66.992  1.00  0.00    -0.303 A  
HETATM   22  N   UNL     1     -10.824  16.711  69.612  1.00  0.00    -0.334 NA 
HETATM   23  C   UNL     1      -9.652  18.145  67.980  1.00  0.00    -0.300 A  
BRANCH  23  24
HETATM   24  N   UNL     1      -8.914  19.258  67.650  1.00  0.00    -0.293 NA 
HETATM   25  C   UNL     1      -7.894  19.804  68.571  1.00  0.00    -0.275 C  
HETATM   26  C   UNL     1      -6.491  19.731  67.926  1.00  0.00    -0.233 C  
HETATM   27  N   UNL     1      -6.422  20.391  66.609  1.00  0.00    -0.213 NA 
HETATM   28  C   UNL     1      -7.449  19.812  65.719  1.00  0.00    -0.311 C  
HETATM   29  H   UNL     1      -5.487  20.345  66.203  1.00  0.00     0.000 HD 
HETATM   30  C   UNL     1      -8.878  19.853  66.307  1.00  0.00    -0.345 C  
ENDBRANCH  23  24
ENDBRANCH  16  18
ENDBRANCH  10  16
BRANCH  15  31
HETATM   31  C   UNL     1     -10.514  11.298  66.244  1.00  0.00    -0.258 C  
HETATM   32  C   UNL     1     -11.780  11.723  65.476  1.00  0.00    -0.105 C  
HETATM   33  C   UNL     1      -9.609  12.537  66.234  1.00  0.00    -0.246 C  
HETATM   34  C   UNL     1     -11.250  12.692  64.430  1.00  0.00    -0.391 C  
HETATM   35  C   UNL     1     -10.145  13.460  65.142  1.00  0.00    -0.266 C  
ENDBRANCH  15  31
ENDBRANCH   2   4
TORSDOF 5
ENDMDL
MODEL       16
REMARK 921   NORMALIZED FREE ENERGY PREDICTED BY IDOCK:   -7.22 KCAL/MOL
REMARK 922        TOTAL FREE ENERGY PREDICTED BY IDOCK:   -9.92 KCAL/MOL
REMARK 923 INTER-LIGAND FREE ENERGY PREDICTED BY IDOCK:   -9.09 KCAL/MOL
REMARK 924 INTRA-LIGAND FREE ENERGY PREDICTED BY IDOCK:   -0.83 KCAL/MOL
REMARK 927      BINDING AFFINITY PREDICTED BY RF-SCORE:    0.00 PKD
ROOT
HETATM    1  C   UNL     1     -12.313  11.962  63.348  1.00  0.00    -0.577 C  
HETATM    2  C   UNL     1     -11.013  12.053  64.104  1.00  0.00    -0.360 C  
HETATM    3  O   UNL     1     -10.050  12.600  63.563  1.00  0.00    -0.392 OA 
ENDROOT
BRANCH   2   4
HETATM    4  C   UNL     1     -10.932  11.544  65.525  1.00  0.00    -0.290 C  
HETATM    5  C   UNL     1     -11.452  12.250  66.551  1.00  0.00    -0.438 C  
HETATM    6  C   UNL     1     -12.060  13.637  66.488  1.00  0.00    -0.469 C  
HETATM    7  C   UNL     1     -11.453  11.619  67.888  1.00  0.00    -0.381 A  
HETATM    8  C   UNL     1     -11.884  12.266  69.019  1.00  0.00    -0.305 A  
HETATM    9  N   UNL     1     -11.935  11.698  70.225  1.00  0.00    -0.357 NA 
HETATM   10  C   UNL     1     -11.575  10.420  70.363  1.00  0.00    -0.337 A  
HETATM   11  N   UNL     1     -11.113   9.705  69.327  1.00  0.00    -0.170 NA 
HETATM   12  O   UNL     1      -9.440   9.797  64.990  1.00  0.00    -0.252 OA 
HETATM   13  C   UNL     1     -10.240  10.243  65.811  1.00  0.00    -0.219 C  
HETATM   14  C   UNL     1     -11.055  10.307  68.106  1.00  0.00    -0.264 A  
HETATM   15  N   UNL     1     -10.527   9.579  67.000  1.00  0.00    -0.247 N  
BRANCH  10  16
HETATM   16  N   UNL     1     -11.722   9.811  71.607  1.00  0.00    -0.373 NA 
HETATM   17  H   UNL     1     -12.201  10.356  72.324  1.00  0.00     0.000 HD 
BRANCH  16  18
HETATM   18  C   UNL     1     -11.285   8.536  71.985  1.00  0.00    -0.348 A  
HETATM   19  C   UNL     1      -9.536   7.158  72.653  1.00  0.00    -0.148 A  
HETATM   20  C   UNL     1     -12.082   7.404  71.869  1.00  0.00    -0.341 A  
HETATM   21  C   UNL     1     -11.542   6.134  72.048  1.00  0.00    -0.364 A  
HETATM   22  N   UNL     1     -10.023   8.421  72.439  1.00  0.00    -0.304 NA 
HETATM   23  C   UNL     1     -10.214   5.960  72.415  1.00  0.00    -0.188 A  
BRANCH  23  24
HETATM   24  N   UNL     1      -9.677   4.698  72.523  1.00  0.00    -0.149 NA 
HETATM   25  C   UNL     1     -10.073   3.786  73.616  1.00  0.00    -0.131 C  
HETATM   26  C   UNL     1     -10.754   2.522  73.044  1.00  0.00    -0.138 C  
HETATM   27  N   UNL     1      -9.931   1.820  72.042  1.00  0.00    -0.138 NA 
HETATM   28  C   UNL     1      -9.564   2.763  70.965  1.00  0.00    -0.145 C  
HETATM   29  H   UNL     1     -10.389   0.982  71.684  1.00  0.00     0.000 HD 
HETATM   30  C   UNL     1      -8.877   4.051  71.472  1.00  0.00    -0.108 C  
ENDBRANCH  23  24
ENDBRANCH  16  18
ENDBRANCH  10  16
BRANCH  15  31
HETATM   31  C   UNL     1      -9.968   8.242  67.261  1.00  0.00    -0.224 C  
HETATM   32  C   UNL     1      -9.229   8.054  68.600  1.00  0.00    -0.143 C  
HETATM   33  C   UNL     1     -11.028   7.132  67.235  1.00  0.00    -0.333 C  
HETATM   34  C   UNL     1      -9.253   6.548  68.808  1.00  0.00    -0.131 C  
HETATM   35  C   UNL     1     -10.615   6.109  68.290  1.00  0.00    -0.324 C  
ENDBRANCH  15  31
ENDBRANCH   2   4
TORSDOF 5
ENDMDL
MODEL       17
REMARK 921   NORMALIZED FREE ENERGY PREDICTED BY IDOCK:   -7.13 KCAL/MOL
REMARK 922        TOTAL FREE ENERGY PREDICTED BY IDOCK:   -9.80 KCAL/MOL
REMARK 923 INTER-LIGAND FREE ENERGY PREDICTED BY IDOCK:   -9.19 KCAL/MOL
REMARK 924 INTRA-LIGAND FREE ENERGY PREDICTED BY IDOCK:   -0.61 KCAL/MOL
REMARK 927      BINDING AFFINITY PREDICTED BY RF-SCORE:    0.00 PKD
ROOT
HETATM    1  C   UNL     1      -8.677   5.736  71.067  1.00  0.00    -0.135 C  
HETATM    2  C   UNL     1      -9.945   5.968  70.287  1.00  0.00    -0.187 C  
HETATM    3  O   UNL     1     -10.555   4.992  69.844  1.00  0.00    -0.237 OA 
ENDROOT
BRANCH   2   4
HETATM    4  C   UNL     1     -10.483   7.371  70.125  1.00  0.00    -0.228 C  
HETATM    5  C   UNL     1     -11.345   7.898  71.020  1.00  0.00    -0.292 C  
HETATM    6  C   UNL     1     -11.980   7.188  72.200  1.00  0.00    -0.304 C  
HETATM    7  C   UNL     1     -11.714   9.321  70.864  1.00  0.00    -0.360 A  
HETATM    8  C   UNL     1     -12.638   9.945  71.665  1.00  0.00    -0.424 A  
HETATM    9  N   UNL     1     -12.950  11.238  71.568  1.00  0.00    -0.445 NA 
HETATM   10  C   UNL     1     -12.325  11.998  70.665  1.00  0.00    -0.304 A  
HETATM   11  N   UNL     1     -11.425  11.481  69.816  1.00  0.00    -0.294 NA 
HETATM   12  O   UNL     1      -9.632   7.624  67.940  1.00  0.00    -0.141 OA 
HETATM   13  C   UNL     1     -10.074   8.192  68.936  1.00  0.00    -0.202 C  
HETATM   14  C   UNL     1     -11.130  10.155  69.921  1.00  0.00    -0.293 A  
HETATM   15  N   UNL     1     -10.210   9.576  69.000  1.00  0.00    -0.192 N  
BRANCH  10  16
HETATM   16  N   UNL     1     -12.591  13.364  70.638  1.00  0.00    -0.289 NA 
HETATM   17  H   UNL     1     -13.373  13.684  71.207  1.00  0.00     0.000 HD 
BRANCH  16  18
HETATM   18  C   UNL     1     -11.905  14.348  69.916  1.00  0.00    -0.323 A  
HETATM   19  C   UNL     1     -10.723  16.350  69.924  1.00  0.00    -0.300 A  
HETATM   20  C   UNL     1     -11.908  14.401  68.527  1.00  0.00    -0.369 A  
HETATM   21  C   UNL     1     -11.401  15.510  67.858  1.00  0.00    -0.309 A  
HETATM   22  N   UNL     1     -11.254  15.295  70.618  1.00  0.00    -0.309 NA 
HETATM   23  C   UNL     1     -10.814  16.563  68.547  1.00  0.00    -0.349 A  
BRANCH  23  24
HETATM   24  N   UNL     1     -10.377  17.682  67.876  1.00  0.00    -0.355 NA 
HETATM   25  C   UNL     1     -10.132  18.955  68.586  1.00  0.00    -0.388 C  
HETATM   26  C   UNL     1      -8.642  19.354  68.479  1.00  0.00    -0.364 C  
HETATM   27  N   UNL     1      -8.157  19.421  67.089  1.00  0.00    -0.261 NA 
HETATM   28  C   UNL     1      -8.413  18.129  66.420  1.00  0.00    -0.238 C  
HETATM   29  H   UNL     1      -7.176  19.698  67.035  1.00  0.00     0.000 HD 
HETATM   30  C   UNL     1      -9.887  17.672  66.490  1.00  0.00    -0.319 C  
ENDBRANCH  23  24
ENDBRANCH  16  18
ENDBRANCH  10  16
BRANCH  15  31
HETATM   31  C   UNL     1      -9.704  10.425  67.908  1.00  0.00    -0.149 C  
HETATM   32  C   UNL     1      -8.248  10.183  67.466  1.00  0.00    -0.114 C  
HETATM   33  C   UNL     1     -10.533  10.308  66.622  1.00  0.00    -0.260 C  
HETATM   34  C   UNL     1      -8.201  10.777  66.067  1.00  0.00    -0.164 C  
HETATM   35  C   UNL     1      -9.553  10.435  65.458  1.00  0.00    -0.290 C  
ENDBRANCH  15  31
ENDBRANCH   2   4
TORSDOF 5
ENDMDL
MODEL       18
REMARK 921   NORMALIZED FREE ENERGY PREDICTED BY IDOCK:   -7.10 KCAL/MOL
REMARK 922        TOTAL FREE ENERGY PREDICTED BY IDOCK:   -9.77 KCAL/MOL
REMARK 923 INTER-LIGAND FREE ENERGY PREDICTED BY IDOCK:  -10.22 KCAL/MOL
REMARK 924 INTRA-LIGAND FREE ENERGY PREDICTED BY IDOCK:    0.45 KCAL/MOL
REMARK 927      BINDING AFFINITY PREDICTED BY RF-SCORE:    0.00 PKD
ROOT
HETATM    1  C   UNL     1      -9.588   4.810  68.687  1.00  0.00    -0.223 C  
HETATM    2  C   UNL     1      -8.683   6.010  68.780  1.00  0.00    -0.111 C  
HETATM    3  O   UNL     1      -7.483   5.832  69.004  1.00  0.00    -0.080 OA 
ENDROOT
BRANCH   2   4
HETATM    4  C   UNL     1      -9.238   7.393  68.525  1.00  0.00    -0.142 C  
HETATM    5  C   UNL     1      -9.297   7.905  67.278  1.00  0.00    -0.180 C  
HETATM    6  C   UNL     1      -8.746   7.281  66.010  1.00  0.00    -0.168 C  
HETATM    7  C   UNL     1      -9.979   9.204  67.099  1.00  0.00    -0.280 A  
HETATM    8  C   UNL     1     -10.035   9.858  65.894  1.00  0.00    -0.277 A  
HETATM    9  N   UNL     1     -10.684  11.008  65.704  1.00  0.00    -0.195 NA 
HETATM   10  C   UNL     1     -11.346  11.563  66.722  1.00  0.00    -0.238 A  
HETATM   11  N   UNL     1     -11.332  11.019  67.948  1.00  0.00    -0.387 NA 
HETATM   12  O   UNL     1      -9.315   7.964  70.812  1.00  0.00    -0.156 OA 
HETATM   13  C   UNL     1      -9.712   8.229  69.679  1.00  0.00    -0.173 C  
HETATM   14  C   UNL     1     -10.652   9.852  68.125  1.00  0.00    -0.227 A  
HETATM   15  N   UNL     1     -10.588   9.280  69.429  1.00  0.00    -0.222 N  
BRANCH  10  16
HETATM   16  N   UNL     1     -12.097  12.713  66.488  1.00  0.00    -0.552 NA 
HETATM   17  H   UNL     1     -13.045  12.570  66.141  1.00  0.00     0.000 HD 
BRANCH  16  18
HETATM   18  C   UNL     1     -11.696  14.040  66.675  1.00  0.00    -0.399 A  
HETATM   19  C   UNL     1     -10.646  15.932  65.824  1.00  0.00    -0.355 A  
HETATM   20  C   UNL     1     -11.762  14.679  67.908  1.00  0.00    -0.379 A  
HETATM   21  C   UNL     1     -11.156  15.916  68.099  1.00  0.00    -0.338 A  
HETATM   22  N   UNL     1     -11.192  14.694  65.611  1.00  0.00    -0.335 NA 
HETATM   23  C   UNL     1     -10.530  16.584  67.054  1.00  0.00    -0.289 A  
BRANCH  23  24
HETATM   24  N   UNL     1      -9.877  17.775  67.275  1.00  0.00    -0.301 NA 
HETATM   25  C   UNL     1      -8.403  17.864  67.218  1.00  0.00    -0.225 C  
HETATM   26  C   UNL     1      -7.964  18.814  66.081  1.00  0.00    -0.217 C  
HETATM   27  N   UNL     1      -8.572  20.154  66.175  1.00  0.00    -0.556 NA 
HETATM   28  C   UNL     1     -10.042  20.020  66.221  1.00  0.00    -0.486 C  
HETATM   29  H   UNL     1      -8.262  20.772  65.426  1.00  0.00     0.000 HD 
HETATM   30  C   UNL     1     -10.548  19.081  67.339  1.00  0.00    -0.474 C  
ENDBRANCH  23  24
ENDBRANCH  16  18
ENDBRANCH  10  16
BRANCH  15  31
HETATM   31  C   UNL     1     -11.175  10.043  70.543  1.00  0.00    -0.336 C  
HETATM   32  C   UNL     1     -11.949  11.322  70.170  1.00  0.00    -0.452 C  
HETATM   33  C   UNL     1     -12.157   9.217  71.385  1.00  0.00    -0.424 C  
HETATM   34  C   UNL     1     -12.836  11.564  71.382  1.00  0.00    -0.489 C  
HETATM   35  C   UNL     1     -13.260  10.173  71.832  1.00  0.00    -0.557 C  
ENDBRANCH  15  31
ENDBRANCH   2   4
TORSDOF 5
ENDMDL
MODEL       19
REMARK 921   NORMALIZED FREE ENERGY PREDICTED BY IDOCK:   -7.08 KCAL/MOL
REMARK 922        TOTAL FREE ENERGY PREDICTED BY IDOCK:   -9.74 KCAL/MOL
REMARK 923 INTER-LIGAND FREE ENERGY PREDICTED BY IDOCK:   -9.10 KCAL/MOL
REMARK 924 INTRA-LIGAND FREE ENERGY PREDICTED BY IDOCK:   -0.64 KCAL/MOL
REMARK 927      BINDING AFFINITY PREDICTED BY RF-SCORE:    0.00 PKD
ROOT
HETATM    1  C   UNL     1      -8.863   4.467  66.738  1.00  0.00    -0.114 C  
HETATM    2  C   UNL     1      -8.053   5.691  67.079  1.00  0.00    -0.102 C  
HETATM    3  O   UNL     1      -6.827   5.585  67.167  1.00  0.00    -0.060 OA 
ENDROOT
BRANCH   2   4
HETATM    4  C   UNL     1      -8.739   7.029  67.232  1.00  0.00    -0.120 C  
HETATM    5  C   UNL     1      -8.814   7.898  66.202  1.00  0.00    -0.197 C  
HETATM    6  C   UNL     1      -8.166   7.755  64.839  1.00  0.00    -0.111 C  
HETATM    7  C   UNL     1      -9.620   9.123  66.393  1.00  0.00    -0.309 A  
HETATM    8  C   UNL     1      -9.708  10.114  65.448  1.00  0.00    -0.291 A  
HETATM    9  N   UNL     1     -10.467  11.204  65.585  1.00  0.00    -0.258 NA 
HETATM   10  C   UNL     1     -11.211  11.351  66.684  1.00  0.00    -0.231 A  
HETATM   11  N   UNL     1     -11.176  10.454  67.680  1.00  0.00    -0.348 NA 
HETATM   12  O   UNL     1      -8.940   6.845  69.574  1.00  0.00    -0.142 OA 
HETATM   13  C   UNL     1      -9.329   7.416  68.557  1.00  0.00    -0.141 C  
HETATM   14  C   UNL     1     -10.385   9.355  67.528  1.00  0.00    -0.255 A  
HETATM   15  N   UNL     1     -10.301   8.411  68.592  1.00  0.00    -0.205 N  
BRANCH  10  16
HETATM   16  N   UNL     1     -12.068  12.444  66.772  1.00  0.00    -0.565 NA 
HETATM   17  H   UNL     1     -13.066  12.244  66.705  1.00  0.00     0.000 HD 
BRANCH  16  18
HETATM   18  C   UNL     1     -11.715  13.788  66.943  1.00  0.00    -0.395 A  
HETATM   19  C   UNL     1     -10.774  15.718  66.052  1.00  0.00    -0.306 A  
HETATM   20  C   UNL     1     -11.762  14.426  68.176  1.00  0.00    -0.377 A  
HETATM   21  C   UNL     1     -11.199  15.688  68.344  1.00  0.00    -0.352 A  
HETATM   22  N   UNL     1     -11.276  14.458  65.860  1.00  0.00    -0.318 NA 
HETATM   23  C   UNL     1     -10.639  16.377  67.277  1.00  0.00    -0.293 A  
BRANCH  23  24
HETATM   24  N   UNL     1     -10.028  17.594  67.471  1.00  0.00    -0.310 NA 
HETATM   25  C   UNL     1      -8.555  17.713  67.528  1.00  0.00    -0.222 C  
HETATM   26  C   UNL     1      -8.041  18.599  66.372  1.00  0.00    -0.281 C  
HETATM   27  N   UNL     1      -8.678  19.928  66.330  1.00  0.00    -0.431 NA 
HETATM   28  C   UNL     1     -10.144  19.764  66.265  1.00  0.00    -0.496 C  
HETATM   29  H   UNL     1      -8.318  20.505  65.569  1.00  0.00     0.000 HD 
HETATM   30  C   UNL     1     -10.724  18.886  67.397  1.00  0.00    -0.444 C  
ENDBRANCH  23  24
ENDBRANCH  16  18
ENDBRANCH  10  16
BRANCH  15  31
HETATM   31  C   UNL     1     -10.995   8.731  69.851  1.00  0.00    -0.179 C  
HETATM   32  C   UNL     1     -11.776   7.582  70.517  1.00  0.00    -0.183 C  
HETATM   33  C   UNL     1     -10.050   9.252  70.943  1.00  0.00    -0.373 C  
HETATM   34  C   UNL     1     -11.907   8.036  71.963  1.00  0.00    -0.376 C  
HETATM   35  C   UNL     1     -10.584   8.723  72.271  1.00  0.00    -0.319 C  
ENDBRANCH  15  31
ENDBRANCH   2   4
TORSDOF 5
ENDMDL
MODEL       20
REMARK 921   NORMALIZED FREE ENERGY PREDICTED BY IDOCK:   -7.07 KCAL/MOL
REMARK 922        TOTAL FREE ENERGY PREDICTED BY IDOCK:   -9.73 KCAL/MOL
REMARK 923 INTER-LIGAND FREE ENERGY PREDICTED BY IDOCK:   -9.50 KCAL/MOL
REMARK 924 INTRA-LIGAND FREE ENERGY PREDICTED BY IDOCK:   -0.23 KCAL/MOL
REMARK 927      BINDING AFFINITY PREDICTED BY RF-SCORE:    0.00 PKD
ROOT
HETATM    1  C   UNL     1      -9.739  17.472  68.679  1.00  0.00    -0.319 C  
HETATM    2  C   UNL     1     -10.554  16.541  67.820  1.00  0.00    -0.332 C  
HETATM    3  O   UNL     1     -10.894  16.916  66.695  1.00  0.00    -0.149 OA 
ENDROOT
BRANCH   2   4
HETATM    4  C   UNL     1     -10.876  15.149  68.314  1.00  0.00    -0.262 C  
HETATM    5  C   UNL     1     -11.482  14.952  69.503  1.00  0.00    -0.325 C  
HETATM    6  C   UNL     1     -11.818  16.005  70.541  1.00  0.00    -0.314 C  
HETATM    7  C   UNL     1     -11.886  13.572  69.848  1.00  0.00    -0.386 A  
HETATM    8  C   UNL     1     -12.440  13.236  71.058  1.00  0.00    -0.336 A  
HETATM    9  N   UNL     1     -12.851  12.006  71.370  1.00  0.00    -0.350 NA 
HETATM   10  C   UNL     1     -12.752  11.032  70.462  1.00  0.00    -0.247 A  
HETATM   11  N   UNL     1     -12.201  11.248  69.259  1.00  0.00    -0.361 NA 
HETATM   12  O   UNL     1      -9.621  14.081  66.626  1.00  0.00    -0.270 OA 
HETATM   13  C   UNL     1     -10.495  13.958  67.483  1.00  0.00    -0.248 C  
HETATM   14  C   UNL     1     -11.774  12.507  68.965  1.00  0.00    -0.318 A  
HETATM   15  N   UNL     1     -11.145  12.749  67.708  1.00  0.00    -0.241 N  
BRANCH  10  16
HETATM   16  N   UNL     1     -13.271   9.776  70.766  1.00  0.00    -0.600 NA 
HETATM   17  H   UNL     1     -14.234   9.603  70.480  1.00  0.00     0.000 HD 
BRANCH  16  18
HETATM   18  C   UNL     1     -12.619   8.724  71.420  1.00  0.00    -0.294 A  
HETATM   19  C   UNL     1     -10.682   7.905  72.411  1.00  0.00    -0.305 A  
HETATM   20  C   UNL     1     -13.167   7.452  71.531  1.00  0.00    -0.426 A  
HETATM   21  C   UNL     1     -12.401   6.386  71.991  1.00  0.00    -0.268 A  
HETATM   22  N   UNL     1     -11.392   8.968  71.919  1.00  0.00    -0.369 NA 
HETATM   23  C   UNL     1     -11.092   6.569  72.420  1.00  0.00    -0.259 A  
BRANCH  23  24
HETATM   24  N   UNL     1     -10.326   5.495  72.810  1.00  0.00    -0.185 NA 
HETATM   25  C   UNL     1     -10.650   4.723  74.028  1.00  0.00    -0.293 C  
HETATM   26  C   UNL     1     -10.991   3.260  73.663  1.00  0.00    -0.237 C  
HETATM   27  N   UNL     1      -9.935   2.594  72.880  1.00  0.00    -0.121 NA 
HETATM   28  C   UNL     1      -9.648   3.392  71.671  1.00  0.00    -0.159 C  
HETATM   29  H   UNL     1     -10.170   1.627  72.659  1.00  0.00     0.000 HD 
HETATM   30  C   UNL     1      -9.299   4.868  71.967  1.00  0.00    -0.141 C  
ENDBRANCH  23  24
ENDBRANCH  16  18
ENDBRANCH  10  16
BRANCH  15  31
HETATM   31  C   UNL     1     -10.893  11.592  66.833  1.00  0.00    -0.284 C  
HETATM   32  C   UNL     1     -11.139  11.802  65.327  1.00  0.00    -0.333 C  
HETATM   33  C   UNL     1      -9.453  11.068  66.929  1.00  0.00    -0.197 C  
HETATM   34  C   UNL     1     -10.324  10.694  64.677  1.00  0.00    -0.353 C  
HETATM   35  C   UNL     1      -9.069  10.589  65.531  1.00  0.00    -0.214 C  
ENDBRANCH  15  31
ENDBRANCH   2   4
TORSDOF 5
ENDMDL
MODEL       21
REMARK 921   NORMALIZED FREE ENERGY PREDICTED BY IDOCK:   -7.06 KCAL/MOL
REMARK 922        TOTAL FREE ENERGY PREDICTED BY IDOCK:   -9.71 KCAL/MOL
REMARK 923 INTER-LIGAND FREE ENERGY PREDICTED BY IDOCK:   -9.52 KCAL/MOL
REMARK 924 INTRA-LIGAND FREE ENERGY PREDICTED BY IDOCK:   -0.19 KCAL/MOL
REMARK 927      BINDING AFFINITY PREDICTED BY RF-SCORE:    0.00 PKD
ROOT
HETATM    1  C   UNL     1      -9.538  20.122  65.755  1.00  0.00    -0.185 C  
HETATM    2  C   UNL     1     -10.303  19.115  66.574  1.00  0.00    -0.442 C  
HETATM    3  O   UNL     1     -11.273  19.500  67.232  1.00  0.00    -0.353 OA 
ENDROOT
BRANCH   2   4
HETATM    4  C   UNL     1      -9.922  17.654  66.518  1.00  0.00    -0.332 C  
HETATM    5  C   UNL     1      -8.992  17.141  67.352  1.00  0.00    -0.223 C  
HETATM    6  C   UNL     1      -8.135  17.906  68.342  1.00  0.00    -0.302 C  
HETATM    7  C   UNL     1      -8.778  15.679  67.328  1.00  0.00    -0.213 A  
HETATM    8  C   UNL     1      -7.810  15.053  68.072  1.00  0.00    -0.125 A  
HETATM    9  N   UNL     1      -7.632  13.731  68.097  1.00  0.00    -0.114 NA 
HETATM   10  C   UNL     1      -8.445  12.946  67.385  1.00  0.00    -0.196 A  
HETATM   11  N   UNL     1      -9.405  13.459  66.601  1.00  0.00    -0.255 NA 
HETATM   12  O   UNL     1     -11.093  17.253  64.511  1.00  0.00    -1.082 OA 
HETATM   13  C   UNL     1     -10.566  16.754  65.504  1.00  0.00    -0.230 C  
HETATM   14  C   UNL     1      -9.562  14.812  66.579  1.00  0.00    -0.284 A  
HETATM   15  N   UNL     1     -10.548  15.379  65.720  1.00  0.00    -0.328 N  
BRANCH  10  16
HETATM   16  N   UNL     1      -8.309  11.565  67.492  1.00  0.00    -0.138 NA 
HETATM   17  H   UNL     1      -7.888  11.088  66.695  1.00  0.00     0.000 HD 
BRANCH  16  18
HETATM   18  C   UNL     1      -8.686  10.757  68.571  1.00  0.00    -0.149 A  
HETATM   19  C   UNL     1      -8.068   9.239  70.221  1.00  0.00    -0.154 A  
HETATM   20  C   UNL     1     -10.013  10.523  68.907  1.00  0.00    -0.213 A  
HETATM   21  C   UNL     1     -10.348   9.548  69.842  1.00  0.00    -0.265 A  
HETATM   22  N   UNL     1      -7.704  10.159  69.273  1.00  0.00    -0.112 NA 
HETATM   23  C   UNL     1      -9.370   8.829  70.517  1.00  0.00    -0.187 A  
BRANCH  23  24
HETATM   24  N   UNL     1      -9.717   7.822  71.388  1.00  0.00    -0.165 NA 
HETATM   25  C   UNL     1     -10.399   8.115  72.667  1.00  0.00    -0.328 C  
HETATM   26  C   UNL     1     -11.799   7.460  72.693  1.00  0.00    -0.131 C  
HETATM   27  N   UNL     1     -11.767   6.010  72.430  1.00  0.00    -0.411 NA 
HETATM   28  C   UNL     1     -11.087   5.762  71.143  1.00  0.00    -0.187 C  
HETATM   29  H   UNL     1     -12.697   5.591  72.464  1.00  0.00     0.000 HD 
HETATM   30  C   UNL     1      -9.679   6.392  71.051  1.00  0.00    -0.176 C  
ENDBRANCH  23  24
ENDBRANCH  16  18
ENDBRANCH  10  16
BRANCH  15  31
HETATM   31  C   UNL     1     -11.277  14.473  64.817  1.00  0.00    -0.390 C  
HETATM   32  C   UNL     1     -10.473  13.303  64.220  1.00  0.00    -0.372 C  
HETATM   33  C   UNL     1     -12.497  13.817  65.480  1.00  0.00    -0.548 C  
HETATM   34  C   UNL     1     -11.548  12.308  63.809  1.00  0.00    -0.555 C  
HETATM   35  C   UNL     1     -12.601  12.408  64.903  1.00  0.00    -0.372 C  
ENDBRANCH  15  31
ENDBRANCH   2   4
TORSDOF 5
ENDMDL
MODEL       22
REMARK 921   NORMALIZED FREE ENERGY PREDICTED BY IDOCK:   -7.03 KCAL/MOL
REMARK 922        TOTAL FREE ENERGY PREDICTED BY IDOCK:   -9.68 KCAL/MOL
REMARK 923 INTER-LIGAND FREE ENERGY PREDICTED BY IDOCK:   -9.23 KCAL/MOL
REMARK 924 INTRA-LIGAND FREE ENERGY PREDICTED BY IDOCK:   -0.45 KCAL/MOL
REMARK 927      BINDING AFFINITY PREDICTED BY RF-SCORE:    0.00 PKD
ROOT
HETATM    1  C   UNL     1     -11.724  15.627  72.753  1.00  0.00    -0.537 C  
HETATM    2  C   UNL     1     -12.822  15.102  71.864  1.00  0.00    -0.349 C  
HETATM    3  O   UNL     1     -13.956  15.571  71.982  1.00  0.00    -0.484 OA 
ENDROOT
BRANCH   2   4
HETATM    4  C   UNL     1     -12.504  14.073  70.804  1.00  0.00    -0.442 C  
HETATM    5  C   UNL     1     -12.049  14.440  69.587  1.00  0.00    -0.381 C  
HETATM    6  C   UNL     1     -11.900  15.853  69.058  1.00  0.00    -0.328 C  
HETATM    7  C   UNL     1     -11.632  13.369  68.657  1.00  0.00    -0.362 A  
HETATM    8  C   UNL     1     -11.225  13.614  67.370  1.00  0.00    -0.302 A  
HETATM    9  N   UNL     1     -10.802  12.665  66.532  1.00  0.00    -0.253 NA 
HETATM   10  C   UNL     1     -10.737  11.400  66.953  1.00  0.00    -0.265 A  
HETATM   11  N   UNL     1     -11.136  11.049  68.185  1.00  0.00    -0.247 NA 
HETATM   12  O   UNL     1     -13.477  12.291  72.004  1.00  0.00    -0.467 OA 
HETATM   13  C   UNL     1     -12.718  12.615  71.093  1.00  0.00    -0.254 C  
HETATM   14  C   UNL     1     -11.578  12.030  69.020  1.00  0.00    -0.313 A  
HETATM   15  N   UNL     1     -12.048  11.673  70.318  1.00  0.00    -0.358 N  
BRANCH  10  16
HETATM   16  N   UNL     1     -10.205  10.435  66.102  1.00  0.00    -0.235 NA 
HETATM   17  H   UNL     1     -10.157  10.681  65.113  1.00  0.00     0.000 HD 
BRANCH  16  18
HETATM   18  C   UNL     1      -9.730   9.166  66.450  1.00  0.00    -0.262 A  
HETATM   19  C   UNL     1     -10.198   6.992  67.129  1.00  0.00    -0.248 A  
HETATM   20  C   UNL     1      -8.382   8.897  66.652  1.00  0.00    -0.111 A  
HETATM   21  C   UNL     1      -7.974   7.688  67.206  1.00  0.00    -0.118 A  
HETATM   22  N   UNL     1     -10.639   8.189  66.629  1.00  0.00    -0.176 NA 
HETATM   23  C   UNL     1      -8.888   6.686  67.507  1.00  0.00    -0.116 A  
BRANCH  23  24
HETATM   24  N   UNL     1      -8.478   5.523  68.115  1.00  0.00    -0.099 NA 
HETATM   25  C   UNL     1      -8.551   5.356  69.582  1.00  0.00    -0.103 C  
HETATM   26  C   UNL     1      -9.514   4.203  69.946  1.00  0.00    -0.195 C  
HETATM   27  N   UNL     1      -9.173   2.930  69.286  1.00  0.00    -0.135 NA 
HETATM   28  C   UNL     1      -9.119   3.138  67.824  1.00  0.00    -0.178 C  
HETATM   29  H   UNL     1      -9.810   2.178  69.546  1.00  0.00     0.000 HD 
HETATM   30  C   UNL     1      -8.171   4.280  67.392  1.00  0.00    -0.099 C  
ENDBRANCH  23  24
ENDBRANCH  16  18
ENDBRANCH  10  16
BRANCH  15  31
HETATM   31  C   UNL     1     -12.131  10.241  70.649  1.00  0.00    -0.338 C  
HETATM   32  C   UNL     1     -11.073   9.699  71.630  1.00  0.00    -0.220 C  
HETATM   33  C   UNL     1     -13.480   9.842  71.261  1.00  0.00    -0.353 C  
HETATM   34  C   UNL     1     -11.708   8.424  72.164  1.00  0.00    -0.442 C  
HETATM   35  C   UNL     1     -13.188   8.755  72.293  1.00  0.00    -0.456 C  
ENDBRANCH  15  31
ENDBRANCH   2   4
TORSDOF 5
ENDMDL
MODEL       23
REMARK 921   NORMALIZED FREE ENERGY PREDICTED BY IDOCK:   -7.00 KCAL/MOL
REMARK 922        TOTAL FREE ENERGY PREDICTED BY IDOCK:   -9.64 KCAL/MOL
REMARK 923 INTER-LIGAND FREE ENERGY PREDICTED BY IDOCK:   -9.24 KCAL/MOL
REMARK 924 INTRA-LIGAND FREE ENERGY PREDICTED BY IDOCK:   -0.40 KCAL/MOL
REMARK 927      BINDING AFFINITY PREDICTED BY RF-SCORE:    0.00 PKD
ROOT
HETATM    1  C   UNL     1      -8.974   3.632  73.999  1.00  0.00    -0.090 C  
HETATM    2  C   UNL     1      -9.992   3.504  72.895  1.00  0.00    -0.148 C  
HETATM    3  O   UNL     1     -10.810   2.583  72.948  1.00  0.00    -0.143 OA 
ENDROOT
BRANCH   2   4
HETATM    4  C   UNL     1     -10.041   4.537  71.793  1.00  0.00    -0.254 C  
HETATM    5  C   UNL     1      -9.243   4.443  70.710  1.00  0.00    -0.203 C  
HETATM    6  C   UNL     1      -8.143   3.426  70.473  1.00  0.00    -0.063 C  
HETATM    7  C   UNL     1      -9.451   5.415  69.615  1.00  0.00    -0.194 A  
HETATM    8  C   UNL     1      -8.653   5.467  68.500  1.00  0.00    -0.102 A  
HETATM    9  N   UNL     1      -8.853   6.307  67.483  1.00  0.00    -0.105 NA 
HETATM   10  C   UNL     1      -9.898   7.138  67.515  1.00  0.00    -0.151 A  
HETATM   11  N   UNL     1     -10.723   7.187  68.571  1.00  0.00    -0.183 NA 
HETATM   12  O   UNL     1     -11.404   6.021  73.019  1.00  0.00    -0.234 OA 
HETATM   13  C   UNL     1     -10.977   5.705  71.910  1.00  0.00    -0.235 C  
HETATM   14  C   UNL     1     -10.494   6.331  69.606  1.00  0.00    -0.238 A  
HETATM   15  N   UNL     1     -11.333   6.397  70.756  1.00  0.00    -0.332 N  
BRANCH  10  16
HETATM   16  N   UNL     1     -10.150   7.943  66.407  1.00  0.00    -0.480 NA 
HETATM   17  H   UNL     1     -10.289   7.460  65.520  1.00  0.00     0.000 HD 
BRANCH  16  18
HETATM   18  C   UNL     1     -10.234   9.339  66.374  1.00  0.00    -0.228 A  
HETATM   19  C   UNL     1     -10.856  11.313  67.434  1.00  0.00    -0.262 A  
HETATM   20  C   UNL     1      -9.986  10.080  65.225  1.00  0.00    -0.368 A  
HETATM   21  C   UNL     1     -10.290  11.437  65.176  1.00  0.00    -0.344 A  
HETATM   22  N   UNL     1     -10.612   9.966  67.504  1.00  0.00    -0.259 NA 
HETATM   23  C   UNL     1     -10.783  12.108  66.288  1.00  0.00    -0.261 A  
BRANCH  23  24
HETATM   24  N   UNL     1     -11.142  13.433  66.204  1.00  0.00    -0.287 NA 
HETATM   25  C   UNL     1     -10.225  14.506  66.646  1.00  0.00    -0.275 C  
HETATM   26  C   UNL     1      -9.846  15.415  65.455  1.00  0.00    -0.324 C  
HETATM   27  N   UNL     1     -11.016  15.974  64.754  1.00  0.00    -0.729 NA 
HETATM   28  C   UNL     1     -11.899  14.871  64.323  1.00  0.00    -0.297 C  
HETATM   29  H   UNL     1     -10.748  16.581  63.980  1.00  0.00     0.000 HD 
HETATM   30  C   UNL     1     -12.317  13.923  65.470  1.00  0.00    -0.480 C  
ENDBRANCH  23  24
ENDBRANCH  16  18
ENDBRANCH  10  16
BRANCH  15  31
HETATM   31  C   UNL     1     -12.344   7.466  70.809  1.00  0.00    -0.131 C  
HETATM   32  C   UNL     1     -13.695   7.103  71.456  1.00  0.00    -0.413 C  
HETATM   33  C   UNL     1     -11.863   8.711  71.567  1.00  0.00    -0.366 C  
HETATM   34  C   UNL     1     -14.278   8.456  71.836  1.00  0.00    -0.541 C  
HETATM   35  C   UNL     1     -13.081   9.276  72.294  1.00  0.00    -0.517 C  
ENDBRANCH  15  31
ENDBRANCH   2   4
TORSDOF 5
ENDMDL
MODEL       24
REMARK 921   NORMALIZED FREE ENERGY PREDICTED BY IDOCK:   -6.97 KCAL/MOL
REMARK 922        TOTAL FREE ENERGY PREDICTED BY IDOCK:   -9.60 KCAL/MOL
REMARK 923 INTER-LIGAND FREE ENERGY PREDICTED BY IDOCK:   -8.84 KCAL/MOL
REMARK 924 INTRA-LIGAND FREE ENERGY PREDICTED BY IDOCK:   -0.76 KCAL/MOL
REMARK 927      BINDING AFFINITY PREDICTED BY RF-SCORE:    0.00 PKD
ROOT
HETATM    1  C   UNL     1     -10.657  19.143  67.731  1.00  0.00    -0.498 C  
HETATM    2  C   UNL     1      -9.881  18.617  66.551  1.00  0.00    -0.364 C  
HETATM    3  O   UNL     1      -9.664  19.371  65.600  1.00  0.00    -0.351 OA 
ENDROOT
BRANCH   2   4
HETATM    4  C   UNL     1      -9.324  17.212  66.583  1.00  0.00    -0.277 C  
HETATM    5  C   UNL     1      -8.148  16.939  67.187  1.00  0.00    -0.214 C  
HETATM    6  C   UNL     1      -7.182  17.938  67.794  1.00  0.00    -0.211 C  
HETATM    7  C   UNL     1      -7.743  15.522  67.294  1.00  0.00    -0.244 A  
HETATM    8  C   UNL     1      -6.537  15.127  67.818  1.00  0.00    -0.165 A  
HETATM    9  N   UNL     1      -6.173  13.852  67.964  1.00  0.00    -0.127 NA 
HETATM   10  C   UNL     1      -7.022  12.884  67.611  1.00  0.00    -0.152 A  
HETATM   11  N   UNL     1      -8.215  13.161  67.063  1.00  0.00    -0.108 NA 
HETATM   12  O   UNL     1     -10.903  16.372  65.046  1.00  0.00    -0.591 OA 
HETATM   13  C   UNL     1     -10.074  16.098  65.911  1.00  0.00    -0.354 C  
HETATM   14  C   UNL     1      -8.562  14.469  66.910  1.00  0.00    -0.179 A  
HETATM   15  N   UNL     1      -9.806  14.786  66.290  1.00  0.00    -0.280 N  
BRANCH  10  16
HETATM   16  N   UNL     1      -6.669  11.559  67.855  1.00  0.00    -0.062 NA 
HETATM   17  H   UNL     1      -5.789  11.243  67.447  1.00  0.00     0.000 HD 
BRANCH  16  18
HETATM   18  C   UNL     1      -7.386  10.613  68.596  1.00  0.00    -0.094 A  
HETATM   19  C   UNL     1      -9.121   9.067  68.687  1.00  0.00    -0.137 A  
HETATM   20  C   UNL     1      -7.214  10.443  69.965  1.00  0.00    -0.143 A  
HETATM   21  C   UNL     1      -8.094   9.652  70.697  1.00  0.00    -0.068 A  
HETATM   22  N   UNL     1      -8.303   9.875  67.941  1.00  0.00    -0.113 NA 
HETATM   23  C   UNL     1      -9.122   8.952  70.080  1.00  0.00    -0.166 A  
BRANCH  23  24
HETATM   24  N   UNL     1     -10.023   8.228  70.825  1.00  0.00    -0.187 NA 
HETATM   25  C   UNL     1     -10.986   8.896  71.727  1.00  0.00    -0.361 C  
HETATM   26  C   UNL     1     -12.436   8.616  71.270  1.00  0.00    -0.252 C  
HETATM   27  N   UNL     1     -12.739   7.179  71.143  1.00  0.00    -0.502 NA 
HETATM   28  C   UNL     1     -11.761   6.553  70.229  1.00  0.00    -0.366 C  
HETATM   29  H   UNL     1     -13.702   7.012  70.853  1.00  0.00     0.000 HD 
HETATM   30  C   UNL     1     -10.289   6.796  70.631  1.00  0.00    -0.201 C  
ENDBRANCH  23  24
ENDBRANCH  16  18
ENDBRANCH  10  16
BRANCH  15  31
HETATM   31  C   UNL     1     -10.607  13.676  65.749  1.00  0.00    -0.285 C  
HETATM   32  C   UNL     1     -12.128  13.747  65.983  1.00  0.00    -0.470 C  
HETATM   33  C   UNL     1     -10.447  13.502  64.232  1.00  0.00    -0.258 C  
HETATM   34  C   UNL     1     -12.693  12.824  64.913  1.00  0.00    -0.479 C  
HETATM   35  C   UNL     1     -11.805  13.054  63.699  1.00  0.00    -0.580 C  
ENDBRANCH  15  31
ENDBRANCH   2   4
TORSDOF 5
ENDMDL
MODEL       25
REMARK 921   NORMALIZED FREE ENERGY PREDICTED BY IDOCK:   -6.91 KCAL/MOL
REMARK 922        TOTAL FREE ENERGY PREDICTED BY IDOCK:   -9.52 KCAL/MOL
REMARK 923 INTER-LIGAND FREE ENERGY PREDICTED BY IDOCK:   -9.38 KCAL/MOL
REMARK 924 INTRA-LIGAND FREE ENERGY PREDICTED BY IDOCK:   -0.14 KCAL/MOL
REMARK 927      BINDING AFFINITY PREDICTED BY RF-SCORE:    0.00 PKD
ROOT
HETATM    1  C   UNL     1      -6.720  20.403  66.838  1.00  0.00    -0.292 C  
HETATM    2  C   UNL     1      -6.884  19.826  68.220  1.00  0.00    -0.291 C  
HETATM    3  O   UNL     1      -6.446  20.460  69.183  1.00  0.00    -0.297 OA 
ENDROOT
BRANCH   2   4
HETATM    4  C   UNL     1      -7.640  18.531  68.410  1.00  0.00    -0.312 C  
HETATM    5  C   UNL     1      -8.988  18.507  68.447  1.00  0.00    -0.346 C  
HETATM    6  C   UNL     1      -9.922  19.702  68.428  1.00  0.00    -0.543 C  
HETATM    7  C   UNL     1      -9.652  17.187  68.497  1.00  0.00    -0.288 A  
HETATM    8  C   UNL     1     -11.011  17.037  68.614  1.00  0.00    -0.217 A  
HETATM    9  N   UNL     1     -11.630  15.855  68.615  1.00  0.00    -0.395 NA 
HETATM   10  C   UNL     1     -10.912  14.739  68.470  1.00  0.00    -0.258 A  
HETATM   11  N   UNL     1      -9.575  14.772  68.375  1.00  0.00    -0.207 NA 
HETATM   12  O   UNL     1      -5.708  17.289  68.946  1.00  0.00    -0.150 OA 
HETATM   13  C   UNL     1      -6.883  17.246  68.586  1.00  0.00    -0.207 C  
HETATM   14  C   UNL     1      -8.960  15.988  68.391  1.00  0.00    -0.188 A  
HETATM   15  N   UNL     1      -7.537  16.044  68.335  1.00  0.00    -0.140 N  
BRANCH  10  16
HETATM   16  N   UNL     1     -11.577  13.519  68.378  1.00  0.00    -0.319 NA 
HETATM   17  H   UNL     1     -12.043  13.324  67.492  1.00  0.00     0.000 HD 
BRANCH  16  18
HETATM   18  C   UNL     1     -11.680  12.532  69.365  1.00  0.00    -0.322 A  
HETATM   19  C   UNL     1     -11.374  10.313  69.986  1.00  0.00    -0.301 A  
HETATM   20  C   UNL     1     -12.347  12.736  70.566  1.00  0.00    -0.355 A  
HETATM   21  C   UNL     1     -12.613  11.671  71.420  1.00  0.00    -0.391 A  
HETATM   22  N   UNL     1     -11.135  11.329  69.100  1.00  0.00    -0.235 NA 
HETATM   23  C   UNL     1     -12.162  10.388  71.138  1.00  0.00    -0.394 A  
BRANCH  23  24
HETATM   24  N   UNL     1     -12.490   9.333  71.958  1.00  0.00    -0.378 NA 
HETATM   25  C   UNL     1     -13.899   8.987  72.236  1.00  0.00    -0.484 C  
HETATM   26  C   UNL     1     -14.221   7.570  71.709  1.00  0.00    -0.416 C  
HETATM   27  N   UNL     1     -13.309   6.536  72.230  1.00  0.00    -0.462 NA 
HETATM   28  C   UNL     1     -11.915   6.915  71.924  1.00  0.00    -0.327 C  
HETATM   29  H   UNL     1     -13.543   5.605  71.883  1.00  0.00     0.000 HD 
HETATM   30  C   UNL     1     -11.529   8.325  72.425  1.00  0.00    -0.394 C  
ENDBRANCH  23  24
ENDBRANCH  16  18
ENDBRANCH  10  16
BRANCH  15  31
HETATM   31  C   UNL     1      -6.797  14.771  68.372  1.00  0.00    -0.104 C  
HETATM   32  C   UNL     1      -6.772  14.029  69.722  1.00  0.00    -0.038 C  
HETATM   33  C   UNL     1      -7.321  13.741  67.363  1.00  0.00    -0.125 C  
HETATM   34  C   UNL     1      -6.435  12.598  69.332  1.00  0.00    -0.099 C  
HETATM   35  C   UNL     1      -7.177  12.372  68.022  1.00  0.00    -0.105 C  
ENDBRANCH  15  31
ENDBRANCH   2   4
TORSDOF 5
ENDMDL
MODEL       26
REMARK 921   NORMALIZED FREE ENERGY PREDICTED BY IDOCK:   -6.88 KCAL/MOL
REMARK 922        TOTAL FREE ENERGY PREDICTED BY IDOCK:   -9.48 KCAL/MOL
REMARK 923 INTER-LIGAND FREE ENERGY PREDICTED BY IDOCK:   -8.89 KCAL/MOL
REMARK 924 INTRA-LIGAND FREE ENERGY PREDICTED BY IDOCK:   -0.59 KCAL/MOL
REMARK 927      BINDING AFFINITY PREDICTED BY RF-SCORE:    0.00 PKD
ROOT
HETATM    1  C   UNL     1     -10.632   5.160  66.354  1.00  0.00    -0.336 C  
HETATM    2  C   UNL     1      -9.431   5.992  66.720  1.00  0.00    -0.144 C  
HETATM    3  O   UNL     1      -8.309   5.579  66.418  1.00  0.00    -0.109 OA 
ENDROOT
BRANCH   2   4
HETATM    4  C   UNL     1      -9.621   7.341  67.375  1.00  0.00    -0.176 C  
HETATM    5  C   UNL     1      -9.512   8.485  66.667  1.00  0.00    -0.268 C  
HETATM    6  C   UNL     1      -9.090   8.622  65.217  1.00  0.00    -0.100 C  
HETATM    7  C   UNL     1      -9.848   9.752  67.351  1.00  0.00    -0.219 A  
HETATM    8  C   UNL     1      -9.703  10.981  66.759  1.00  0.00    -0.193 A  
HETATM    9  N   UNL     1     -10.044  12.131  67.344  1.00  0.00    -0.198 NA 
HETATM   10  C   UNL     1     -10.583  12.110  68.566  1.00  0.00    -0.233 A  
HETATM   11  N   UNL     1     -10.742  10.964  69.243  1.00  0.00    -0.224 NA 
HETATM   12  O   UNL     1      -9.630   6.462  69.564  1.00  0.00    -0.144 OA 
HETATM   13  C   UNL     1      -9.913   7.419  68.846  1.00  0.00    -0.169 C  
HETATM   14  C   UNL     1     -10.375   9.802  68.634  1.00  0.00    -0.201 A  
HETATM   15  N   UNL     1     -10.496   8.577  69.353  1.00  0.00    -0.220 N  
BRANCH  10  16
HETATM   16  N   UNL     1     -11.021  13.307  69.127  1.00  0.00    -0.404 NA 
HETATM   17  H   UNL     1     -11.748  13.234  69.838  1.00  0.00     0.000 HD 
BRANCH  16  18
HETATM   18  C   UNL     1     -10.575  14.599  68.825  1.00  0.00    -0.248 A  
HETATM   19  C   UNL     1      -8.960  16.251  69.088  1.00  0.00    -0.219 A  
HETATM   20  C   UNL     1     -11.367  15.533  68.167  1.00  0.00    -0.348 A  
HETATM   21  C   UNL     1     -10.971  16.864  68.081  1.00  0.00    -0.290 A  
HETATM   22  N   UNL     1      -9.338  14.942  69.233  1.00  0.00    -0.150 NA 
HETATM   23  C   UNL     1      -9.748  17.288  68.582  1.00  0.00    -0.301 A  
BRANCH  23  24
HETATM   24  N   UNL     1      -9.400  18.619  68.549  1.00  0.00    -0.335 NA 
HETATM   25  C   UNL     1      -7.992  19.047  68.682  1.00  0.00    -0.352 C  
HETATM   26  C   UNL     1      -7.524  19.770  67.399  1.00  0.00    -0.263 C  
HETATM   27  N   UNL     1      -8.389  20.903  67.022  1.00  0.00    -0.566 NA 
HETATM   28  C   UNL     1      -9.782  20.431  66.891  1.00  0.00    -0.426 C  
HETATM   29  H   UNL     1      -8.060  21.377  66.181  1.00  0.00     0.000 HD 
HETATM   30  C   UNL     1     -10.312  19.697  68.144  1.00  0.00    -0.438 C  
ENDBRANCH  23  24
ENDBRANCH  16  18
ENDBRANCH  10  16
BRANCH  15  31
HETATM   31  C   UNL     1     -10.913   8.645  70.763  1.00  0.00    -0.245 C  
HETATM   32  C   UNL     1     -11.835   7.516  71.263  1.00  0.00    -0.319 C  
HETATM   33  C   UNL     1      -9.730   8.654  71.741  1.00  0.00    -0.361 C  
HETATM   34  C   UNL     1     -11.653   7.555  72.773  1.00  0.00    -0.299 C  
HETATM   35  C   UNL     1     -10.178   7.875  72.975  1.00  0.00    -0.394 C  
ENDBRANCH  15  31
ENDBRANCH   2   4
TORSDOF 5
ENDMDL
MODEL       27
REMARK 921   NORMALIZED FREE ENERGY PREDICTED BY IDOCK:   -6.87 KCAL/MOL
REMARK 922        TOTAL FREE ENERGY PREDICTED BY IDOCK:   -9.47 KCAL/MOL
REMARK 923 INTER-LIGAND FREE ENERGY PREDICTED BY IDOCK:   -8.96 KCAL/MOL
REMARK 924 INTRA-LIGAND FREE ENERGY PREDICTED BY IDOCK:   -0.51 KCAL/MOL
REMARK 927      BINDING AFFINITY PREDICTED BY RF-SCORE:    0.00 PKD
ROOT
HETATM    1  C   UNL     1     -10.439   7.586  73.290  1.00  0.00    -0.426 C  
HETATM    2  C   UNL     1     -11.328   7.406  72.088  1.00  0.00    -0.271 C  
HETATM    3  O   UNL     1     -12.168   6.503  72.101  1.00  0.00    -0.308 OA 
ENDROOT
BRANCH   2   4
HETATM    4  C   UNL     1     -11.231   8.371  70.928  1.00  0.00    -0.294 C  
HETATM    5  C   UNL     1     -11.868   9.560  70.951  1.00  0.00    -0.385 C  
HETATM    6  C   UNL     1     -12.828  10.059  72.014  1.00  0.00    -0.484 C  
HETATM    7  C   UNL     1     -11.610  10.501  69.841  1.00  0.00    -0.384 A  
HETATM    8  C   UNL     1     -12.256  11.705  69.716  1.00  0.00    -0.219 A  
HETATM    9  N   UNL     1     -12.003  12.586  68.746  1.00  0.00    -0.291 NA 
HETATM   10  C   UNL     1     -11.053  12.316  67.847  1.00  0.00    -0.243 A  
HETATM   11  N   UNL     1     -10.381  11.156  67.863  1.00  0.00    -0.180 NA 
HETATM   12  O   UNL     1     -10.184   6.810  69.503  1.00  0.00    -0.174 OA 
HETATM   13  C   UNL     1     -10.431   7.996  69.714  1.00  0.00    -0.227 C  
HETATM   14  C   UNL     1     -10.664  10.263  68.853  1.00  0.00    -0.227 A  
HETATM   15  N   UNL     1      -9.993   9.006  68.863  1.00  0.00    -0.183 N  
BRANCH  10  16
HETATM   16  N   UNL     1     -10.734  13.283  66.897  1.00  0.00    -0.270 NA 
HETATM   17  H   UNL     1     -11.069  13.114  65.949  1.00  0.00     0.000 HD 
BRANCH  16  18
HETATM   18  C   UNL     1     -10.004  14.460  67.097  1.00  0.00    -0.253 A  
HETATM   19  C   UNL     1      -9.241  16.093  68.566  1.00  0.00    -0.210 A  
HETATM   20  C   UNL     1      -9.523  15.234  66.048  1.00  0.00    -0.372 A  
HETATM   21  C   UNL     1      -8.997  16.501  66.284  1.00  0.00    -0.359 A  
HETATM   22  N   UNL     1      -9.807  14.861  68.368  1.00  0.00    -0.210 NA 
HETATM   23  C   UNL     1      -8.870  17.002  67.572  1.00  0.00    -0.211 A  
BRANCH  23  24
HETATM   24  N   UNL     1      -8.411  18.282  67.784  1.00  0.00    -0.251 NA 
HETATM   25  C   UNL     1      -7.259  18.818  67.029  1.00  0.00    -0.209 C  
HETATM   26  C   UNL     1      -7.693  20.029  66.172  1.00  0.00    -0.299 C  
HETATM   27  N   UNL     1      -8.352  21.089  66.956  1.00  0.00    -0.542 NA 
HETATM   28  C   UNL     1      -9.500  20.514  67.687  1.00  0.00    -0.317 C  
HETATM   29  H   UNL     1      -8.621  21.886  66.378  1.00  0.00     0.000 HD 
HETATM   30  C   UNL     1      -9.132  19.297  68.565  1.00  0.00    -0.377 C  
ENDBRANCH  23  24
ENDBRANCH  16  18
ENDBRANCH  10  16
BRANCH  15  31
HETATM   31  C   UNL     1      -9.101   8.694  67.733  1.00  0.00    -0.135 C  
HETATM   32  C   UNL     1      -7.756   8.028  68.082  1.00  0.00    -0.118 C  
HETATM   33  C   UNL     1      -9.746   7.765  66.696  1.00  0.00    -0.292 C  
HETATM   34  C   UNL     1      -7.336   7.375  66.774  1.00  0.00    -0.092 C  
HETATM   35  C   UNL     1      -8.634   6.865  66.164  1.00  0.00    -0.147 C  
ENDBRANCH  15  31
ENDBRANCH   2   4
TORSDOF 5
ENDMDL
MODEL       28
REMARK 921   NORMALIZED FREE ENERGY PREDICTED BY IDOCK:   -6.84 KCAL/MOL
REMARK 922        TOTAL FREE ENERGY PREDICTED BY IDOCK:   -9.43 KCAL/MOL
REMARK 923 INTER-LIGAND FREE ENERGY PREDICTED BY IDOCK:   -8.66 KCAL/MOL
REMARK 924 INTRA-LIGAND FREE ENERGY PREDICTED BY IDOCK:   -0.76 KCAL/MOL
REMARK 927      BINDING AFFINITY PREDICTED BY RF-SCORE:    0.00 PKD
ROOT
HETATM    1  C   UNL     1     -10.276  16.851  68.982  1.00  0.00    -0.308 C  
HETATM    2  C   UNL     1     -11.006  15.728  68.292  1.00  0.00    -0.325 C  
HETATM    3  O   UNL     1     -11.409  15.903  67.140  1.00  0.00    -0.145 OA 
ENDROOT
BRANCH   2   4
HETATM    4  C   UNL     1     -11.167  14.396  68.987  1.00  0.00    -0.288 C  
HETATM    5  C   UNL     1     -12.054  14.233  69.991  1.00  0.00    -0.400 C  
HETATM    6  C   UNL     1     -12.903  15.308  70.641  1.00  0.00    -0.462 C  
HETATM    7  C   UNL     1     -12.248  12.867  70.523  1.00  0.00    -0.395 A  
HETATM    8  C   UNL     1     -13.064  12.590  71.591  1.00  0.00    -0.315 A  
HETATM    9  N   UNL     1     -13.286  11.359  72.055  1.00  0.00    -0.455 NA 
HETATM   10  C   UNL     1     -12.713  10.316  71.449  1.00  0.00    -0.442 A  
HETATM   11  N   UNL     1     -11.877  10.480  70.413  1.00  0.00    -0.311 NA 
HETATM   12  O   UNL     1      -9.263  13.447  67.970  1.00  0.00    -0.195 OA 
HETATM   13  C   UNL     1     -10.311  13.233  68.575  1.00  0.00    -0.239 C  
HETATM   14  C   UNL     1     -11.652  11.745  69.963  1.00  0.00    -0.236 A  
HETATM   15  N   UNL     1     -10.733  11.945  68.891  1.00  0.00    -0.219 N  
BRANCH  10  16
HETATM   16  N   UNL     1     -13.027   9.031  71.883  1.00  0.00    -0.360 NA 
HETATM   17  H   UNL     1     -13.977   8.888  72.225  1.00  0.00     0.000 HD 
BRANCH  16  18
HETATM   18  C   UNL     1     -12.185   7.913  71.904  1.00  0.00    -0.314 A  
HETATM   19  C   UNL     1     -10.433   6.771  72.919  1.00  0.00    -0.234 A  
HETATM   20  C   UNL     1     -12.132   6.993  70.864  1.00  0.00    -0.403 A  
HETATM   21  C   UNL     1     -11.133   6.025  70.824  1.00  0.00    -0.355 A  
HETATM   22  N   UNL     1     -11.373   7.766  72.968  1.00  0.00    -0.365 NA 
HETATM   23  C   UNL     1     -10.205   5.901  71.850  1.00  0.00    -0.203 A  
BRANCH  23  24
HETATM   24  N   UNL     1      -9.184   4.982  71.764  1.00  0.00    -0.140 NA 
HETATM   25  C   UNL     1      -9.413   3.551  72.052  1.00  0.00    -0.132 C  
HETATM   26  C   UNL     1      -9.143   2.697  70.792  1.00  0.00    -0.118 C  
HETATM   27  N   UNL     1      -7.802   2.914  70.220  1.00  0.00    -0.043 NA 
HETATM   28  C   UNL     1      -7.618   4.353  69.939  1.00  0.00    -0.050 C  
HETATM   29  H   UNL     1      -7.635   2.334  69.397  1.00  0.00     0.000 HD 
HETATM   30  C   UNL     1      -7.874   5.263  71.161  1.00  0.00    -0.103 C  
ENDBRANCH  23  24
ENDBRANCH  16  18
ENDBRANCH  10  16
BRANCH  15  31
HETATM   31  C   UNL     1      -9.990  10.774  68.396  1.00  0.00    -0.164 C  
HETATM   32  C   UNL     1      -9.316   9.887  69.460  1.00  0.00    -0.236 C  
HETATM   33  C   UNL     1     -10.859   9.815  67.572  1.00  0.00    -0.286 C  
HETATM   34  C   UNL     1      -9.117   8.562  68.739  1.00  0.00    -0.143 C  
HETATM   35  C   UNL     1     -10.358   8.405  67.873  1.00  0.00    -0.279 C  
ENDBRANCH  15  31
ENDBRANCH   2   4
TORSDOF 5
ENDMDL
MODEL       29
REMARK 921   NORMALIZED FREE ENERGY PREDICTED BY IDOCK:   -6.79 KCAL/MOL
REMARK 922        TOTAL FREE ENERGY PREDICTED BY IDOCK:   -9.37 KCAL/MOL
REMARK 923 INTER-LIGAND FREE ENERGY PREDICTED BY IDOCK:   -8.72 KCAL/MOL
REMARK 924 INTRA-LIGAND FREE ENERGY PREDICTED BY IDOCK:   -0.64 KCAL/MOL
REMARK 927      BINDING AFFINITY PREDICTED BY RF-SCORE:    0.00 PKD
ROOT
HETATM    1  C   UNL     1      -7.175   7.507  73.558  1.00  0.00    -0.100 C  
HETATM    2  C   UNL     1      -7.821   7.179  72.237  1.00  0.00    -0.090 C  
HETATM    3  O   UNL     1      -7.734   6.027  71.805  1.00  0.00    -0.098 OA 
ENDROOT
BRANCH   2   4
HETATM    4  C   UNL     1      -8.619   8.234  71.507  1.00  0.00    -0.197 C  
HETATM    5  C   UNL     1      -8.019   9.124  70.689  1.00  0.00    -0.177 C  
HETATM    6  C   UNL     1      -6.528   9.295  70.464  1.00  0.00    -0.067 C  
HETATM    7  C   UNL     1      -8.884  10.032  69.907  1.00  0.00    -0.177 A  
HETATM    8  C   UNL     1      -8.389  11.027  69.102  1.00  0.00    -0.026 A  
HETATM    9  N   UNL     1      -9.153  11.826  68.354  1.00  0.00    -0.188 NA 
HETATM   10  C   UNL     1     -10.476  11.652  68.352  1.00  0.00    -0.213 A  
HETATM   11  N   UNL     1     -11.064  10.726  69.123  1.00  0.00    -0.229 NA 
HETATM   12  O   UNL     1     -10.602   7.804  72.709  1.00  0.00    -0.281 OA 
HETATM   13  C   UNL     1     -10.105   8.315  71.707  1.00  0.00    -0.224 C  
HETATM   14  C   UNL     1     -10.268   9.930  69.890  1.00  0.00    -0.257 A  
HETATM   15  N   UNL     1     -10.875   8.969  70.750  1.00  0.00    -0.233 N  
BRANCH  10  16
HETATM   16  N   UNL     1     -11.254  12.429  67.497  1.00  0.00    -0.275 NA 
HETATM   17  H   UNL     1     -12.084  11.982  67.108  1.00  0.00     0.000 HD 
BRANCH  16  18
HETATM   18  C   UNL     1     -11.025  13.755  67.111  1.00  0.00    -0.290 A  
HETATM   19  C   UNL     1     -10.127  15.241  65.564  1.00  0.00    -0.375 A  
HETATM   20  C   UNL     1     -11.268  14.835  67.950  1.00  0.00    -0.318 A  
HETATM   21  C   UNL     1     -10.825  16.110  67.612  1.00  0.00    -0.297 A  
HETATM   22  N   UNL     1     -10.508  13.965  65.885  1.00  0.00    -0.297 NA 
HETATM   23  C   UNL     1     -10.192  16.358  66.402  1.00  0.00    -0.316 A  
BRANCH  23  24
HETATM   24  N   UNL     1      -9.700  17.610  66.111  1.00  0.00    -0.485 NA 
HETATM   25  C   UNL     1     -10.601  18.718  65.729  1.00  0.00    -0.271 C  
HETATM   26  C   UNL     1     -10.520  19.860  66.767  1.00  0.00    -0.451 C  
HETATM   27  N   UNL     1      -9.147  20.347  66.991  1.00  0.00    -0.505 NA 
HETATM   28  C   UNL     1      -8.284  19.213  67.378  1.00  0.00    -0.276 C  
HETATM   29  H   UNL     1      -9.113  21.109  67.668  1.00  0.00     0.000 HD 
HETATM   30  C   UNL     1      -8.319  18.034  66.379  1.00  0.00    -0.246 C  
ENDBRANCH  23  24
ENDBRANCH  16  18
ENDBRANCH  10  16
BRANCH  15  31
HETATM   31  C   UNL     1     -12.345   8.961  70.844  1.00  0.00    -0.090 C  
HETATM   32  C   UNL     1     -13.016   7.585  71.015  1.00  0.00    -0.160 C  
HETATM   33  C   UNL     1     -12.877   9.809  72.007  1.00  0.00    -0.491 C  
HETATM   34  C   UNL     1     -14.380   7.927  71.595  1.00  0.00    -0.595 C  
HETATM   35  C   UNL     1     -14.115   9.091  72.539  1.00  0.00    -0.428 C  
ENDBRANCH  15  31
ENDBRANCH   2   4
TORSDOF 5
ENDMDL
MODEL       30
REMARK 921   NORMALIZED FREE ENERGY PREDICTED BY IDOCK:   -6.79 KCAL/MOL
REMARK 922        TOTAL FREE ENERGY PREDICTED BY IDOCK:   -9.36 KCAL/MOL
REMARK 923 INTER-LIGAND FREE ENERGY PREDICTED BY IDOCK:   -8.65 KCAL/MOL
REMARK 924 INTRA-LIGAND FREE ENERGY PREDICTED BY IDOCK:   -0.71 KCAL/MOL
REMARK 927      BINDING AFFINITY PREDICTED BY RF-SCORE:    0.00 PKD
ROOT
HETATM    1  C   UNL     1     -11.501   7.627  72.785  1.00  0.00    -0.384 C  
HETATM    2  C   UNL     1     -11.392   7.695  71.284  1.00  0.00    -0.264 C  
HETATM    3  O   UNL     1     -11.921   6.808  70.610  1.00  0.00    -0.386 OA 
ENDROOT
BRANCH   2   4
HETATM    4  C   UNL     1     -10.709   8.875  70.631  1.00  0.00    -0.282 C  
HETATM    5  C   UNL     1      -9.374   8.891  70.437  1.00  0.00    -0.223 C  
HETATM    6  C   UNL     1      -8.371   7.857  70.911  1.00  0.00    -0.115 C  
HETATM    7  C   UNL     1      -8.804  10.019  69.669  1.00  0.00    -0.217 A  
HETATM    8  C   UNL     1      -7.456  10.183  69.472  1.00  0.00    -0.133 A  
HETATM    9  N   UNL     1      -6.927  11.169  68.745  1.00  0.00    -0.080 NA 
HETATM   10  C   UNL     1      -7.734  12.044  68.142  1.00  0.00    -0.135 A  
HETATM   11  N   UNL     1      -9.066  11.990  68.292  1.00  0.00    -0.193 NA 
HETATM   12  O   UNL     1     -12.627  10.245  70.718  1.00  0.00    -0.325 OA 
HETATM   13  C   UNL     1     -11.521  10.066  70.211  1.00  0.00    -0.300 C  
HETATM   14  C   UNL     1      -9.586  10.984  69.050  1.00  0.00    -0.121 A  
HETATM   15  N   UNL     1     -10.995  10.933  69.258  1.00  0.00    -0.227 N  
BRANCH  10  16
HETATM   16  N   UNL     1      -7.175  13.011  67.310  1.00  0.00    -0.331 NA 
HETATM   17  H   UNL     1      -6.527  12.675  66.598  1.00  0.00     0.000 HD 
BRANCH  16  18
HETATM   18  C   UNL     1      -7.402  14.392  67.341  1.00  0.00    -0.142 A  
HETATM   19  C   UNL     1      -6.828  16.475  68.198  1.00  0.00    -0.136 A  
HETATM   20  C   UNL     1      -8.504  14.986  66.738  1.00  0.00    -0.239 A  
HETATM   21  C   UNL     1      -8.808  16.323  66.976  1.00  0.00    -0.228 A  
HETATM   22  N   UNL     1      -6.523  15.151  68.024  1.00  0.00    -0.130 NA 
HETATM   23  C   UNL     1      -7.986  17.122  67.762  1.00  0.00    -0.184 A  
BRANCH  23  24
HETATM   24  N   UNL     1      -8.335  18.423  68.042  1.00  0.00    -0.265 NA 
HETATM   25  C   UNL     1      -7.527  19.557  67.548  1.00  0.00    -0.244 C  
HETATM   26  C   UNL     1      -8.362  20.438  66.591  1.00  0.00    -0.161 C  
HETATM   27  N   UNL     1      -9.625  20.908  67.186  1.00  0.00    -0.689 NA 
HETATM   28  C   UNL     1     -10.405  19.745  67.658  1.00  0.00    -0.441 C  
HETATM   29  H   UNL     1     -10.158  21.498  66.547  1.00  0.00     0.000 HD 
HETATM   30  C   UNL     1      -9.625  18.822  68.622  1.00  0.00    -0.387 C  
ENDBRANCH  23  24
ENDBRANCH  16  18
ENDBRANCH  10  16
BRANCH  15  31
HETATM   31  C   UNL     1     -11.809  12.039  68.727  1.00  0.00    -0.302 C  
HETATM   32  C   UNL     1     -11.383  13.463  69.131  1.00  0.00    -0.333 C  
HETATM   33  C   UNL     1     -11.863  12.063  67.193  1.00  0.00    -0.251 C  
HETATM   34  C   UNL     1     -12.022  14.340  68.065  1.00  0.00    -0.353 C  
HETATM   35  C   UNL     1     -11.900  13.532  66.780  1.00  0.00    -0.450 C  
ENDBRANCH  15  31
ENDBRANCH   2   4
TORSDOF 5
ENDMDL
MODEL       31
REMARK 921   NORMALIZED FREE ENERGY PREDICTED BY IDOCK:   -6.72 KCAL/MOL
REMARK 922        TOTAL FREE ENERGY PREDICTED BY IDOCK:   -9.28 KCAL/MOL
REMARK 923 INTER-LIGAND FREE ENERGY PREDICTED BY IDOCK:   -9.03 KCAL/MOL
REMARK 924 INTRA-LIGAND FREE ENERGY PREDICTED BY IDOCK:   -0.25 KCAL/MOL
REMARK 927      BINDING AFFINITY PREDICTED BY RF-SCORE:    0.00 PKD
ROOT
HETATM    1  C   UNL     1     -10.904  16.984  65.891  1.00  0.00    -0.024 C  
HETATM    2  C   UNL     1     -10.304  16.479  67.178  1.00  0.00    -0.298 C  
HETATM    3  O   UNL     1      -9.368  17.105  67.681  1.00  0.00    -0.235 OA 
ENDROOT
BRANCH   2   4
HETATM    4  C   UNL     1     -10.899  15.270  67.863  1.00  0.00    -0.288 C  
HETATM    5  C   UNL     1     -10.863  14.051  67.287  1.00  0.00    -0.288 C  
HETATM    6  C   UNL     1     -10.363  13.715  65.895  1.00  0.00    -0.304 C  
HETATM    7  C   UNL     1     -11.342  12.900  68.081  1.00  0.00    -0.327 A  
HETATM    8  C   UNL     1     -11.424  11.626  67.577  1.00  0.00    -0.289 A  
HETATM    9  N   UNL     1     -11.810  10.568  68.293  1.00  0.00    -0.356 NA 
HETATM   10  C   UNL     1     -12.117  10.726  69.582  1.00  0.00    -0.289 A  
HETATM   11  N   UNL     1     -12.096  11.934  70.166  1.00  0.00    -0.319 NA 
HETATM   12  O   UNL     1     -11.957  16.539  69.547  1.00  0.00     0.131 OA 
HETATM   13  C   UNL     1     -11.567  15.426  69.199  1.00  0.00    -0.339 C  
HETATM   14  C   UNL     1     -11.712  13.003  69.415  1.00  0.00    -0.326 A  
HETATM   15  N   UNL     1     -11.725  14.302  70.003  1.00  0.00    -0.288 N  
BRANCH  10  16
HETATM   16  N   UNL     1     -12.428   9.601  70.341  1.00  0.00    -0.484 NA 
HETATM   17  H   UNL     1     -13.379   9.550  70.705  1.00  0.00     0.000 HD 
BRANCH  16  18
HETATM   18  C   UNL     1     -11.582   8.533  70.661  1.00  0.00    -0.194 A  
HETATM   19  C   UNL     1      -9.454   7.599  70.585  1.00  0.00    -0.163 A  
HETATM   20  C   UNL     1     -12.054   7.323  71.156  1.00  0.00    -0.376 A  
HETATM   21  C   UNL     1     -11.211   6.219  71.253  1.00  0.00    -0.355 A  
HETATM   22  N   UNL     1     -10.265   8.693  70.432  1.00  0.00    -0.188 NA 
HETATM   23  C   UNL     1      -9.864   6.308  70.928  1.00  0.00    -0.181 A  
BRANCH  23  24
HETATM   24  N   UNL     1      -9.060   5.193  70.966  1.00  0.00    -0.142 NA 
HETATM   25  C   UNL     1      -9.248   4.145  71.991  1.00  0.00    -0.124 C  
HETATM   26  C   UNL     1      -9.627   2.802  71.326  1.00  0.00    -0.157 C  
HETATM   27  N   UNL     1      -8.662   2.370  70.299  1.00  0.00    -0.062 NA 
HETATM   28  C   UNL     1      -8.510   3.439  69.291  1.00  0.00    -0.062 C  
HETATM   29  H   UNL     1      -8.920   1.476  69.879  1.00  0.00     0.000 HD 
HETATM   30  C   UNL     1      -8.131   4.812  69.893  1.00  0.00    -0.069 C  
ENDBRANCH  23  24
ENDBRANCH  16  18
ENDBRANCH  10  16
BRANCH  15  31
HETATM   31  C   UNL     1     -12.258  14.432  71.370  1.00  0.00    -0.352 C  
HETATM   32  C   UNL     1     -11.651  15.547  72.242  1.00  0.00    -0.554 C  
HETATM   33  C   UNL     1     -13.772  14.683  71.403  1.00  0.00    -0.474 C  
HETATM   34  C   UNL     1     -12.708  15.772  73.313  1.00  0.00    -0.640 C  
HETATM   35  C   UNL     1     -14.034  15.615  72.583  1.00  0.00    -0.608 C  
ENDBRANCH  15  31
ENDBRANCH   2   4
TORSDOF 5
ENDMDL
MODEL       32
REMARK 921   NORMALIZED FREE ENERGY PREDICTED BY IDOCK:   -6.71 KCAL/MOL
REMARK 922        TOTAL FREE ENERGY PREDICTED BY IDOCK:   -9.26 KCAL/MOL
REMARK 923 INTER-LIGAND FREE ENERGY PREDICTED BY IDOCK:   -9.25 KCAL/MOL
REMARK 924 INTRA-LIGAND FREE ENERGY PREDICTED BY IDOCK:   -0.00 KCAL/MOL
REMARK 927      BINDING AFFINITY PREDICTED BY RF-SCORE:    0.00 PKD
ROOT
HETATM    1  C   UNL     1      -9.223  19.124  68.369  1.00  0.00    -0.406 C  
HETATM    2  C   UNL     1     -10.413  18.506  67.681  1.00  0.00    -0.417 C  
HETATM    3  O   UNL     1     -11.233  19.248  67.135  1.00  0.00    -0.324 OA 
ENDROOT
BRANCH   2   4
HETATM    4  C   UNL     1     -10.543  17.002  67.606  1.00  0.00    -0.333 C  
HETATM    5  C   UNL     1     -10.830  16.270  68.702  1.00  0.00    -0.322 C  
HETATM    6  C   UNL     1     -10.947  16.771  70.129  1.00  0.00     0.022 C  
HETATM    7  C   UNL     1     -11.076  14.824  68.518  1.00  0.00    -0.275 A  
HETATM    8  C   UNL     1     -11.301  13.965  69.564  1.00  0.00    -0.237 A  
HETATM    9  N   UNL     1     -11.569  12.666  69.414  1.00  0.00    -0.303 NA 
HETATM   10  C   UNL     1     -11.653  12.153  68.185  1.00  0.00    -0.337 A  
HETATM   11  N   UNL     1     -11.424  12.899  67.095  1.00  0.00    -0.316 NA 
HETATM   12  O   UNL     1      -9.695  16.872  65.409  1.00  0.00    -0.506 OA 
HETATM   13  C   UNL     1     -10.326  16.301  66.296  1.00  0.00    -0.326 C  
HETATM   14  C   UNL     1     -11.137  14.220  67.270  1.00  0.00    -0.306 A  
HETATM   15  N   UNL     1     -10.847  15.022  66.127  1.00  0.00    -0.324 N  
BRANCH  10  16
HETATM   16  N   UNL     1     -12.026  10.819  68.038  1.00  0.00    -0.773 NA 
HETATM   17  H   UNL     1     -12.965  10.649  67.678  1.00  0.00     0.000 HD 
BRANCH  16  18
HETATM   18  C   UNL     1     -11.258   9.686  68.329  1.00  0.00     0.054 A  
HETATM   19  C   UNL     1     -10.053   7.855  67.552  1.00  0.00    -0.213 A  
HETATM   20  C   UNL     1     -11.121   9.181  69.616  1.00  0.00    -0.103 A  
HETATM   21  C   UNL     1     -10.534   7.938  69.832  1.00  0.00    -0.229 A  
HETATM   22  N   UNL     1     -10.667   9.053  67.297  1.00  0.00    -0.227 NA 
HETATM   23  C   UNL     1     -10.003   7.198  68.784  1.00  0.00    -0.163 A  
BRANCH  23  24
HETATM   24  N   UNL     1      -9.486   5.942  69.004  1.00  0.00    -0.125 NA 
HETATM   25  C   UNL     1      -8.074   5.629  68.696  1.00  0.00    -0.100 C  
HETATM   26  C   UNL     1      -7.315   5.238  69.984  1.00  0.00    -0.064 C  
HETATM   27  N   UNL     1      -7.954   4.133  70.723  1.00  0.00    -0.055 NA 
HETATM   28  C   UNL     1      -9.357   4.489  71.017  1.00  0.00    -0.150 C  
HETATM   29  H   UNL     1      -7.434   3.879  71.563  1.00  0.00     0.000 HD 
HETATM   30  C   UNL     1     -10.173   4.891  69.768  1.00  0.00    -0.214 C  
ENDBRANCH  23  24
ENDBRANCH  16  18
ENDBRANCH  10  16
BRANCH  15  31
HETATM   31  C   UNL     1     -10.767  14.351  64.819  1.00  0.00    -0.403 C  
HETATM   32  C   UNL     1     -10.135  12.946  64.804  1.00  0.00    -0.242 C  
HETATM   33  C   UNL     1     -12.136  14.177  64.147  1.00  0.00    -0.437 C  
HETATM   34  C   UNL     1     -10.660  12.337  63.512  1.00  0.00    -0.488 C  
HETATM   35  C   UNL     1     -12.089  12.847  63.400  1.00  0.00    -0.610 C  
ENDBRANCH  15  31
ENDBRANCH   2   4
TORSDOF 5
ENDMDL
MODEL       33
REMARK 921   NORMALIZED FREE ENERGY PREDICTED BY IDOCK:   -6.69 KCAL/MOL
REMARK 922        TOTAL FREE ENERGY PREDICTED BY IDOCK:   -9.24 KCAL/MOL
REMARK 923 INTER-LIGAND FREE ENERGY PREDICTED BY IDOCK:   -8.88 KCAL/MOL
REMARK 924 INTRA-LIGAND FREE ENERGY PREDICTED BY IDOCK:   -0.36 KCAL/MOL
REMARK 927      BINDING AFFINITY PREDICTED BY RF-SCORE:    0.00 PKD
ROOT
HETATM    1  C   UNL     1      -8.572   5.493  71.058  1.00  0.00    -0.126 C  
HETATM    2  C   UNL     1      -9.773   5.723  70.178  1.00  0.00    -0.170 C  
HETATM    3  O   UNL     1     -10.313   4.750  69.647  1.00  0.00    -0.217 OA 
ENDROOT
BRANCH   2   4
HETATM    4  C   UNL     1     -10.337   7.117  70.022  1.00  0.00    -0.219 C  
HETATM    5  C   UNL     1     -11.154   7.649  70.955  1.00  0.00    -0.273 C  
HETATM    6  C   UNL     1     -11.713   6.954  72.181  1.00  0.00    -0.327 C  
HETATM    7  C   UNL     1     -11.549   9.065  70.796  1.00  0.00    -0.313 A  
HETATM    8  C   UNL     1     -12.434   9.693  71.636  1.00  0.00    -0.407 A  
HETATM    9  N   UNL     1     -12.767  10.981  71.534  1.00  0.00    -0.421 NA 
HETATM   10  C   UNL     1     -12.203  11.731  70.585  1.00  0.00    -0.349 A  
HETATM   11  N   UNL     1     -11.346  11.209  69.695  1.00  0.00    -0.275 NA 
HETATM   12  O   UNL     1      -9.612   7.339  67.789  1.00  0.00    -0.136 OA 
HETATM   13  C   UNL     1     -10.006   7.921  68.798  1.00  0.00    -0.187 C  
HETATM   14  C   UNL     1     -11.029   9.888  69.806  1.00  0.00    -0.268 A  
HETATM   15  N   UNL     1     -10.155   9.303  68.845  1.00  0.00    -0.189 N  
BRANCH  10  16
HETATM   16  N   UNL     1     -12.487  13.094  70.548  1.00  0.00    -0.289 NA 
HETATM   17  H   UNL     1     -13.089  13.450  71.290  1.00  0.00     0.000 HD 
BRANCH  16  18
HETATM   18  C   UNL     1     -12.040  14.028  69.607  1.00  0.00    -0.355 A  
HETATM   19  C   UNL     1     -11.772  14.621  67.375  1.00  0.00    -0.390 A  
HETATM   20  C   UNL     1     -11.272  15.134  69.953  1.00  0.00    -0.305 A  
HETATM   21  C   UNL     1     -10.668  15.913  68.971  1.00  0.00    -0.251 A  
HETATM   22  N   UNL     1     -12.344  13.805  68.315  1.00  0.00    -0.113 NA 
HETATM   23  C   UNL     1     -10.868  15.657  67.621  1.00  0.00    -0.307 A  
BRANCH  23  24
HETATM   24  N   UNL     1     -10.210  16.395  66.663  1.00  0.00    -0.286 NA 
HETATM   25  C   UNL     1     -10.580  17.799  66.389  1.00  0.00    -0.218 C  
HETATM   26  C   UNL     1      -9.395  18.740  66.707  1.00  0.00    -0.318 C  
HETATM   27  N   UNL     1      -8.155  18.372  66.001  1.00  0.00    -0.498 NA 
HETATM   28  C   UNL     1      -7.817  16.967  66.308  1.00  0.00    -0.311 C  
HETATM   29  H   UNL     1      -7.387  19.009  66.211  1.00  0.00     0.000 HD 
HETATM   30  C   UNL     1      -8.963  15.972  66.012  1.00  0.00    -0.310 C  
ENDBRANCH  23  24
ENDBRANCH  16  18
ENDBRANCH  10  16
BRANCH  15  31
HETATM   31  C   UNL     1      -9.721  10.138  67.712  1.00  0.00    -0.153 C  
HETATM   32  C   UNL     1     -10.830  10.876  66.937  1.00  0.00    -0.307 C  
HETATM   33  C   UNL     1      -8.726  11.234  68.118  1.00  0.00    -0.155 C  
HETATM   34  C   UNL     1     -10.083  12.001  66.237  1.00  0.00    -0.247 C  
HETATM   35  C   UNL     1      -9.029  12.446  67.241  1.00  0.00    -0.190 C  
ENDBRANCH  15  31
ENDBRANCH   2   4
TORSDOF 5
ENDMDL
MODEL       34
REMARK 921   NORMALIZED FREE ENERGY PREDICTED BY IDOCK:   -6.69 KCAL/MOL
REMARK 922        TOTAL FREE ENERGY PREDICTED BY IDOCK:   -9.23 KCAL/MOL
REMARK 923 INTER-LIGAND FREE ENERGY PREDICTED BY IDOCK:   -8.88 KCAL/MOL
REMARK 924 INTRA-LIGAND FREE ENERGY PREDICTED BY IDOCK:   -0.35 KCAL/MOL
REMARK 927      BINDING AFFINITY PREDICTED BY RF-SCORE:    0.00 PKD
ROOT
HETATM    1  C   UNL     1      -8.119   8.204  73.852  1.00  0.00    -0.301 C  
HETATM    2  C   UNL     1      -8.987   7.556  72.805  1.00  0.00    -0.148 C  
HETATM    3  O   UNL     1      -9.326   6.381  72.961  1.00  0.00    -0.137 OA 
ENDROOT
BRANCH   2   4
HETATM    4  C   UNL     1      -9.487   8.369  71.633  1.00  0.00    -0.281 C  
HETATM    5  C   UNL     1     -10.758   8.820  71.584  1.00  0.00    -0.397 C  
HETATM    6  C   UNL     1     -11.871   8.514  72.567  1.00  0.00    -0.398 C  
HETATM    7  C   UNL     1     -11.126   9.722  70.473  1.00  0.00    -0.384 A  
HETATM    8  C   UNL     1     -12.403  10.182  70.276  1.00  0.00    -0.138 A  
HETATM    9  N   UNL     1     -12.744  11.033  69.305  1.00  0.00    -0.147 NA 
HETATM   10  C   UNL     1     -11.803  11.497  68.480  1.00  0.00    -0.297 A  
HETATM   11  N   UNL     1     -10.529  11.089  68.569  1.00  0.00    -0.180 NA 
HETATM   12  O   UNL     1      -7.571   7.959  70.319  1.00  0.00    -0.082 OA 
HETATM   13  C   UNL     1      -8.564   8.664  70.485  1.00  0.00    -0.156 C  
HETATM   14  C   UNL     1     -10.203  10.210  69.557  1.00  0.00    -0.236 A  
HETATM   15  N   UNL     1      -8.864   9.731  69.643  1.00  0.00    -0.195 N  
BRANCH  10  16
HETATM   16  N   UNL     1     -12.154  12.455  67.532  1.00  0.00    -0.472 NA 
HETATM   17  H   UNL     1     -12.791  12.150  66.796  1.00  0.00     0.000 HD 
BRANCH  16  18
HETATM   18  C   UNL     1     -11.731  13.787  67.475  1.00  0.00    -0.375 A  
HETATM   19  C   UNL     1     -10.581  15.454  66.334  1.00  0.00    -0.307 A  
HETATM   20  C   UNL     1     -11.858  14.662  68.547  1.00  0.00    -0.346 A  
HETATM   21  C   UNL     1     -11.232  15.905  68.527  1.00  0.00    -0.362 A  
HETATM   22  N   UNL     1     -11.144  14.206  66.338  1.00  0.00    -0.315 NA 
HETATM   23  C   UNL     1     -10.524  16.339  67.414  1.00  0.00    -0.304 A  
BRANCH  23  24
HETATM   24  N   UNL     1      -9.855  17.541  67.434  1.00  0.00    -0.288 NA 
HETATM   25  C   UNL     1      -9.704  18.356  66.210  1.00  0.00    -0.294 C  
HETATM   26  C   UNL     1     -10.413  19.719  66.378  1.00  0.00    -0.507 C  
HETATM   27  N   UNL     1      -9.965  20.464  67.568  1.00  0.00    -0.420 NA 
HETATM   28  C   UNL     1     -10.141  19.620  68.767  1.00  0.00    -0.437 C  
HETATM   29  H   UNL     1     -10.433  21.366  67.658  1.00  0.00     0.000 HD 
HETATM   30  C   UNL     1      -9.454  18.239  68.663  1.00  0.00    -0.327 C  
ENDBRANCH  23  24
ENDBRANCH  16  18
ENDBRANCH  10  16
BRANCH  15  31
HETATM   31  C   UNL     1      -7.921  10.132  68.585  1.00  0.00    -0.103 C  
HETATM   32  C   UNL     1      -8.378   9.900  67.132  1.00  0.00    -0.121 C  
HETATM   33  C   UNL     1      -7.542  11.618  68.649  1.00  0.00    -0.133 C  
HETATM   34  C   UNL     1      -7.501  10.849  66.330  1.00  0.00    -0.145 C  
HETATM   35  C   UNL     1      -7.373  12.087  67.206  1.00  0.00    -0.151 C  
ENDBRANCH  15  31
ENDBRANCH   2   4
TORSDOF 5
ENDMDL
MODEL       35
REMARK 921   NORMALIZED FREE ENERGY PREDICTED BY IDOCK:   -6.67 KCAL/MOL
REMARK 922        TOTAL FREE ENERGY PREDICTED BY IDOCK:   -9.22 KCAL/MOL
REMARK 923 INTER-LIGAND FREE ENERGY PREDICTED BY IDOCK:   -9.04 KCAL/MOL
REMARK 924 INTRA-LIGAND FREE ENERGY PREDICTED BY IDOCK:   -0.18 KCAL/MOL
REMARK 927      BINDING AFFINITY PREDICTED BY RF-SCORE:    0.00 PKD
ROOT
HETATM    1  C   UNL     1      -9.607   2.618  71.101  1.00  0.00    -0.220 C  
HETATM    2  C   UNL     1      -9.714   3.636  72.206  1.00  0.00    -0.157 C  
HETATM    3  O   UNL     1      -9.825   3.239  73.369  1.00  0.00    -0.106 OA 
ENDROOT
BRANCH   2   4
HETATM    4  C   UNL     1      -9.611   5.109  71.885  1.00  0.00    -0.193 C  
HETATM    5  C   UNL     1      -8.423   5.680  71.594  1.00  0.00    -0.131 C  
HETATM    6  C   UNL     1      -7.058   5.023  71.651  1.00  0.00    -0.058 C  
HETATM    7  C   UNL     1      -8.427   7.092  71.157  1.00  0.00    -0.121 A  
HETATM    8  C   UNL     1      -7.279   7.801  70.908  1.00  0.00    -0.054 A  
HETATM    9  N   UNL     1      -7.265   9.061  70.469  1.00  0.00    -0.069 NA 
HETATM   10  C   UNL     1      -8.421   9.684  70.227  1.00  0.00    -0.188 A  
HETATM   11  N   UNL     1      -9.600   9.090  70.464  1.00  0.00    -0.201 NA 
HETATM   12  O   UNL     1     -11.828   5.577  72.539  1.00  0.00    -0.252 OA 
HETATM   13  C   UNL     1     -10.844   5.965  71.912  1.00  0.00    -0.254 C  
HETATM   14  C   UNL     1      -9.594   7.808  70.925  1.00  0.00    -0.167 A  
HETATM   15  N   UNL     1     -10.835   7.175  71.224  1.00  0.00    -0.231 N  
BRANCH  10  16
HETATM   16  N   UNL     1      -8.393  10.964  69.681  1.00  0.00    -0.347 NA 
HETATM   17  H   UNL     1      -7.865  11.665  70.200  1.00  0.00     0.000 HD 
BRANCH  16  18
HETATM   18  C   UNL     1      -9.007  11.397  68.501  1.00  0.00    -0.158 A  
HETATM   19  C   UNL     1      -8.986  11.501  66.178  1.00  0.00    -0.197 A  
HETATM   20  C   UNL     1     -10.077  12.284  68.492  1.00  0.00    -0.192 A  
HETATM   21  C   UNL     1     -10.515  12.856  67.301  1.00  0.00    -0.236 A  
HETATM   22  N   UNL     1      -8.498  10.954  67.336  1.00  0.00    -0.120 NA 
HETATM   23  C   UNL     1      -9.949  12.508  66.082  1.00  0.00    -0.255 A  
BRANCH  23  24
HETATM   24  N   UNL     1     -10.347  13.131  64.921  1.00  0.00    -0.336 NA 
HETATM   25  C   UNL     1     -10.779  12.352  63.742  1.00  0.00    -0.451 C  
HETATM   26  C   UNL     1     -12.256  12.656  63.406  1.00  0.00    -0.517 C  
HETATM   27  N   UNL     1     -12.526  14.093  63.218  1.00  0.00    -1.098 NA 
HETATM   28  C   UNL     1     -12.089  14.832  64.421  1.00  0.00    -0.440 C  
HETATM   29  H   UNL     1     -13.502  14.276  62.985  1.00  0.00     0.000 HD 
HETATM   30  C   UNL     1     -10.617  14.571  64.811  1.00  0.00    -0.377 C  
ENDBRANCH  23  24
ENDBRANCH  16  18
ENDBRANCH  10  16
BRANCH  15  31
HETATM   31  C   UNL     1     -12.062   7.982  71.119  1.00  0.00    -0.265 C  
HETATM   32  C   UNL     1     -13.396   7.212  71.143  1.00  0.00    -0.238 C  
HETATM   33  C   UNL     1     -12.189   9.030  72.233  1.00  0.00    -0.387 C  
HETATM   34  C   UNL     1     -14.408   8.273  71.548  1.00  0.00    -0.525 C  
HETATM   35  C   UNL     1     -13.675   9.136  72.565  1.00  0.00    -0.499 C  
ENDBRANCH  15  31
ENDBRANCH   2   4
TORSDOF 5
ENDMDL
MODEL       36
REMARK 921   NORMALIZED FREE ENERGY PREDICTED BY IDOCK:   -6.61 KCAL/MOL
REMARK 922        TOTAL FREE ENERGY PREDICTED BY IDOCK:   -9.13 KCAL/MOL
REMARK 923 INTER-LIGAND FREE ENERGY PREDICTED BY IDOCK:   -9.36 KCAL/MOL
REMARK 924 INTRA-LIGAND FREE ENERGY PREDICTED BY IDOCK:    0.23 KCAL/MOL
REMARK 927      BINDING AFFINITY PREDICTED BY RF-SCORE:    0.00 PKD
ROOT
HETATM    1  C   UNL     1     -11.677  15.366  72.876  1.00  0.00    -0.508 C  
HETATM    2  C   UNL     1     -12.754  14.733  72.034  1.00  0.00    -0.329 C  
HETATM    3  O   UNL     1     -13.922  15.094  72.197  1.00  0.00    -0.438 OA 
ENDROOT
BRANCH   2   4
HETATM    4  C   UNL     1     -12.383  13.734  70.963  1.00  0.00    -0.452 C  
HETATM    5  C   UNL     1     -11.862  14.132  69.784  1.00  0.00    -0.381 C  
HETATM    6  C   UNL     1     -11.680  15.560  69.304  1.00  0.00    -0.380 C  
HETATM    7  C   UNL     1     -11.398  13.087  68.848  1.00  0.00    -0.333 A  
HETATM    8  C   UNL     1     -10.922  13.366  67.591  1.00  0.00    -0.259 A  
HETATM    9  N   UNL     1     -10.457  12.440  66.751  1.00  0.00    -0.220 NA 
HETATM   10  C   UNL     1     -10.419  11.163  67.139  1.00  0.00    -0.231 A  
HETATM   11  N   UNL     1     -10.885  10.779  68.336  1.00  0.00    -0.213 NA 
HETATM   12  O   UNL     1     -13.425  11.923  72.058  1.00  0.00    -0.431 OA 
HETATM   13  C   UNL     1     -12.617  12.269  71.198  1.00  0.00    -0.253 C  
HETATM   14  C   UNL     1     -11.369  11.738  69.175  1.00  0.00    -0.279 A  
HETATM   15  N   UNL     1     -11.909  11.347  70.434  1.00  0.00    -0.348 N  
BRANCH  10  16
HETATM   16  N   UNL     1      -9.845  10.220  66.290  1.00  0.00    -0.208 NA 
HETATM   17  H   UNL     1      -9.424  10.580  65.434  1.00  0.00     0.000 HD 
BRANCH  16  18
HETATM   18  C   UNL     1      -9.783   8.835  66.479  1.00  0.00    -0.259 A  
HETATM   19  C   UNL     1      -8.818   6.798  65.906  1.00  0.00    -0.110 A  
HETATM   20  C   UNL     1     -10.717   8.136  67.234  1.00  0.00    -0.263 A  
HETATM   21  C   UNL     1     -10.745   6.745  67.217  1.00  0.00    -0.423 A  
HETATM   22  N   UNL     1      -8.789   8.167  65.861  1.00  0.00    -0.162 NA 
HETATM   23  C   UNL     1      -9.803   6.011  66.508  1.00  0.00    -0.145 A  
BRANCH  23  24
HETATM   24  N   UNL     1      -9.884   4.639  66.448  1.00  0.00    -0.202 NA 
HETATM   25  C   UNL     1     -10.007   3.934  65.155  1.00  0.00    -0.170 C  
HETATM   26  C   UNL     1      -8.782   3.021  64.921  1.00  0.00    -0.106 C  
HETATM   27  N   UNL     1      -8.547   2.070  66.022  1.00  0.00    -0.107 NA 
HETATM   28  C   UNL     1      -8.422   2.814  67.292  1.00  0.00    -0.096 C  
HETATM   29  H   UNL     1      -7.744   1.466  65.846  1.00  0.00     0.000 HD 
HETATM   30  C   UNL     1      -9.618   3.748  67.586  1.00  0.00    -0.147 C  
ENDBRANCH  23  24
ENDBRANCH  16  18
ENDBRANCH  10  16
BRANCH  15  31
HETATM   31  C   UNL     1     -12.014   9.906  70.719  1.00  0.00    -0.323 C  
HETATM   32  C   UNL     1     -10.954   9.313  71.667  1.00  0.00    -0.433 C  
HETATM   33  C   UNL     1     -13.363   9.512  71.337  1.00  0.00    -0.435 C  
HETATM   34  C   UNL     1     -11.605   8.032  72.168  1.00  0.00    -0.399 C  
HETATM   35  C   UNL     1     -13.077   8.386  72.328  1.00  0.00    -0.316 C  
ENDBRANCH  15  31
ENDBRANCH   2   4
TORSDOF 5
ENDMDL
MODEL       37
REMARK 921   NORMALIZED FREE ENERGY PREDICTED BY IDOCK:   -6.60 KCAL/MOL
REMARK 922        TOTAL FREE ENERGY PREDICTED BY IDOCK:   -9.13 KCAL/MOL
REMARK 923 INTER-LIGAND FREE ENERGY PREDICTED BY IDOCK:   -8.32 KCAL/MOL
REMARK 924 INTRA-LIGAND FREE ENERGY PREDICTED BY IDOCK:   -0.80 KCAL/MOL
REMARK 927      BINDING AFFINITY PREDICTED BY RF-SCORE:    0.00 PKD
ROOT
HETATM    1  C   UNL     1     -10.988  19.493  67.266  1.00  0.00    -0.460 C  
HETATM    2  C   UNL     1      -9.880  18.872  66.454  1.00  0.00    -0.375 C  
HETATM    3  O   UNL     1      -9.293  19.568  65.622  1.00  0.00    -0.312 OA 
ENDROOT
BRANCH   2   4
HETATM    4  C   UNL     1      -9.460  17.445  66.722  1.00  0.00    -0.282 C  
HETATM    5  C   UNL     1      -8.440  17.161  67.558  1.00  0.00    -0.206 C  
HETATM    6  C   UNL     1      -7.516  18.153  68.239  1.00  0.00    -0.280 C  
HETATM    7  C   UNL     1      -8.183  15.740  67.872  1.00  0.00    -0.151 A  
HETATM    8  C   UNL     1      -7.129  15.324  68.647  1.00  0.00    -0.116 A  
HETATM    9  N   UNL     1      -6.908  14.050  68.977  1.00  0.00    -0.108 NA 
HETATM   10  C   UNL     1      -7.760  13.109  68.565  1.00  0.00    -0.117 A  
HETATM   11  N   UNL     1      -8.807  13.405  67.780  1.00  0.00    -0.187 NA 
HETATM   12  O   UNL     1     -10.805  16.552  65.002  1.00  0.00    -0.622 OA 
HETATM   13  C   UNL     1     -10.170  16.318  66.029  1.00  0.00    -0.358 C  
HETATM   14  C   UNL     1      -9.007  14.709  67.442  1.00  0.00    -0.195 A  
HETATM   15  N   UNL     1     -10.088  15.040  66.574  1.00  0.00    -0.267 N  
BRANCH  10  16
HETATM   16  N   UNL     1      -7.571  11.798  68.994  1.00  0.00    -0.299 NA 
HETATM   17  H   UNL     1      -6.843  11.651  69.692  1.00  0.00     0.000 HD 
BRANCH  16  18
HETATM   18  C   UNL     1      -8.269  10.659  68.575  1.00  0.00    -0.128 A  
HETATM   19  C   UNL     1      -9.821   8.997  69.059  1.00  0.00    -0.175 A  
HETATM   20  C   UNL     1      -7.963   9.978  67.403  1.00  0.00    -0.106 A  
HETATM   21  C   UNL     1      -8.530   8.736  67.135  1.00  0.00    -0.110 A  
HETATM   22  N   UNL     1      -9.248  10.200  69.378  1.00  0.00    -0.209 NA 
HETATM   23  C   UNL     1      -9.468   8.171  67.989  1.00  0.00    -0.143 A  
BRANCH  23  24
HETATM   24  N   UNL     1      -9.970   6.913  67.745  1.00  0.00    -0.142 NA 
HETATM   25  C   UNL     1      -9.622   6.175  66.513  1.00  0.00    -0.151 C  
HETATM   26  C   UNL     1      -8.861   4.875  66.860  1.00  0.00    -0.106 C  
HETATM   27  N   UNL     1      -9.587   4.011  67.807  1.00  0.00    -0.172 NA 
HETATM   28  C   UNL     1      -9.907   4.783  69.025  1.00  0.00    -0.168 C  
HETATM   29  H   UNL     1      -9.078   3.152  68.016  1.00  0.00     0.000 HD 
HETATM   30  C   UNL     1     -10.670   6.098  68.747  1.00  0.00    -0.308 C  
ENDBRANCH  23  24
ENDBRANCH  16  18
ENDBRANCH  10  16
BRANCH  15  31
HETATM   31  C   UNL     1     -10.872  13.933  65.999  1.00  0.00    -0.290 C  
HETATM   32  C   UNL     1     -12.397  14.138  65.922  1.00  0.00    -0.486 C  
HETATM   33  C   UNL     1     -10.447  13.576  64.568  1.00  0.00    -0.426 C  
HETATM   34  C   UNL     1     -12.833  13.140  64.860  1.00  0.00    -0.349 C  
HETATM   35  C   UNL     1     -11.716  13.166  63.826  1.00  0.00    -0.519 C  
ENDBRANCH  15  31
ENDBRANCH   2   4
TORSDOF 5
ENDMDL
MODEL       38
REMARK 921   NORMALIZED FREE ENERGY PREDICTED BY IDOCK:   -6.51 KCAL/MOL
REMARK 922        TOTAL FREE ENERGY PREDICTED BY IDOCK:   -9.00 KCAL/MOL
REMARK 923 INTER-LIGAND FREE ENERGY PREDICTED BY IDOCK:   -8.39 KCAL/MOL
REMARK 924 INTRA-LIGAND FREE ENERGY PREDICTED BY IDOCK:   -0.61 KCAL/MOL
REMARK 927      BINDING AFFINITY PREDICTED BY RF-SCORE:    0.00 PKD
ROOT
HETATM    1  C   UNL     1      -9.129   6.846  70.262  1.00  0.00    -0.153 C  
HETATM    2  C   UNL     1     -10.432   7.225  69.608  1.00  0.00    -0.231 C  
HETATM    3  O   UNL     1     -11.281   6.348  69.426  1.00  0.00    -0.359 OA 
ENDROOT
BRANCH   2   4
HETATM    4  C   UNL     1     -10.707   8.669  69.258  1.00  0.00    -0.151 C  
HETATM    5  C   UNL     1     -11.236   9.520  70.163  1.00  0.00    -0.275 C  
HETATM    6  C   UNL     1     -11.728   9.178  71.556  1.00  0.00    -0.433 C  
HETATM    7  C   UNL     1     -11.344  10.945  69.785  1.00  0.00    -0.374 A  
HETATM    8  C   UNL     1     -11.933  11.888  70.590  1.00  0.00    -0.191 A  
HETATM    9  N   UNL     1     -11.999  13.186  70.285  1.00  0.00    -0.325 NA 
HETATM   10  C   UNL     1     -11.447  13.622  69.151  1.00  0.00    -0.297 A  
HETATM   11  N   UNL     1     -10.871  12.779  68.281  1.00  0.00    -0.238 NA 
HETATM   12  O   UNL     1     -10.315   8.358  66.953  1.00  0.00    -0.292 OA 
HETATM   13  C   UNL     1     -10.412   9.168  67.873  1.00  0.00    -0.237 C  
HETATM   14  C   UNL     1     -10.826  11.456  68.603  1.00  0.00    -0.208 A  
HETATM   15  N   UNL     1     -10.257  10.537  67.674  1.00  0.00    -0.188 N  
BRANCH  10  16
HETATM   16  N   UNL     1     -11.440  14.990  68.890  1.00  0.00    -0.297 NA 
HETATM   17  H   UNL     1     -12.327  15.399  68.597  1.00  0.00     0.000 HD 
BRANCH  16  18
HETATM   18  C   UNL     1     -10.353  15.866  68.983  1.00  0.00    -0.231 A  
HETATM   19  C   UNL     1      -9.399  17.909  68.415  1.00  0.00    -0.288 A  
HETATM   20  C   UNL     1      -9.133  15.493  69.534  1.00  0.00    -0.260 A  
HETATM   21  C   UNL     1      -8.018  16.317  69.411  1.00  0.00    -0.065 A  
HETATM   22  N   UNL     1     -10.507  17.104  68.476  1.00  0.00    -0.359 NA 
HETATM   23  C   UNL     1      -8.102  17.561  68.800  1.00  0.00    -0.232 A  
BRANCH  23  24
HETATM   24  N   UNL     1      -6.978  18.335  68.627  1.00  0.00    -0.253 NA 
HETATM   25  C   UNL     1      -6.736  19.065  67.365  1.00  0.00    -0.202 C  
HETATM   26  C   UNL     1      -6.706  20.589  67.622  1.00  0.00    -0.306 C  
HETATM   27  N   UNL     1      -5.734  20.985  68.657  1.00  0.00    -0.343 NA 
HETATM   28  C   UNL     1      -6.016  20.241  69.901  1.00  0.00    -0.355 C  
HETATM   29  H   UNL     1      -5.718  21.994  68.805  1.00  0.00     0.000 HD 
HETATM   30  C   UNL     1      -6.060  18.707  69.713  1.00  0.00    -0.234 C  
ENDBRANCH  23  24
ENDBRANCH  16  18
ENDBRANCH  10  16
BRANCH  15  31
HETATM   31  C   UNL     1      -9.843  11.056  66.360  1.00  0.00    -0.212 C  
HETATM   32  C   UNL     1      -8.672  10.330  65.671  1.00  0.00    -0.176 C  
HETATM   33  C   UNL     1     -10.977  11.049  65.325  1.00  0.00    -0.097 C  
HETATM   34  C   UNL     1      -8.831  10.713  64.207  1.00  0.00    -0.175 C  
HETATM   35  C   UNL     1     -10.335  10.733  63.977  1.00  0.00    -0.357 C  
ENDBRANCH  15  31
ENDBRANCH   2   4
TORSDOF 5
ENDMDL
MODEL       39
REMARK 921   NORMALIZED FREE ENERGY PREDICTED BY IDOCK:   -6.41 KCAL/MOL
REMARK 922        TOTAL FREE ENERGY PREDICTED BY IDOCK:   -8.88 KCAL/MOL
REMARK 923 INTER-LIGAND FREE ENERGY PREDICTED BY IDOCK:   -8.26 KCAL/MOL
REMARK 924 INTRA-LIGAND FREE ENERGY PREDICTED BY IDOCK:   -0.61 KCAL/MOL
REMARK 927      BINDING AFFINITY PREDICTED BY RF-SCORE:    0.00 PKD
ROOT
HETATM    1  C   UNL     1      -7.580  17.863  68.699  1.00  0.00    -0.285 C  
HETATM    2  C   UNL     1      -9.066  17.885  68.448  1.00  0.00    -0.289 C  
HETATM    3  O   UNL     1      -9.597  18.951  68.127  1.00  0.00    -0.308 OA 
ENDROOT
BRANCH   2   4
HETATM    4  C   UNL     1      -9.860  16.601  68.520  1.00  0.00    -0.252 C  
HETATM    5  C   UNL     1      -9.804  15.687  67.529  1.00  0.00    -0.228 C  
HETATM    6  C   UNL     1      -9.081  15.824  66.203  1.00  0.00    -0.377 C  
HETATM    7  C   UNL     1     -10.500  14.401  67.740  1.00  0.00    -0.245 A  
HETATM    8  C   UNL     1     -10.577  13.426  66.777  1.00  0.00    -0.277 A  
HETATM    9  N   UNL     1     -11.162  12.241  66.965  1.00  0.00    -0.290 NA 
HETATM   10  C   UNL     1     -11.689  11.952  68.157  1.00  0.00    -0.320 A  
HETATM   11  N   UNL     1     -11.691  12.845  69.158  1.00  0.00    -0.309 NA 
HETATM   12  O   UNL     1     -11.118  17.290  70.393  1.00  0.00     0.399 OA 
HETATM   13  C   UNL     1     -10.750  16.342  69.701  1.00  0.00    -0.338 C  
HETATM   14  C   UNL     1     -11.102  14.054  68.942  1.00  0.00    -0.268 A  
HETATM   15  N   UNL     1     -11.131  15.033  69.978  1.00  0.00    -0.263 N  
BRANCH  10  16
HETATM   16  N   UNL     1     -12.213  10.680  68.369  1.00  0.00    -0.762 NA 
HETATM   17  H   UNL     1     -13.104  10.476  67.918  1.00  0.00     0.000 HD 
BRANCH  16  18
HETATM   18  C   UNL     1     -11.653   9.649  69.132  1.00  0.00     0.291 A  
HETATM   19  C   UNL     1     -11.369   8.654  71.215  1.00  0.00    -0.281 A  
HETATM   20  C   UNL     1     -10.707   8.766  68.625  1.00  0.00    -0.109 A  
HETATM   21  C   UNL     1     -10.019   7.901  69.470  1.00  0.00    -0.189 A  
HETATM   22  N   UNL     1     -12.033   9.552  70.421  1.00  0.00    -0.137 NA 
HETATM   23  C   UNL     1     -10.303   7.839  70.828  1.00  0.00    -0.203 A  
BRANCH  23  24
HETATM   24  N   UNL     1      -9.569   7.027  71.661  1.00  0.00    -0.157 NA 
HETATM   25  C   UNL     1     -10.131   5.770  72.198  1.00  0.00    -0.183 C  
HETATM   26  C   UNL     1      -9.314   4.557  71.697  1.00  0.00    -0.140 C  
HETATM   27  N   UNL     1      -7.874   4.662  71.996  1.00  0.00    -0.096 NA 
HETATM   28  C   UNL     1      -7.351   5.925  71.436  1.00  0.00    -0.084 C  
HETATM   29  H   UNL     1      -7.352   3.849  71.670  1.00  0.00     0.000 HD 
HETATM   30  C   UNL     1      -8.126   7.180  71.898  1.00  0.00    -0.097 C  
ENDBRANCH  23  24
ENDBRANCH  16  18
ENDBRANCH  10  16
BRANCH  15  31
HETATM   31  C   UNL     1     -11.897  14.721  71.197  1.00  0.00    -0.334 C  
HETATM   32  C   UNL     1     -11.343  15.284  72.519  1.00  0.00    -0.294 C  
HETATM   33  C   UNL     1     -13.350  15.209  71.135  1.00  0.00    -0.535 C  
HETATM   34  C   UNL     1     -12.552  15.266  73.443  1.00  0.00    -0.648 C  
HETATM   35  C   UNL     1     -13.724  15.645  72.550  1.00  0.00    -0.651 C  
ENDBRANCH  15  31
ENDBRANCH   2   4
TORSDOF 5
ENDMDL
MODEL       40
REMARK 921   NORMALIZED FREE ENERGY PREDICTED BY IDOCK:   -6.37 KCAL/MOL
REMARK 922        TOTAL FREE ENERGY PREDICTED BY IDOCK:   -8.82 KCAL/MOL
REMARK 923 INTER-LIGAND FREE ENERGY PREDICTED BY IDOCK:   -8.21 KCAL/MOL
REMARK 924 INTRA-LIGAND FREE ENERGY PREDICTED BY IDOCK:   -0.61 KCAL/MOL
REMARK 927      BINDING AFFINITY PREDICTED BY RF-SCORE:    0.00 PKD
ROOT
HETATM    1  C   UNL     1     -12.186  14.516  64.671  1.00  0.00    -0.474 C  
HETATM    2  C   UNL     1     -11.056  14.327  65.648  1.00  0.00    -0.316 C  
HETATM    3  O   UNL     1     -10.000  14.937  65.459  1.00  0.00    -0.341 OA 
ENDROOT
BRANCH   2   4
HETATM    4  C   UNL     1     -11.255  13.462  66.872  1.00  0.00    -0.330 C  
HETATM    5  C   UNL     1     -11.047  12.130  66.828  1.00  0.00    -0.349 C  
HETATM    6  C   UNL     1     -10.717  11.298  65.603  1.00  0.00    -0.279 C  
HETATM    7  C   UNL     1     -11.129  11.378  68.098  1.00  0.00    -0.306 A  
HETATM    8  C   UNL     1     -11.012  10.013  68.168  1.00  0.00    -0.235 A  
HETATM    9  N   UNL     1     -11.039   9.323  69.310  1.00  0.00    -0.085 NA 
HETATM   10  C   UNL     1     -11.160   9.977  70.468  1.00  0.00    -0.331 A  
HETATM   11  N   UNL     1     -11.308  11.309  70.510  1.00  0.00    -0.009 NA 
HETATM   12  O   UNL     1     -12.277  15.180  68.124  1.00  0.00    -0.102 OA 
HETATM   13  C   UNL     1     -11.716  14.086  68.157  1.00  0.00    -0.352 C  
HETATM   14  C   UNL     1     -11.293  11.994  69.332  1.00  0.00    -0.251 A  
HETATM   15  N   UNL     1     -11.493  13.405  69.350  1.00  0.00    -0.280 N  
BRANCH  10  16
HETATM   16  N   UNL     1     -11.091   9.255  71.657  1.00  0.00    -0.369 NA 
HETATM   17  H   UNL     1     -11.383   9.747  72.502  1.00  0.00     0.000 HD 
BRANCH  16  18
HETATM   18  C   UNL     1     -10.668   7.932  71.823  1.00  0.00    -0.232 A  
HETATM   19  C   UNL     1      -8.937   6.381  71.749  1.00  0.00    -0.139 A  
HETATM   20  C   UNL     1     -11.553   6.877  72.012  1.00  0.00    -0.322 A  
HETATM   21  C   UNL     1     -11.110   5.559  71.954  1.00  0.00    -0.233 A  
HETATM   22  N   UNL     1      -9.345   7.689  71.753  1.00  0.00    -0.143 NA 
HETATM   23  C   UNL     1      -9.766   5.256  71.778  1.00  0.00    -0.158 A  
BRANCH  23  24
HETATM   24  N   UNL     1      -9.352   3.950  71.656  1.00  0.00    -0.127 NA 
HETATM   25  C   UNL     1      -7.982   3.617  71.214  1.00  0.00    -0.060 C  
HETATM   26  C   UNL     1      -7.225   2.858  72.327  1.00  0.00    -0.039 C  
HETATM   27  N   UNL     1      -7.936   1.656  72.799  1.00  0.00    -0.047 NA 
HETATM   28  C   UNL     1      -9.295   2.034  73.239  1.00  0.00    -0.072 C  
HETATM   29  H   UNL     1      -7.418   1.161  73.524  1.00  0.00     0.000 HD 
HETATM   30  C   UNL     1     -10.107   2.797  72.168  1.00  0.00    -0.140 C  
ENDBRANCH  23  24
ENDBRANCH  16  18
ENDBRANCH  10  16
BRANCH  15  31
HETATM   31  C   UNL     1     -11.814  14.037  70.641  1.00  0.00    -0.239 C  
HETATM   32  C   UNL     1     -11.199  15.426  70.899  1.00  0.00    -0.397 C  
HETATM   33  C   UNL     1     -13.322  14.224  70.860  1.00  0.00    -0.266 C  
HETATM   34  C   UNL     1     -12.091  16.011  71.983  1.00  0.00    -0.606 C  
HETATM   35  C   UNL     1     -13.491  15.532  71.629  1.00  0.00    -0.584 C  
ENDBRANCH  15  31
ENDBRANCH   2   4
TORSDOF 5
ENDMDL
MODEL       41
REMARK 921   NORMALIZED FREE ENERGY PREDICTED BY IDOCK:   -6.34 KCAL/MOL
REMARK 922        TOTAL FREE ENERGY PREDICTED BY IDOCK:   -8.78 KCAL/MOL
REMARK 923 INTER-LIGAND FREE ENERGY PREDICTED BY IDOCK:   -8.64 KCAL/MOL
REMARK 924 INTRA-LIGAND FREE ENERGY PREDICTED BY IDOCK:   -0.15 KCAL/MOL
REMARK 927      BINDING AFFINITY PREDICTED BY RF-SCORE:    0.00 PKD
ROOT
HETATM    1  C   UNL     1     -11.454   2.451  73.439  1.00  0.00    -0.227 C  
HETATM    2  C   UNL     1     -10.186   3.120  72.974  1.00  0.00    -0.153 C  
HETATM    3  O   UNL     1      -9.103   2.618  73.282  1.00  0.00    -0.083 OA 
ENDROOT
BRANCH   2   4
HETATM    4  C   UNL     1     -10.262   4.340  72.084  1.00  0.00    -0.234 C  
HETATM    5  C   UNL     1      -9.782   4.317  70.824  1.00  0.00    -0.274 C  
HETATM    6  C   UNL     1      -9.024   3.185  70.157  1.00  0.00    -0.172 C  
HETATM    7  C   UNL     1     -10.019   5.504  69.975  1.00  0.00    -0.285 A  
HETATM    8  C   UNL     1      -9.514   5.628  68.705  1.00  0.00    -0.126 A  
HETATM    9  N   UNL     1      -9.756   6.672  67.909  1.00  0.00    -0.122 NA 
HETATM   10  C   UNL     1     -10.551   7.654  68.339  1.00  0.00    -0.122 A  
HETATM   11  N   UNL     1     -11.074   7.644  69.574  1.00  0.00    -0.093 NA 
HETATM   12  O   UNL     1     -10.934   5.777  73.830  1.00  0.00    -0.212 OA 
HETATM   13  C   UNL     1     -10.860   5.611  72.614  1.00  0.00    -0.256 C  
HETATM   14  C   UNL     1     -10.804   6.576  70.377  1.00  0.00    -0.273 A  
HETATM   15  N   UNL     1     -11.314   6.566  71.708  1.00  0.00    -0.266 N  
BRANCH  10  16
HETATM   16  N   UNL     1     -10.871   8.690  67.466  1.00  0.00    -0.486 NA 
HETATM   17  H   UNL     1     -11.321   8.422  66.591  1.00  0.00     0.000 HD 
BRANCH  16  18
HETATM   18  C   UNL     1     -10.645  10.058  67.654  1.00  0.00    -0.270 A  
HETATM   19  C   UNL     1     -11.374  12.247  67.360  1.00  0.00    -0.325 A  
HETATM   20  C   UNL     1      -9.433  10.565  68.109  1.00  0.00    -0.157 A  
HETATM   21  C   UNL     1      -9.177  11.932  68.074  1.00  0.00    -0.190 A  
HETATM   22  N   UNL     1     -11.644  10.904  67.336  1.00  0.00    -0.486 NA 
HETATM   23  C   UNL     1     -10.143  12.837  67.653  1.00  0.00    -0.220 A  
BRANCH  23  24
HETATM   24  N   UNL     1      -9.852  14.179  67.561  1.00  0.00    -0.232 NA 
HETATM   25  C   UNL     1      -9.608  14.823  66.254  1.00  0.00    -0.312 C  
HETATM   26  C   UNL     1     -10.675  15.906  65.978  1.00  0.00    -0.284 C  
HETATM   27  N   UNL     1     -10.776  16.910  67.052  1.00  0.00    -0.218 NA 
HETATM   28  C   UNL     1     -11.029  16.227  68.337  1.00  0.00    -0.351 C  
HETATM   29  H   UNL     1     -11.476  17.624  66.849  1.00  0.00     0.000 HD 
HETATM   30  C   UNL     1      -9.994  15.129  68.673  1.00  0.00    -0.220 C  
ENDBRANCH  23  24
ENDBRANCH  16  18
ENDBRANCH  10  16
BRANCH  15  31
HETATM   31  C   UNL     1     -12.020   7.768  72.183  1.00  0.00    -0.317 C  
HETATM   32  C   UNL     1     -11.405   9.126  71.795  1.00  0.00    -0.451 C  
HETATM   33  C   UNL     1     -13.476   7.839  71.701  1.00  0.00    -0.401 C  
HETATM   34  C   UNL     1     -12.569  10.095  71.943  1.00  0.00    -0.437 C  
HETATM   35  C   UNL     1     -13.783   9.315  71.458  1.00  0.00    -0.382 C  
ENDBRANCH  15  31
ENDBRANCH   2   4
TORSDOF 5
ENDMDL
MODEL       42
REMARK 921   NORMALIZED FREE ENERGY PREDICTED BY IDOCK:   -6.31 KCAL/MOL
REMARK 922        TOTAL FREE ENERGY PREDICTED BY IDOCK:   -8.75 KCAL/MOL
REMARK 923 INTER-LIGAND FREE ENERGY PREDICTED BY IDOCK:   -8.12 KCAL/MOL
REMARK 924 INTRA-LIGAND FREE ENERGY PREDICTED BY IDOCK:   -0.63 KCAL/MOL
REMARK 927      BINDING AFFINITY PREDICTED BY RF-SCORE:    0.00 PKD
ROOT
HETATM    1  C   UNL     1     -11.652  16.114  71.548  1.00  0.00    -0.502 C  
HETATM    2  C   UNL     1     -12.421  15.301  70.539  1.00  0.00    -0.405 C  
HETATM    3  O   UNL     1     -13.132  15.889  69.721  1.00  0.00     0.112 OA 
ENDROOT
BRANCH   2   4
HETATM    4  C   UNL     1     -12.253  13.799  70.497  1.00  0.00    -0.440 C  
HETATM    5  C   UNL     1     -12.819  13.006  71.431  1.00  0.00    -0.385 C  
HETATM    6  C   UNL     1     -13.570  13.450  72.671  1.00  0.00    -0.543 C  
HETATM    7  C   UNL     1     -12.723  11.543  71.240  1.00  0.00    -0.469 A  
HETATM    8  C   UNL     1     -13.191  10.637  72.158  1.00  0.00    -0.273 A  
HETATM    9  N   UNL     1     -13.154   9.315  71.981  1.00  0.00    -0.400 NA 
HETATM   10  C   UNL     1     -12.660   8.819  70.845  1.00  0.00     0.030 A  
HETATM   11  N   UNL     1     -12.151   9.616  69.894  1.00  0.00     0.175 NA 
HETATM   12  O   UNL     1     -10.601  13.864  68.815  1.00  0.00    -0.248 OA 
HETATM   13  C   UNL     1     -11.423  13.173  69.414  1.00  0.00    -0.260 C  
HETATM   14  C   UNL     1     -12.185  10.963  70.099  1.00  0.00    -0.343 A  
HETATM   15  N   UNL     1     -11.610  11.826  69.121  1.00  0.00    -0.283 N  
BRANCH  10  16
HETATM   16  N   UNL     1     -12.712   7.443  70.633  1.00  0.00    -0.576 NA 
HETATM   17  H   UNL     1     -13.572   7.082  70.220  1.00  0.00     0.000 HD 
BRANCH  16  18
HETATM   18  C   UNL     1     -11.719   6.502  70.924  1.00  0.00    -0.356 A  
HETATM   19  C   UNL     1     -10.488   5.349  72.525  1.00  0.00    -0.214 A  
HETATM   20  C   UNL     1     -10.879   5.970  69.952  1.00  0.00    -0.434 A  
HETATM   21  C   UNL     1      -9.771   5.210  70.311  1.00  0.00    -0.272 A  
HETATM   22  N   UNL     1     -11.562   6.141  72.212  1.00  0.00    -0.309 NA 
HETATM   23  C   UNL     1      -9.508   4.898  71.639  1.00  0.00    -0.153 A  
BRANCH  23  24
HETATM   24  N   UNL     1      -8.372   4.201  71.983  1.00  0.00    -0.102 NA 
HETATM   25  C   UNL     1      -7.081   4.459  71.311  1.00  0.00    -0.043 C  
HETATM   26  C   UNL     1      -6.039   4.981  72.326  1.00  0.00    -0.026 C  
HETATM   27  N   UNL     1      -5.863   4.092  73.488  1.00  0.00    -0.007 NA 
HETATM   28  C   UNL     1      -7.173   3.868  74.135  1.00  0.00    -0.061 C  
HETATM   29  H   UNL     1      -5.164   4.445  74.142  1.00  0.00     0.000 HD 
HETATM   30  C   UNL     1      -8.261   3.344  73.171  1.00  0.00    -0.074 C  
ENDBRANCH  23  24
ENDBRANCH  16  18
ENDBRANCH  10  16
BRANCH  15  31
HETATM   31  C   UNL     1     -10.909  11.206  67.984  1.00  0.00    -0.225 C  
HETATM   32  C   UNL     1     -11.280  11.725  66.582  1.00  0.00    -0.383 C  
HETATM   33  C   UNL     1      -9.383  11.348  68.069  1.00  0.00    -0.171 C  
HETATM   34  C   UNL     1     -10.086  11.321  65.729  1.00  0.00    -0.294 C  
HETATM   35  C   UNL     1      -8.881  11.518  66.637  1.00  0.00    -0.187 C  
ENDBRANCH  15  31
ENDBRANCH   2   4
TORSDOF 5
ENDMDL
MODEL       43
REMARK 921   NORMALIZED FREE ENERGY PREDICTED BY IDOCK:   -6.27 KCAL/MOL
REMARK 922        TOTAL FREE ENERGY PREDICTED BY IDOCK:   -8.69 KCAL/MOL
REMARK 923 INTER-LIGAND FREE ENERGY PREDICTED BY IDOCK:   -8.37 KCAL/MOL
REMARK 924 INTRA-LIGAND FREE ENERGY PREDICTED BY IDOCK:   -0.32 KCAL/MOL
REMARK 927      BINDING AFFINITY PREDICTED BY RF-SCORE:    0.00 PKD
ROOT
HETATM    1  C   UNL     1     -11.633  16.018  64.181  1.00  0.00    -0.007 C  
HETATM    2  C   UNL     1     -11.915  14.540  64.250  1.00  0.00    -0.397 C  
HETATM    3  O   UNL     1     -12.622  14.030  63.378  1.00  0.00    -0.845 OA 
ENDROOT
BRANCH   2   4
HETATM    4  C   UNL     1     -11.274  13.701  65.332  1.00  0.00    -0.306 C  
HETATM    5  C   UNL     1     -10.483  12.651  65.026  1.00  0.00    -0.331 C  
HETATM    6  C   UNL     1     -10.208  12.088  63.645  1.00  0.00    -0.470 C  
HETATM    7  C   UNL     1      -9.785  11.970  66.137  1.00  0.00    -0.254 A  
HETATM    8  C   UNL     1      -9.016  10.847  65.959  1.00  0.00    -0.186 A  
HETATM    9  N   UNL     1      -8.343  10.246  66.942  1.00  0.00    -0.122 NA 
HETATM   10  C   UNL     1      -8.383  10.759  68.174  1.00  0.00    -0.120 A  
HETATM   11  N   UNL     1      -9.126  11.838  68.460  1.00  0.00    -0.176 NA 
HETATM   12  O   UNL     1     -12.529  14.684  67.070  1.00  0.00    -0.112 OA 
HETATM   13  C   UNL     1     -11.538  14.019  66.775  1.00  0.00    -0.386 C  
HETATM   14  C   UNL     1      -9.818  12.429  67.446  1.00  0.00    -0.199 A  
HETATM   15  N   UNL     1     -10.648  13.550  67.737  1.00  0.00    -0.243 N  
BRANCH  10  16
HETATM   16  N   UNL     1      -7.602  10.178  69.169  1.00  0.00    -0.093 NA 
HETATM   17  H   UNL     1      -6.593  10.207  69.027  1.00  0.00     0.000 HD 
BRANCH  16  18
HETATM   18  C   UNL     1      -8.047   9.558  70.343  1.00  0.00    -0.183 A  
HETATM   19  C   UNL     1      -7.526   8.427  72.306  1.00  0.00    -0.102 A  
HETATM   20  C   UNL     1      -9.388   9.289  70.589  1.00  0.00    -0.329 A  
HETATM   21  C   UNL     1      -9.765   8.482  71.658  1.00  0.00    -0.322 A  
HETATM   22  N   UNL     1      -7.114   9.179  71.238  1.00  0.00    -0.239 NA 
HETATM   23  C   UNL     1      -8.827   7.979  72.550  1.00  0.00    -0.177 A  
BRANCH  23  24
HETATM   24  N   UNL     1      -9.208   7.129  73.562  1.00  0.00    -0.163 NA 
HETATM   25  C   UNL     1     -10.630   6.802  73.795  1.00  0.00    -0.295 C  
HETATM   26  C   UNL     1     -10.877   5.291  73.586  1.00  0.00    -0.294 C  
HETATM   27  N   UNL     1      -9.998   4.439  74.406  1.00  0.00    -0.162 NA 
HETATM   28  C   UNL     1      -8.588   4.791  74.137  1.00  0.00    -0.108 C  
HETATM   29  H   UNL     1     -10.182   3.445  74.266  1.00  0.00     0.000 HD 
HETATM   30  C   UNL     1      -8.274   6.292  74.329  1.00  0.00    -0.116 C  
ENDBRANCH  23  24
ENDBRANCH  16  18
ENDBRANCH  10  16
BRANCH  15  31
HETATM   31  C   UNL     1     -10.799  13.946  69.148  1.00  0.00    -0.189 C  
HETATM   32  C   UNL     1     -10.762  15.457  69.446  1.00  0.00    -0.258 C  
HETATM   33  C   UNL     1     -12.110  13.450  69.774  1.00  0.00    -0.374 C  
HETATM   34  C   UNL     1     -11.447  15.566  70.800  1.00  0.00    -0.396 C  
HETATM   35  C   UNL     1     -12.563  14.532  70.751  1.00  0.00    -0.418 C  
ENDBRANCH  15  31
ENDBRANCH   2   4
TORSDOF 5
ENDMDL
MODEL       44
REMARK 921   NORMALIZED FREE ENERGY PREDICTED BY IDOCK:   -6.16 KCAL/MOL
REMARK 922        TOTAL FREE ENERGY PREDICTED BY IDOCK:   -8.54 KCAL/MOL
REMARK 923 INTER-LIGAND FREE ENERGY PREDICTED BY IDOCK:   -8.73 KCAL/MOL
REMARK 924 INTRA-LIGAND FREE ENERGY PREDICTED BY IDOCK:    0.19 KCAL/MOL
REMARK 927      BINDING AFFINITY PREDICTED BY RF-SCORE:    0.00 PKD
ROOT
HETATM    1  C   UNL     1      -9.532   4.663  73.661  1.00  0.00    -0.135 C  
HETATM    2  C   UNL     1     -10.712   5.082  72.823  1.00  0.00    -0.236 C  
HETATM    3  O   UNL     1     -11.826   4.633  73.102  1.00  0.00    -0.227 OA 
ENDROOT
BRANCH   2   4
HETATM    4  C   UNL     1     -10.527   6.093  71.715  1.00  0.00    -0.259 C  
HETATM    5  C   UNL     1     -10.203   5.707  70.463  1.00  0.00    -0.297 C  
HETATM    6  C   UNL     1      -9.869   4.302  70.000  1.00  0.00    -0.275 C  
HETATM    7  C   UNL     1     -10.177   6.743  69.409  1.00  0.00    -0.204 A  
HETATM    8  C   UNL     1      -9.789   6.486  68.118  1.00  0.00    -0.131 A  
HETATM    9  N   UNL     1      -9.802   7.397  67.143  1.00  0.00    -0.177 NA 
HETATM   10  C   UNL     1     -10.238   8.632  67.406  1.00  0.00    -0.262 A  
HETATM   11  N   UNL     1     -10.614   8.995  68.641  1.00  0.00    -0.195 NA 
HETATM   12  O   UNL     1     -10.582   7.948  73.171  1.00  0.00    -0.359 OA 
HETATM   13  C   UNL     1     -10.682   7.557  72.009  1.00  0.00    -0.225 C  
HETATM   14  C   UNL     1     -10.580   8.054  69.626  1.00  0.00    -0.223 A  
HETATM   15  N   UNL     1     -10.934   8.429  70.954  1.00  0.00    -0.237 N  
BRANCH  10  16
HETATM   16  N   UNL     1     -10.336   9.546  66.361  1.00  0.00    -0.214 NA 
HETATM   17  H   UNL     1     -10.592   9.166  65.450  1.00  0.00     0.000 HD 
BRANCH  16  18
HETATM   18  C   UNL     1     -10.122  10.928  66.420  1.00  0.00    -0.231 A  
HETATM   19  C   UNL     1      -8.682  12.692  66.891  1.00  0.00    -0.175 A  
HETATM   20  C   UNL     1     -11.147  11.854  66.274  1.00  0.00    -0.364 A  
HETATM   21  C   UNL     1     -10.933  13.200  66.555  1.00  0.00    -0.303 A  
HETATM   22  N   UNL     1      -8.868  11.353  66.668  1.00  0.00    -0.178 NA 
HETATM   23  C   UNL     1      -9.678  13.672  66.919  1.00  0.00    -0.262 A  
BRANCH  23  24
HETATM   24  N   UNL     1      -9.497  14.993  67.257  1.00  0.00    -0.204 NA 
HETATM   25  C   UNL     1      -8.144  15.571  67.397  1.00  0.00    -0.177 C  
HETATM   26  C   UNL     1      -7.927  16.692  66.356  1.00  0.00    -0.325 C  
HETATM   27  N   UNL     1      -8.959  17.743  66.409  1.00  0.00    -0.379 NA 
HETATM   28  C   UNL     1     -10.293  17.125  66.257  1.00  0.00    -0.313 C  
HETATM   29  H   UNL     1      -8.794  18.481  65.725  1.00  0.00     0.000 HD 
HETATM   30  C   UNL     1     -10.574  15.993  67.272  1.00  0.00    -0.313 C  
ENDBRANCH  23  24
ENDBRANCH  16  18
ENDBRANCH  10  16
BRANCH  15  31
HETATM   31  C   UNL     1     -11.218   9.851  71.214  1.00  0.00    -0.286 C  
HETATM   32  C   UNL     1     -11.330  10.767  69.981  1.00  0.00    -0.397 C  
HETATM   33  C   UNL     1     -12.523  10.071  71.991  1.00  0.00    -0.311 C  
HETATM   34  C   UNL     1     -12.115  11.962  70.498  1.00  0.00    -0.422 C  
HETATM   35  C   UNL     1     -13.134  11.365  71.460  1.00  0.00    -0.438 C  
ENDBRANCH  15  31
ENDBRANCH   2   4
TORSDOF 5
ENDMDL
MODEL       45
REMARK 921   NORMALIZED FREE ENERGY PREDICTED BY IDOCK:   -6.14 KCAL/MOL
REMARK 922        TOTAL FREE ENERGY PREDICTED BY IDOCK:   -8.53 KCAL/MOL
REMARK 923 INTER-LIGAND FREE ENERGY PREDICTED BY IDOCK:   -7.85 KCAL/MOL
REMARK 924 INTRA-LIGAND FREE ENERGY PREDICTED BY IDOCK:   -0.68 KCAL/MOL
REMARK 927      BINDING AFFINITY PREDICTED BY RF-SCORE:    0.00 PKD
ROOT
HETATM    1  C   UNL     1     -11.316  16.267  70.936  1.00  0.00    -0.319 C  
HETATM    2  C   UNL     1     -12.389  15.395  70.337  1.00  0.00    -0.402 C  
HETATM    3  O   UNL     1     -13.326  15.933  69.742  1.00  0.00     0.370 OA 
ENDROOT
BRANCH   2   4
HETATM    4  C   UNL     1     -12.265  13.891  70.410  1.00  0.00    -0.438 C  
HETATM    5  C   UNL     1     -12.884  13.183  71.378  1.00  0.00    -0.401 C  
HETATM    6  C   UNL     1     -13.662  13.737  72.556  1.00  0.00    -0.667 C  
HETATM    7  C   UNL     1     -12.825  11.709  71.297  1.00  0.00    -0.430 A  
HETATM    8  C   UNL     1     -13.350  10.885  72.261  1.00  0.00    -0.008 A  
HETATM    9  N   UNL     1     -13.346   9.553  72.182  1.00  0.00    -0.443 NA 
HETATM   10  C   UNL     1     -12.830   8.962  71.102  1.00  0.00    -0.143 A  
HETATM   11  N   UNL     1     -12.266   9.674  70.115  1.00  0.00     0.079 NA 
HETATM   12  O   UNL     1     -10.557  13.788  68.786  1.00  0.00    -0.248 OA 
HETATM   13  C   UNL     1     -11.418  13.165  69.405  1.00  0.00    -0.260 C  
HETATM   14  C   UNL     1     -12.268  11.032  70.220  1.00  0.00    -0.363 A  
HETATM   15  N   UNL     1     -11.636  11.805  69.203  1.00  0.00    -0.283 N  
BRANCH  10  16
HETATM   16  N   UNL     1     -12.916   7.577  70.989  1.00  0.00    -0.574 NA 
HETATM   17  H   UNL     1     -13.845   7.171  71.100  1.00  0.00     0.000 HD 
BRANCH  16  18
HETATM   18  C   UNL     1     -11.871   6.679  70.740  1.00  0.00    -0.383 A  
HETATM   19  C   UNL     1     -10.168   5.339  71.582  1.00  0.00    -0.212 A  
HETATM   20  C   UNL     1     -11.394   6.417  69.462  1.00  0.00    -0.460 A  
HETATM   21  C   UNL     1     -10.220   5.692  69.278  1.00  0.00    -0.309 A  
HETATM   22  N   UNL     1     -11.294   6.087  71.804  1.00  0.00    -0.280 NA 
HETATM   23  C   UNL     1      -9.530   5.149  70.354  1.00  0.00    -0.169 A  
BRANCH  23  24
HETATM   24  N   UNL     1      -8.337   4.493  70.161  1.00  0.00    -0.069 NA 
HETATM   25  C   UNL     1      -7.702   3.719  71.249  1.00  0.00    -0.059 C  
HETATM   26  C   UNL     1      -7.607   2.225  70.864  1.00  0.00    -0.032 C  
HETATM   27  N   UNL     1      -6.918   1.997  69.581  1.00  0.00    -0.033 NA 
HETATM   28  C   UNL     1      -7.588   2.780  68.522  1.00  0.00    -0.048 C  
HETATM   29  H   UNL     1      -6.853   1.006  69.349  1.00  0.00     0.000 HD 
HETATM   30  C   UNL     1      -7.714   4.286  68.846  1.00  0.00    -0.058 C  
ENDBRANCH  23  24
ENDBRANCH  16  18
ENDBRANCH  10  16
BRANCH  15  31
HETATM   31  C   UNL     1     -10.916  11.085  68.139  1.00  0.00    -0.247 C  
HETATM   32  C   UNL     1     -11.172  11.556  66.695  1.00  0.00    -0.336 C  
HETATM   33  C   UNL     1      -9.391  11.131  68.307  1.00  0.00    -0.176 C  
HETATM   34  C   UNL     1      -9.964  11.033  65.934  1.00  0.00    -0.289 C  
HETATM   35  C   UNL     1      -8.800  11.196  66.901  1.00  0.00    -0.157 C  
ENDBRANCH  15  31
ENDBRANCH   2   4
TORSDOF 5
ENDMDL
MODEL       46
REMARK 921   NORMALIZED FREE ENERGY PREDICTED BY IDOCK:   -6.14 KCAL/MOL
REMARK 922        TOTAL FREE ENERGY PREDICTED BY IDOCK:   -8.52 KCAL/MOL
REMARK 923 INTER-LIGAND FREE ENERGY PREDICTED BY IDOCK:   -7.76 KCAL/MOL
REMARK 924 INTRA-LIGAND FREE ENERGY PREDICTED BY IDOCK:   -0.76 KCAL/MOL
REMARK 927      BINDING AFFINITY PREDICTED BY RF-SCORE:    0.00 PKD
ROOT
HETATM    1  C   UNL     1      -5.520  19.056  66.513  1.00  0.00    -0.166 C  
HETATM    2  C   UNL     1      -6.142  18.998  67.884  1.00  0.00    -0.206 C  
HETATM    3  O   UNL     1      -5.845  19.867  68.707  1.00  0.00    -0.223 OA 
ENDROOT
BRANCH   2   4
HETATM    4  C   UNL     1      -7.166  17.933  68.202  1.00  0.00    -0.231 C  
HETATM    5  C   UNL     1      -8.489  18.181  68.102  1.00  0.00    -0.282 C  
HETATM    6  C   UNL     1      -9.145  19.512  67.791  1.00  0.00    -0.384 C  
HETATM    7  C   UNL     1      -9.418  17.048  68.296  1.00  0.00    -0.265 A  
HETATM    8  C   UNL     1     -10.783  17.192  68.293  1.00  0.00    -0.363 A  
HETATM    9  N   UNL     1     -11.636  16.174  68.421  1.00  0.00    -0.310 NA 
HETATM   10  C   UNL     1     -11.162  14.931  68.535  1.00  0.00    -0.279 A  
HETATM   11  N   UNL     1      -9.845  14.684  68.577  1.00  0.00    -0.223 NA 
HETATM   12  O   UNL     1      -5.582  16.453  69.132  1.00  0.00    -0.119 OA 
HETATM   13  C   UNL     1      -6.712  16.578  68.663  1.00  0.00    -0.152 C  
HETATM   14  C   UNL     1      -8.989  15.737  68.459  1.00  0.00    -0.194 A  
HETATM   15  N   UNL     1      -7.586  15.502  68.544  1.00  0.00    -0.122 N  
BRANCH  10  16
HETATM   16  N   UNL     1     -12.063  13.870  68.574  1.00  0.00    -0.470 NA 
HETATM   17  H   UNL     1     -13.049  14.110  68.473  1.00  0.00     0.000 HD 
BRANCH  16  18
HETATM   18  C   UNL     1     -11.767  12.512  68.735  1.00  0.00    -0.327 A  
HETATM   19  C   UNL     1     -11.441  10.711  70.170  1.00  0.00    -0.329 A  
HETATM   20  C   UNL     1     -11.324  11.710  67.690  1.00  0.00    -0.362 A  
HETATM   21  C   UNL     1     -10.835  10.430  67.936  1.00  0.00    -0.331 A  
HETATM   22  N   UNL     1     -11.886  11.992  69.972  1.00  0.00    -0.331 NA 
HETATM   23  C   UNL     1     -10.840   9.888  69.214  1.00  0.00    -0.227 A  
BRANCH  23  24
HETATM   24  N   UNL     1     -10.292   8.648  69.452  1.00  0.00    -0.215 NA 
HETATM   25  C   UNL     1      -9.944   8.213  70.820  1.00  0.00    -0.188 C  
HETATM   26  C   UNL     1     -10.781   6.977  71.222  1.00  0.00    -0.221 C  
HETATM   27  N   UNL     1     -10.667   5.861  70.267  1.00  0.00    -0.289 NA 
HETATM   28  C   UNL     1     -11.031   6.336  68.916  1.00  0.00    -0.368 C  
HETATM   29  H   UNL     1     -11.215   5.050  70.553  1.00  0.00     0.000 HD 
HETATM   30  C   UNL     1     -10.228   7.572  68.453  1.00  0.00    -0.185 C  
ENDBRANCH  23  24
ENDBRANCH  16  18
ENDBRANCH  10  16
BRANCH  15  31
HETATM   31  C   UNL     1      -7.137  14.137  68.865  1.00  0.00    -0.110 C  
HETATM   32  C   UNL     1      -6.065  13.530  67.939  1.00  0.00    -0.152 C  
HETATM   33  C   UNL     1      -6.555  14.012  70.280  1.00  0.00     0.043 C  
HETATM   34  C   UNL     1      -5.453  12.424  68.786  1.00  0.00    -0.054 C  
HETATM   35  C   UNL     1      -5.421  12.993  70.197  1.00  0.00    -0.122 C  
ENDBRANCH  15  31
ENDBRANCH   2   4
TORSDOF 5
ENDMDL
MODEL       47
REMARK 921   NORMALIZED FREE ENERGY PREDICTED BY IDOCK:   -6.11 KCAL/MOL
REMARK 922        TOTAL FREE ENERGY PREDICTED BY IDOCK:   -8.49 KCAL/MOL
REMARK 923 INTER-LIGAND FREE ENERGY PREDICTED BY IDOCK:   -7.63 KCAL/MOL
REMARK 924 INTRA-LIGAND FREE ENERGY PREDICTED BY IDOCK:   -0.86 KCAL/MOL
REMARK 927      BINDING AFFINITY PREDICTED BY RF-SCORE:    0.00 PKD
ROOT
HETATM    1  C   UNL     1      -6.754   6.316  68.080  1.00  0.00    -0.064 C  
HETATM    2  C   UNL     1      -7.183   7.230  69.197  1.00  0.00    -0.085 C  
HETATM    3  O   UNL     1      -6.839   6.959  70.350  1.00  0.00    -0.055 OA 
ENDROOT
BRANCH   2   4
HETATM    4  C   UNL     1      -7.956   8.491  68.884  1.00  0.00    -0.118 C  
HETATM    5  C   UNL     1      -9.297   8.469  68.730  1.00  0.00    -0.143 C  
HETATM    6  C   UNL     1     -10.194   7.247  68.724  1.00  0.00    -0.188 C  
HETATM    7  C   UNL     1      -9.991   9.764  68.563  1.00  0.00    -0.177 A  
HETATM    8  C   UNL     1     -11.338   9.864  68.323  1.00  0.00     0.024 A  
HETATM    9  N   UNL     1     -11.989  11.024  68.215  1.00  0.00    -0.597 NA 
HETATM   10  C   UNL     1     -11.318  12.168  68.369  1.00  0.00    -0.286 A  
HETATM   11  N   UNL     1      -9.994  12.182  68.580  1.00  0.00    -0.202 NA 
HETATM   12  O   UNL     1      -6.021   9.771  68.460  1.00  0.00    -0.042 OA 
HETATM   13  C   UNL     1      -7.224   9.790  68.715  1.00  0.00    -0.072 C  
HETATM   14  C   UNL     1      -9.345  10.988  68.673  1.00  0.00    -0.194 A  
HETATM   15  N   UNL     1      -7.932  10.981  68.853  1.00  0.00    -0.143 N  
BRANCH  10  16
HETATM   16  N   UNL     1     -12.024  13.368  68.348  1.00  0.00    -0.353 NA 
HETATM   17  H   UNL     1     -12.964  13.347  68.743  1.00  0.00     0.000 HD 
BRANCH  16  18
HETATM   18  C   UNL     1     -11.589  14.599  67.844  1.00  0.00    -0.348 A  
HETATM   19  C   UNL     1     -10.652  15.803  66.089  1.00  0.00    -0.313 A  
HETATM   20  C   UNL     1     -11.476  15.737  68.634  1.00  0.00    -0.389 A  
HETATM   21  C   UNL     1     -10.838  16.875  68.151  1.00  0.00    -0.351 A  
HETATM   22  N   UNL     1     -11.233  14.649  66.546  1.00  0.00    -0.341 NA 
HETATM   23  C   UNL     1     -10.358  16.937  66.849  1.00  0.00    -0.304 A  
BRANCH  23  24
HETATM   24  N   UNL     1      -9.670  18.044  66.408  1.00  0.00    -0.368 NA 
HETATM   25  C   UNL     1     -10.366  19.317  66.125  1.00  0.00    -0.494 C  
HETATM   26  C   UNL     1      -9.856  20.431  67.067  1.00  0.00    -0.453 C  
HETATM   27  N   UNL     1      -8.393  20.606  67.022  1.00  0.00    -0.547 NA 
HETATM   28  C   UNL     1      -7.738  19.316  67.318  1.00  0.00    -0.245 C  
HETATM   29  H   UNL     1      -8.074  21.353  67.640  1.00  0.00     0.000 HD 
HETATM   30  C   UNL     1      -8.205  18.157  66.409  1.00  0.00    -0.253 C  
ENDBRANCH  23  24
ENDBRANCH  16  18
ENDBRANCH  10  16
BRANCH  15  31
HETATM   31  C   UNL     1      -7.228  12.274  68.821  1.00  0.00    -0.098 C  
HETATM   32  C   UNL     1      -6.135  12.489  69.885  1.00  0.00    -0.130 C  
HETATM   33  C   UNL     1      -6.535  12.548  67.479  1.00  0.00    -0.153 C  
HETATM   34  C   UNL     1      -5.280  13.599  69.292  1.00  0.00    -0.077 C  
HETATM   35  C   UNL     1      -5.249  13.306  67.799  1.00  0.00    -0.075 C  
ENDBRANCH  15  31
ENDBRANCH   2   4
TORSDOF 5
ENDMDL
MODEL       48
REMARK 921   NORMALIZED FREE ENERGY PREDICTED BY IDOCK:   -6.11 KCAL/MOL
REMARK 922        TOTAL FREE ENERGY PREDICTED BY IDOCK:   -8.49 KCAL/MOL
REMARK 923 INTER-LIGAND FREE ENERGY PREDICTED BY IDOCK:   -7.51 KCAL/MOL
REMARK 924 INTRA-LIGAND FREE ENERGY PREDICTED BY IDOCK:   -0.97 KCAL/MOL
REMARK 927      BINDING AFFINITY PREDICTED BY RF-SCORE:    0.00 PKD
ROOT
HETATM    1  C   UNL     1     -10.655  14.584  64.831  1.00  0.00    -0.450 C  
HETATM    2  C   UNL     1     -11.371  13.304  64.487  1.00  0.00    -0.363 C  
HETATM    3  O   UNL     1     -12.323  13.348  63.704  1.00  0.00    -0.680 OA 
ENDROOT
BRANCH   2   4
HETATM    4  C   UNL     1     -10.871  11.990  65.042  1.00  0.00    -0.351 C  
HETATM    5  C   UNL     1     -10.095  11.169  64.305  1.00  0.00    -0.382 C  
HETATM    6  C   UNL     1      -9.710  11.343  62.848  1.00  0.00    -0.344 C  
HETATM    7  C   UNL     1      -9.535   9.972  64.967  1.00  0.00    -0.339 A  
HETATM    8  C   UNL     1      -8.796   9.026  64.302  1.00  0.00    -0.049 A  
HETATM    9  N   UNL     1      -8.246   7.964  64.893  1.00  0.00    -0.145 NA 
HETATM   10  C   UNL     1      -8.385   7.801  66.211  1.00  0.00    -0.131 A  
HETATM   11  N   UNL     1      -9.111   8.653  66.950  1.00  0.00    -0.139 NA 
HETATM   12  O   UNL     1     -12.249  12.082  66.954  1.00  0.00    -0.529 OA 
HETATM   13  C   UNL     1     -11.260  11.572  66.431  1.00  0.00    -0.243 C  
HETATM   14  C   UNL     1      -9.677   9.724  66.326  1.00  0.00    -0.234 A  
HETATM   15  N   UNL     1     -10.487  10.617  67.085  1.00  0.00    -0.231 N  
BRANCH  10  16
HETATM   16  N   UNL     1      -7.728   6.741  66.830  1.00  0.00    -0.101 NA 
HETATM   17  H   UNL     1      -7.024   6.258  66.273  1.00  0.00     0.000 HD 
BRANCH  16  18
HETATM   18  C   UNL     1      -7.925   6.264  68.131  1.00  0.00    -0.108 A  
HETATM   19  C   UNL     1      -9.241   5.061  69.622  1.00  0.00    -0.118 A  
HETATM   20  C   UNL     1      -7.150   6.676  69.208  1.00  0.00    -0.084 A  
HETATM   21  C   UNL     1      -7.514   6.350  70.511  1.00  0.00    -0.091 A  
HETATM   22  N   UNL     1      -8.940   5.401  68.330  1.00  0.00    -0.107 NA 
HETATM   23  C   UNL     1      -8.616   5.547  70.773  1.00  0.00    -0.126 A  
BRANCH  23  24
HETATM   24  N   UNL     1      -9.002   5.289  72.068  1.00  0.00    -0.134 NA 
HETATM   25  C   UNL     1      -8.679   6.223  73.166  1.00  0.00    -0.123 C  
HETATM   26  C   UNL     1      -9.974   6.785  73.795  1.00  0.00    -0.289 C  
HETATM   27  N   UNL     1     -10.903   5.735  74.250  1.00  0.00    -0.382 NA 
HETATM   28  C   UNL     1     -11.206   4.830  73.122  1.00  0.00    -0.308 C  
HETATM   29  H   UNL     1     -11.747   6.122  74.673  1.00  0.00     0.000 HD 
HETATM   30  C   UNL     1      -9.951   4.232  72.449  1.00  0.00    -0.168 C  
ENDBRANCH  23  24
ENDBRANCH  16  18
ENDBRANCH  10  16
BRANCH  15  31
HETATM   31  C   UNL     1     -10.759  10.273  68.491  1.00  0.00    -0.227 C  
HETATM   32  C   UNL     1     -11.161   8.814  68.777  1.00  0.00     0.215 C  
HETATM   33  C   UNL     1      -9.567  10.546  69.417  1.00  0.00    -0.170 C  
HETATM   34  C   UNL     1     -10.855   8.648  70.258  1.00  0.00    -0.250 C  
HETATM   35  C   UNL     1      -9.581   9.450  70.480  1.00  0.00    -0.330 C  
ENDBRANCH  15  31
ENDBRANCH   2   4
TORSDOF 5
ENDMDL
MODEL       49
REMARK 921   NORMALIZED FREE ENERGY PREDICTED BY IDOCK:   -6.11 KCAL/MOL
REMARK 922        TOTAL FREE ENERGY PREDICTED BY IDOCK:   -8.48 KCAL/MOL
REMARK 923 INTER-LIGAND FREE ENERGY PREDICTED BY IDOCK:   -7.68 KCAL/MOL
REMARK 924 INTRA-LIGAND FREE ENERGY PREDICTED BY IDOCK:   -0.80 KCAL/MOL
REMARK 927      BINDING AFFINITY PREDICTED BY RF-SCORE:    0.00 PKD
ROOT
HETATM    1  C   UNL     1      -6.854  19.840  69.580  1.00  0.00    -0.340 C  
HETATM    2  C   UNL     1      -6.566  19.068  68.318  1.00  0.00    -0.243 C  
HETATM    3  O   UNL     1      -5.568  19.363  67.657  1.00  0.00    -0.180 OA 
ENDROOT
BRANCH   2   4
HETATM    4  C   UNL     1      -7.453  17.908  67.926  1.00  0.00    -0.216 C  
HETATM    5  C   UNL     1      -8.469  18.069  67.053  1.00  0.00    -0.247 C  
HETATM    6  C   UNL     1      -8.949  19.371  66.441  1.00  0.00    -0.395 C  
HETATM    7  C   UNL     1      -9.199  16.859  66.618  1.00  0.00    -0.278 A  
HETATM    8  C   UNL     1     -10.296  16.904  65.794  1.00  0.00    -0.283 A  
HETATM    9  N   UNL     1     -10.939  15.821  65.355  1.00  0.00    -0.334 NA 
HETATM   10  C   UNL     1     -10.497  14.610  65.702  1.00  0.00    -0.342 A  
HETATM   11  N   UNL     1      -9.449  14.455  66.526  1.00  0.00    -0.281 NA 
HETATM   12  O   UNL     1      -6.592  16.473  69.588  1.00  0.00    -0.218 OA 
HETATM   13  C   UNL     1      -7.221  16.555  68.534  1.00  0.00    -0.175 C  
HETATM   14  C   UNL     1      -8.814  15.574  66.974  1.00  0.00    -0.230 A  
HETATM   15  N   UNL     1      -7.727  15.434  67.885  1.00  0.00    -0.125 N  
BRANCH  10  16
HETATM   16  N   UNL     1     -11.119  13.487  65.162  1.00  0.00    -0.307 NA 
HETATM   17  H   UNL     1     -11.795  13.659  64.419  1.00  0.00     0.000 HD 
BRANCH  16  18
HETATM   18  C   UNL     1     -10.920  12.150  65.525  1.00  0.00    -0.301 A  
HETATM   19  C   UNL     1     -11.236  10.452  67.081  1.00  0.00    -0.007 A  
HETATM   20  C   UNL     1     -10.075  11.298  64.825  1.00  0.00    -0.338 A  
HETATM   21  C   UNL     1      -9.738  10.051  65.340  1.00  0.00    -0.368 A  
HETATM   22  N   UNL     1     -11.554  11.704  66.627  1.00  0.00    -0.506 NA 
HETATM   23  C   UNL     1     -10.285   9.589  66.530  1.00  0.00    -0.237 A  
BRANCH  23  24
HETATM   24  N   UNL     1      -9.891   8.382  67.060  1.00  0.00    -0.206 NA 
HETATM   25  C   UNL     1      -8.597   8.237  67.759  1.00  0.00    -0.131 C  
HETATM   26  C   UNL     1      -8.823   7.845  69.237  1.00  0.00    -0.142 C  
HETATM   27  N   UNL     1      -9.649   6.635  69.398  1.00  0.00    -0.145 NA 
HETATM   28  C   UNL     1     -10.934   6.825  68.694  1.00  0.00    -0.199 C  
HETATM   29  H   UNL     1      -9.778   6.383  70.378  1.00  0.00     0.000 HD 
HETATM   30  C   UNL     1     -10.778   7.219  67.207  1.00  0.00    -0.321 C  
ENDBRANCH  23  24
ENDBRANCH  16  18
ENDBRANCH  10  16
BRANCH  15  31
HETATM   31  C   UNL     1      -7.414  14.082  68.379  1.00  0.00    -0.119 C  
HETATM   32  C   UNL     1      -8.603  13.115  68.538  1.00  0.00    -0.056 C  
HETATM   33  C   UNL     1      -6.411  13.334  67.489  1.00  0.00    -0.143 C  
HETATM   34  C   UNL     1      -7.945  11.743  68.530  1.00  0.00    -0.145 C  
HETATM   35  C   UNL     1      -6.817  11.863  67.515  1.00  0.00    -0.124 C  
ENDBRANCH  15  31
ENDBRANCH   2   4
TORSDOF 5
ENDMDL
MODEL       50
REMARK 921   NORMALIZED FREE ENERGY PREDICTED BY IDOCK:   -6.04 KCAL/MOL
REMARK 922        TOTAL FREE ENERGY PREDICTED BY IDOCK:   -8.40 KCAL/MOL
REMARK 923 INTER-LIGAND FREE ENERGY PREDICTED BY IDOCK:   -7.49 KCAL/MOL
REMARK 924 INTRA-LIGAND FREE ENERGY PREDICTED BY IDOCK:   -0.91 KCAL/MOL
REMARK 927      BINDING AFFINITY PREDICTED BY RF-SCORE:    0.00 PKD
ROOT
HETATM    1  C   UNL     1     -10.446  14.722  64.836  1.00  0.00    -0.398 C  
HETATM    2  C   UNL     1     -11.231  13.439  64.936  1.00  0.00    -0.331 C  
HETATM    3  O   UNL     1     -11.953  13.111  63.991  1.00  0.00    -0.405 OA 
ENDROOT
BRANCH   2   4
HETATM    4  C   UNL     1     -11.066  12.548  66.146  1.00  0.00    -0.336 C  
HETATM    5  C   UNL     1     -11.642  12.858  67.326  1.00  0.00    -0.416 C  
HETATM    6  C   UNL     1     -12.403  14.125  67.665  1.00  0.00    -0.073 C  
HETATM    7  C   UNL     1     -11.548  11.867  68.419  1.00  0.00    -0.376 A  
HETATM    8  C   UNL     1     -12.027  12.100  69.683  1.00  0.00    -0.284 A  
HETATM    9  N   UNL     1     -11.991  11.201  70.668  1.00  0.00    -0.362 NA 
HETATM   10  C   UNL     1     -11.488   9.987  70.430  1.00  0.00    -0.314 A  
HETATM   11  N   UNL     1     -10.969   9.665  69.236  1.00  0.00    -0.204 NA 
HETATM   12  O   UNL     1      -9.400  11.215  65.143  1.00  0.00    -0.217 OA 
HETATM   13  C   UNL     1     -10.228  11.307  66.047  1.00  0.00    -0.247 C  
HETATM   14  C   UNL     1     -11.002  10.602  68.247  1.00  0.00    -0.263 A  
HETATM   15  N   UNL     1     -10.416  10.295  66.984  1.00  0.00    -0.242 N  
BRANCH  10  16
HETATM   16  N   UNL     1     -11.542   9.028  71.438  1.00  0.00    -0.300 NA 
HETATM   17  H   UNL     1     -12.124   9.252  72.244  1.00  0.00     0.000 HD 
BRANCH  16  18
HETATM   18  C   UNL     1     -10.887   7.791  71.468  1.00  0.00    -0.227 A  
HETATM   19  C   UNL     1      -8.900   6.606  71.695  1.00  0.00    -0.134 A  
HETATM   20  C   UNL     1     -11.510   6.602  71.110  1.00  0.00    -0.370 A  
HETATM   21  C   UNL     1     -10.771   5.435  70.944  1.00  0.00    -0.243 A  
HETATM   22  N   UNL     1      -9.588   7.784  71.823  1.00  0.00    -0.159 NA 
HETATM   23  C   UNL     1      -9.405   5.403  71.198  1.00  0.00    -0.150 A  
BRANCH  23  24
HETATM   24  N   UNL     1      -8.676   4.259  70.965  1.00  0.00    -0.091 NA 
HETATM   25  C   UNL     1      -9.293   2.921  71.073  1.00  0.00    -0.148 C  
HETATM   26  C   UNL     1      -9.259   2.199  69.707  1.00  0.00    -0.112 C  
HETATM   27  N   UNL     1      -7.906   2.113  69.129  1.00  0.00    -0.046 NA 
HETATM   28  C   UNL     1      -7.330   3.469  69.030  1.00  0.00    -0.049 C  
HETATM   29  H   UNL     1      -7.899   1.623  68.234  1.00  0.00     0.000 HD 
HETATM   30  C   UNL     1      -7.335   4.247  70.366  1.00  0.00    -0.045 C  
ENDBRANCH  23  24
ENDBRANCH  16  18
ENDBRANCH  10  16
BRANCH  15  31
HETATM   31  C   UNL     1      -9.707   9.012  66.849  1.00  0.00    -0.200 C  
HETATM   32  C   UNL     1      -8.593   8.730  67.875  1.00  0.00    -0.130 C  
HETATM   33  C   UNL     1     -10.641   7.797  66.934  1.00  0.00    -0.347 C  
HETATM   34  C   UNL     1      -8.440   7.217  67.824  1.00  0.00    -0.121 C  
HETATM   35  C   UNL     1      -9.858   6.694  67.642  1.00  0.00    -0.150 C  
ENDBRANCH  15  31
ENDBRANCH   2   4
TORSDOF 5
ENDMDL
MODEL       51
REMARK 921   NORMALIZED FREE ENERGY PREDICTED BY IDOCK:   -5.98 KCAL/MOL
REMARK 922        TOTAL FREE ENERGY PREDICTED BY IDOCK:   -8.32 KCAL/MOL
REMARK 923 INTER-LIGAND FREE ENERGY PREDICTED BY IDOCK:   -7.91 KCAL/MOL
REMARK 924 INTRA-LIGAND FREE ENERGY PREDICTED BY IDOCK:   -0.41 KCAL/MOL
REMARK 927      BINDING AFFINITY PREDICTED BY RF-SCORE:    0.00 PKD
ROOT
HETATM    1  C   UNL     1      -6.536  19.841  69.301  1.00  0.00    -0.374 C  
HETATM    2  C   UNL     1      -7.133  19.114  68.124  1.00  0.00    -0.258 C  
HETATM    3  O   UNL     1      -6.948  19.567  66.992  1.00  0.00    -0.197 OA 
ENDROOT
BRANCH   2   4
HETATM    4  C   UNL     1      -7.876  17.816  68.339  1.00  0.00    -0.284 C  
HETATM    5  C   UNL     1      -9.212  17.798  68.529  1.00  0.00    -0.281 C  
HETATM    6  C   UNL     1     -10.128  18.997  68.672  1.00  0.00    -0.449 C  
HETATM    7  C   UNL     1      -9.880  16.481  68.593  1.00  0.00    -0.250 A  
HETATM    8  C   UNL     1     -11.218  16.333  68.857  1.00  0.00    -0.337 A  
HETATM    9  N   UNL     1     -11.846  15.156  68.874  1.00  0.00    -0.326 NA 
HETATM   10  C   UNL     1     -11.162  14.044  68.596  1.00  0.00    -0.268 A  
HETATM   11  N   UNL     1      -9.844  14.074  68.351  1.00  0.00    -0.229 NA 
HETATM   12  O   UNL     1      -5.909  16.539  68.591  1.00  0.00    -0.121 OA 
HETATM   13  C   UNL     1      -7.118  16.520  68.367  1.00  0.00    -0.160 C  
HETATM   14  C   UNL     1      -9.218  15.284  68.352  1.00  0.00    -0.194 A  
HETATM   15  N   UNL     1      -7.810  15.335  68.137  1.00  0.00    -0.117 N  
BRANCH  10  16
HETATM   16  N   UNL     1     -11.847  12.834  68.525  1.00  0.00    -0.320 NA 
HETATM   17  H   UNL     1     -12.572  12.766  67.810  1.00  0.00     0.000 HD 
BRANCH  16  18
HETATM   18  C   UNL     1     -11.653  11.701  69.323  1.00  0.00    -0.320 A  
HETATM   19  C   UNL     1     -12.094  10.578  71.310  1.00  0.00    -0.332 A  
HETATM   20  C   UNL     1     -10.712  10.723  69.024  1.00  0.00    -0.265 A  
HETATM   21  C   UNL     1     -10.400   9.732  69.949  1.00  0.00    -0.291 A  
HETATM   22  N   UNL     1     -12.394  11.595  70.443  1.00  0.00    -0.312 NA 
HETATM   23  C   UNL     1     -11.064   9.644  71.166  1.00  0.00    -0.374 A  
BRANCH  23  24
HETATM   24  N   UNL     1     -10.699   8.700  72.097  1.00  0.00    -0.348 NA 
HETATM   25  C   UNL     1     -11.641   7.649  72.535  1.00  0.00    -0.330 C  
HETATM   26  C   UNL     1     -11.101   6.251  72.160  1.00  0.00    -0.269 C  
HETATM   27  N   UNL     1      -9.745   5.993  72.676  1.00  0.00    -0.156 NA 
HETATM   28  C   UNL     1      -8.835   7.059  72.209  1.00  0.00    -0.132 C  
HETATM   29  H   UNL     1      -9.408   5.062  72.430  1.00  0.00     0.000 HD 
HETATM   30  C   UNL     1      -9.318   8.486  72.554  1.00  0.00    -0.246 C  
ENDBRANCH  23  24
ENDBRANCH  16  18
ENDBRANCH  10  16
BRANCH  15  31
HETATM   31  C   UNL     1      -7.084  14.057  68.030  1.00  0.00    -0.145 C  
HETATM   32  C   UNL     1      -6.868  13.278  69.341  1.00  0.00     0.023 C  
HETATM   33  C   UNL     1      -7.762  13.059  67.082  1.00  0.00    -0.049 C  
HETATM   34  C   UNL     1      -6.606  11.856  68.867  1.00  0.00    -0.087 C  
HETATM   35  C   UNL     1      -7.535  11.671  67.676  1.00  0.00    -0.116 C  
ENDBRANCH  15  31
ENDBRANCH   2   4
TORSDOF 5
ENDMDL
MODEL       52
REMARK 921   NORMALIZED FREE ENERGY PREDICTED BY IDOCK:   -5.95 KCAL/MOL
REMARK 922        TOTAL FREE ENERGY PREDICTED BY IDOCK:   -8.28 KCAL/MOL
REMARK 923 INTER-LIGAND FREE ENERGY PREDICTED BY IDOCK:   -8.68 KCAL/MOL
REMARK 924 INTRA-LIGAND FREE ENERGY PREDICTED BY IDOCK:    0.40 KCAL/MOL
REMARK 927      BINDING AFFINITY PREDICTED BY RF-SCORE:    0.00 PKD
ROOT
HETATM    1  C   UNL     1     -11.223   6.222  69.945  1.00  0.00    -0.498 C  
HETATM    2  C   UNL     1     -10.223   7.345  69.868  1.00  0.00    -0.211 C  
HETATM    3  O   UNL     1      -9.185   7.261  70.529  1.00  0.00    -0.157 OA 
ENDROOT
BRANCH   2   4
HETATM    4  C   UNL     1     -10.468   8.510  68.937  1.00  0.00    -0.207 C  
HETATM    5  C   UNL     1     -11.061   9.641  69.372  1.00  0.00    -0.170 C  
HETATM    6  C   UNL     1     -11.655   9.889  70.745  1.00  0.00    -0.430 C  
HETATM    7  C   UNL     1     -11.138  10.782  68.435  1.00  0.00    -0.323 A  
HETATM    8  C   UNL     1     -11.783  11.955  68.737  1.00  0.00    -0.321 A  
HETATM    9  N   UNL     1     -11.824  13.010  67.922  1.00  0.00    -0.353 NA 
HETATM   10  C   UNL     1     -11.189  12.958  66.749  1.00  0.00    -0.298 A  
HETATM   11  N   UNL     1     -10.552  11.849  66.345  1.00  0.00    -0.240 NA 
HETATM   12  O   UNL     1      -9.907   7.291  66.997  1.00  0.00    -0.173 OA 
HETATM   13  C   UNL     1     -10.071   8.404  67.493  1.00  0.00    -0.218 C  
HETATM   14  C   UNL     1     -10.533  10.777  67.186  1.00  0.00    -0.237 A  
HETATM   15  N   UNL     1      -9.899   9.574  66.758  1.00  0.00    -0.200 N  
BRANCH  10  16
HETATM   16  N   UNL     1     -11.160  14.097  65.949  1.00  0.00    -0.302 NA 
HETATM   17  H   UNL     1     -11.479  13.982  64.987  1.00  0.00     0.000 HD 
BRANCH  16  18
HETATM   18  C   UNL     1     -10.743  15.381  66.316  1.00  0.00    -0.312 A  
HETATM   19  C   UNL     1     -10.202  17.549  65.672  1.00  0.00    -0.079 A  
HETATM   20  C   UNL     1     -10.280  15.686  67.590  1.00  0.00    -0.261 A  
HETATM   21  C   UNL     1      -9.674  16.911  67.852  1.00  0.00    -0.254 A  
HETATM   22  N   UNL     1     -10.763  16.337  65.367  1.00  0.00    -0.444 NA 
HETATM   23  C   UNL     1      -9.576  17.891  66.873  1.00  0.00    -0.300 A  
BRANCH  23  24
HETATM   24  N   UNL     1      -8.915  19.071  67.127  1.00  0.00    -0.283 NA 
HETATM   25  C   UNL     1      -8.597  19.490  68.508  1.00  0.00    -0.339 C  
HETATM   26  C   UNL     1      -7.067  19.581  68.706  1.00  0.00    -0.348 C  
HETATM   27  N   UNL     1      -6.404  20.455  67.722  1.00  0.00    -0.237 NA 
HETATM   28  C   UNL     1      -6.740  19.997  66.358  1.00  0.00    -0.213 C  
HETATM   29  H   UNL     1      -5.397  20.514  67.874  1.00  0.00     0.000 HD 
HETATM   30  C   UNL     1      -8.259  19.885  66.095  1.00  0.00    -0.322 C  
ENDBRANCH  23  24
ENDBRANCH  16  18
ENDBRANCH  10  16
BRANCH  15  31
HETATM   31  C   UNL     1      -9.387   9.519  65.378  1.00  0.00    -0.261 C  
HETATM   32  C   UNL     1      -9.998  10.519  64.378  1.00  0.00    -0.410 C  
HETATM   33  C   UNL     1      -7.872   9.744  65.290  1.00  0.00    -0.120 C  
HETATM   34  C   UNL     1      -8.957  10.591  63.271  1.00  0.00    -0.236 C  
HETATM   35  C   UNL     1      -7.620  10.512  63.994  1.00  0.00     0.077 C  
ENDBRANCH  15  31
ENDBRANCH   2   4
TORSDOF 5
ENDMDL
MODEL       53
REMARK 921   NORMALIZED FREE ENERGY PREDICTED BY IDOCK:   -5.93 KCAL/MOL
REMARK 922        TOTAL FREE ENERGY PREDICTED BY IDOCK:   -8.26 KCAL/MOL
REMARK 923 INTER-LIGAND FREE ENERGY PREDICTED BY IDOCK:   -7.69 KCAL/MOL
REMARK 924 INTRA-LIGAND FREE ENERGY PREDICTED BY IDOCK:   -0.56 KCAL/MOL
REMARK 927      BINDING AFFINITY PREDICTED BY RF-SCORE:    0.00 PKD
ROOT
HETATM    1  C   UNL     1      -7.121  17.934  65.889  1.00  0.00    -0.298 C  
HETATM    2  C   UNL     1      -6.972  17.430  67.301  1.00  0.00    -0.168 C  
HETATM    3  O   UNL     1      -6.171  17.994  68.051  1.00  0.00    -0.171 OA 
ENDROOT
BRANCH   2   4
HETATM    4  C   UNL     1      -7.850  16.303  67.795  1.00  0.00    -0.155 C  
HETATM    5  C   UNL     1      -9.021  16.551  68.420  1.00  0.00    -0.219 C  
HETATM    6  C   UNL     1      -9.571  17.906  68.820  1.00  0.00    -0.290 C  
HETATM    7  C   UNL     1      -9.883  15.396  68.747  1.00  0.00    -0.211 A  
HETATM    8  C   UNL     1     -11.058  15.515  69.447  1.00  0.00    -0.291 A  
HETATM    9  N   UNL     1     -11.871  14.490  69.712  1.00  0.00    -0.296 NA 
HETATM   10  C   UNL     1     -11.560  13.273  69.259  1.00  0.00    -0.314 A  
HETATM   11  N   UNL     1     -10.422  13.043  68.588  1.00  0.00    -0.244 NA 
HETATM   12  O   UNL     1      -6.217  14.644  67.421  1.00  0.00    -0.332 OA 
HETATM   13  C   UNL     1      -7.408  14.880  67.613  1.00  0.00    -0.187 C  
HETATM   14  C   UNL     1      -9.598  14.100  68.340  1.00  0.00    -0.225 A  
HETATM   15  N   UNL     1      -8.363  13.870  67.666  1.00  0.00    -0.167 N  
BRANCH  10  16
HETATM   16  N   UNL     1     -12.462  12.232  69.461  1.00  0.00     0.092 NA 
HETATM   17  H   UNL     1     -13.408  12.377  69.107  1.00  0.00     0.000 HD 
BRANCH  16  18
HETATM   18  C   UNL     1     -12.218  11.008  70.094  1.00  0.00    -0.344 A  
HETATM   19  C   UNL     1     -12.562   9.622  71.929  1.00  0.00    -0.396 A  
HETATM   20  C   UNL     1     -11.270  10.101  69.636  1.00  0.00    -0.310 A  
HETATM   21  C   UNL     1     -10.905   9.004  70.410  1.00  0.00    -0.284 A  
HETATM   22  N   UNL     1     -12.913  10.737  71.215  1.00  0.00    -0.400 NA 
HETATM   23  C   UNL     1     -11.522   8.741  71.626  1.00  0.00    -0.316 A  
BRANCH  23  24
HETATM   24  N   UNL     1     -11.104   7.691  72.411  1.00  0.00    -0.284 NA 
HETATM   25  C   UNL     1     -11.662   6.333  72.238  1.00  0.00    -0.298 C  
HETATM   26  C   UNL     1     -10.553   5.344  71.812  1.00  0.00    -0.222 C  
HETATM   27  N   UNL     1      -9.403   5.329  72.734  1.00  0.00    -0.139 NA 
HETATM   28  C   UNL     1      -8.870   6.701  72.872  1.00  0.00    -0.125 C  
HETATM   29  H   UNL     1      -8.686   4.663  72.446  1.00  0.00     0.000 HD 
HETATM   30  C   UNL     1      -9.932   7.741  73.296  1.00  0.00    -0.307 C  
ENDBRANCH  23  24
ENDBRANCH  16  18
ENDBRANCH  10  16
BRANCH  15  31
HETATM   31  C   UNL     1      -7.993  12.477  67.367  1.00  0.00    -0.180 C  
HETATM   32  C   UNL     1      -7.914  11.513  68.566  1.00  0.00    -0.143 C  
HETATM   33  C   UNL     1      -8.949  11.800  66.376  1.00  0.00    -0.201 C  
HETATM   34  C   UNL     1      -8.045  10.140  67.924  1.00  0.00    -0.109 C  
HETATM   35  C   UNL     1      -9.051  10.336  66.799  1.00  0.00    -0.161 C  
ENDBRANCH  15  31
ENDBRANCH   2   4
TORSDOF 5
ENDMDL
MODEL       54
REMARK 921   NORMALIZED FREE ENERGY PREDICTED BY IDOCK:   -5.90 KCAL/MOL
REMARK 922        TOTAL FREE ENERGY PREDICTED BY IDOCK:   -8.21 KCAL/MOL
REMARK 923 INTER-LIGAND FREE ENERGY PREDICTED BY IDOCK:   -7.50 KCAL/MOL
REMARK 924 INTRA-LIGAND FREE ENERGY PREDICTED BY IDOCK:   -0.71 KCAL/MOL
REMARK 927      BINDING AFFINITY PREDICTED BY RF-SCORE:    0.00 PKD
ROOT
HETATM    1  C   UNL     1     -10.835   2.300  73.090  1.00  0.00    -0.259 C  
HETATM    2  C   UNL     1      -9.791   3.334  73.425  1.00  0.00    -0.111 C  
HETATM    3  O   UNL     1      -9.226   3.272  74.519  1.00  0.00    -0.087 OA 
ENDROOT
BRANCH   2   4
HETATM    4  C   UNL     1      -9.404   4.373  72.398  1.00  0.00    -0.162 C  
HETATM    5  C   UNL     1      -8.296   4.230  71.641  1.00  0.00    -0.100 C  
HETATM    6  C   UNL     1      -7.247   3.142  71.758  1.00  0.00    -0.039 C  
HETATM    7  C   UNL     1      -8.064   5.219  70.567  1.00  0.00    -0.104 A  
HETATM    8  C   UNL     1      -6.937   5.222  69.784  1.00  0.00    -0.058 A  
HETATM    9  N   UNL     1      -6.732   6.078  68.781  1.00  0.00    -0.061 NA 
HETATM   10  C   UNL     1      -7.673   6.978  68.485  1.00  0.00    -0.120 A  
HETATM   11  N   UNL     1      -8.800   7.078  69.205  1.00  0.00    -0.139 NA 
HETATM   12  O   UNL     1     -11.004   5.940  73.138  1.00  0.00    -0.255 OA 
HETATM   13  C   UNL     1     -10.250   5.602  72.227  1.00  0.00    -0.199 C  
HETATM   14  C   UNL     1      -8.984   6.204  70.234  1.00  0.00    -0.153 A  
HETATM   15  N   UNL     1     -10.155   6.321  71.039  1.00  0.00    -0.182 N  
BRANCH  10  16
HETATM   16  N   UNL     1      -7.489   7.803  67.379  1.00  0.00    -0.091 NA 
HETATM   17  H   UNL     1      -6.680   7.599  66.792  1.00  0.00     0.000 HD 
BRANCH  16  18
HETATM   18  C   UNL     1      -8.288   8.881  66.981  1.00  0.00    -0.106 A  
HETATM   19  C   UNL     1      -9.909   9.721  65.541  1.00  0.00    -0.308 A  
HETATM   20  C   UNL     1      -8.111  10.169  67.471  1.00  0.00    -0.113 A  
HETATM   21  C   UNL     1      -8.776  11.246  66.893  1.00  0.00    -0.157 A  
HETATM   22  N   UNL     1      -9.236   8.643  66.055  1.00  0.00    -0.210 NA 
HETATM   23  C   UNL     1      -9.687  11.063  65.862  1.00  0.00    -0.224 A  
BRANCH  23  24
HETATM   24  N   UNL     1     -10.287  12.143  65.256  1.00  0.00    -0.270 NA 
HETATM   25  C   UNL     1     -10.577  12.147  63.807  1.00  0.00    -0.439 C  
HETATM   26  C   UNL     1     -12.100  12.246  63.563  1.00  0.00    -0.553 C  
HETATM   27  N   UNL     1     -12.722  13.404  64.230  1.00  0.00    -0.656 NA 
HETATM   28  C   UNL     1     -12.416  13.357  65.675  1.00  0.00    -0.464 C  
HETATM   29  H   UNL     1     -13.724  13.462  64.049  1.00  0.00     0.000 HD 
HETATM   30  C   UNL     1     -10.906  13.257  65.988  1.00  0.00    -0.273 C  
ENDBRANCH  23  24
ENDBRANCH  16  18
ENDBRANCH  10  16
BRANCH  15  31
HETATM   31  C   UNL     1     -11.057   7.456  70.781  1.00  0.00    -0.265 C  
HETATM   32  C   UNL     1     -12.548   7.234  71.095  1.00  0.00    -0.362 C  
HETATM   33  C   UNL     1     -10.670   8.720  71.560  1.00  0.00    -0.371 C  
HETATM   34  C   UNL     1     -13.092   8.648  71.241  1.00  0.00    -0.192 C  
HETATM   35  C   UNL     1     -11.976   9.419  71.932  1.00  0.00    -0.416 C  
ENDBRANCH  15  31
ENDBRANCH   2   4
TORSDOF 5
ENDMDL
MODEL       55
REMARK 921   NORMALIZED FREE ENERGY PREDICTED BY IDOCK:   -5.90 KCAL/MOL
REMARK 922        TOTAL FREE ENERGY PREDICTED BY IDOCK:   -8.21 KCAL/MOL
REMARK 923 INTER-LIGAND FREE ENERGY PREDICTED BY IDOCK:   -8.89 KCAL/MOL
REMARK 924 INTRA-LIGAND FREE ENERGY PREDICTED BY IDOCK:    0.68 KCAL/MOL
REMARK 927      BINDING AFFINITY PREDICTED BY RF-SCORE:    0.00 PKD
ROOT
HETATM    1  C   UNL     1     -10.879   6.255  66.736  1.00  0.00    -0.367 C  
HETATM    2  C   UNL     1      -9.684   7.172  66.759  1.00  0.00    -0.192 C  
HETATM    3  O   UNL     1      -8.579   6.714  66.459  1.00  0.00    -0.115 OA 
ENDROOT
BRANCH   2   4
HETATM    4  C   UNL     1      -9.867   8.639  67.074  1.00  0.00    -0.284 C  
HETATM    5  C   UNL     1      -9.730   9.582  66.118  1.00  0.00    -0.324 C  
HETATM    6  C   UNL     1      -9.282   9.369  64.685  1.00  0.00    -0.185 C  
HETATM    7  C   UNL     1     -10.061  10.978  66.476  1.00  0.00    -0.270 A  
HETATM    8  C   UNL     1      -9.889  12.031  65.613  1.00  0.00    -0.243 A  
HETATM    9  N   UNL     1     -10.225  13.290  65.903  1.00  0.00    -0.289 NA 
HETATM   10  C   UNL     1     -10.784  13.564  67.084  1.00  0.00    -0.279 A  
HETATM   11  N   UNL     1     -10.971  12.612  68.009  1.00  0.00    -0.225 NA 
HETATM   12  O   UNL     1      -9.925   8.303  69.407  1.00  0.00    -0.180 OA 
HETATM   13  C   UNL     1     -10.183   9.066  68.478  1.00  0.00    -0.200 C  
HETATM   14  C   UNL     1     -10.609  11.335  67.700  1.00  0.00    -0.213 A  
HETATM   15  N   UNL     1     -10.759  10.316  68.685  1.00  0.00    -0.211 N  
BRANCH  10  16
HETATM   16  N   UNL     1     -11.215  14.863  67.337  1.00  0.00    -0.329 NA 
HETATM   17  H   UNL     1     -12.215  14.984  67.500  1.00  0.00     0.000 HD 
BRANCH  16  18
HETATM   18  C   UNL     1     -10.432  16.021  67.393  1.00  0.00    -0.308 A  
HETATM   19  C   UNL     1      -8.486  17.064  68.123  1.00  0.00    -0.227 A  
HETATM   20  C   UNL     1     -10.895  17.263  66.976  1.00  0.00    -0.045 A  
HETATM   21  C   UNL     1     -10.170  18.419  67.249  1.00  0.00    -0.396 A  
HETATM   22  N   UNL     1      -9.194  15.911  67.913  1.00  0.00    -0.198 NA 
HETATM   23  C   UNL     1      -8.934  18.365  67.880  1.00  0.00    -0.283 A  
BRANCH  23  24
HETATM   24  N   UNL     1      -8.261  19.521  68.202  1.00  0.00    -0.310 NA 
HETATM   25  C   UNL     1      -7.505  19.641  69.466  1.00  0.00    -0.058 C  
HETATM   26  C   UNL     1      -6.002  19.857  69.178  1.00  0.00    -0.277 C  
HETATM   27  N   UNL     1      -5.739  21.006  68.292  1.00  0.00    -0.330 NA 
HETATM   28  C   UNL     1      -6.504  20.842  67.040  1.00  0.00    -0.284 C  
HETATM   29  H   UNL     1      -4.742  21.142  68.122  1.00  0.00     0.000 HD 
HETATM   30  C   UNL     1      -8.018  20.622  67.259  1.00  0.00    -0.273 C  
ENDBRANCH  23  24
ENDBRANCH  16  18
ENDBRANCH  10  16
BRANCH  15  31
HETATM   31  C   UNL     1     -11.200  10.720  70.031  1.00  0.00    -0.291 C  
HETATM   32  C   UNL     1     -12.405  11.677  70.101  1.00  0.00    -0.297 C  
HETATM   33  C   UNL     1     -11.586   9.529  70.919  1.00  0.00    -0.398 C  
HETATM   34  C   UNL     1     -12.928  11.482  71.516  1.00  0.00    -0.485 C  
HETATM   35  C   UNL     1     -12.749   9.996  71.791  1.00  0.00    -0.526 C  
ENDBRANCH  15  31
ENDBRANCH   2   4
TORSDOF 5
ENDMDL
MODEL       56
REMARK 921   NORMALIZED FREE ENERGY PREDICTED BY IDOCK:   -5.81 KCAL/MOL
REMARK 922        TOTAL FREE ENERGY PREDICTED BY IDOCK:   -8.10 KCAL/MOL
REMARK 923 INTER-LIGAND FREE ENERGY PREDICTED BY IDOCK:   -7.67 KCAL/MOL
REMARK 924 INTRA-LIGAND FREE ENERGY PREDICTED BY IDOCK:   -0.44 KCAL/MOL
REMARK 927      BINDING AFFINITY PREDICTED BY RF-SCORE:    0.00 PKD
ROOT
HETATM    1  C   UNL     1     -10.699  18.493  66.541  1.00  0.00    -0.263 C  
HETATM    2  C   UNL     1     -10.639  17.245  65.698  1.00  0.00    -0.166 C  
HETATM    3  O   UNL     1     -11.084  17.285  64.548  1.00  0.00    -1.082 OA 
ENDROOT
BRANCH   2   4
HETATM    4  C   UNL     1      -9.976  16.001  66.241  1.00  0.00    -0.329 C  
HETATM    5  C   UNL     1      -8.678  16.004  66.610  1.00  0.00    -0.309 C  
HETATM    6  C   UNL     1      -7.686  17.140  66.446  1.00  0.00    -0.345 C  
HETATM    7  C   UNL     1      -8.144  14.788  67.259  1.00  0.00    -0.232 A  
HETATM    8  C   UNL     1      -6.824  14.645  67.608  1.00  0.00    -0.183 A  
HETATM    9  N   UNL     1      -6.335  13.574  68.235  1.00  0.00    -0.092 NA 
HETATM   10  C   UNL     1      -7.158  12.580  68.576  1.00  0.00    -0.107 A  
HETATM   11  N   UNL     1      -8.461  12.608  68.258  1.00  0.00    -0.172 NA 
HETATM   12  O   UNL     1     -11.782  14.592  65.679  1.00  0.00    -0.345 OA 
HETATM   13  C   UNL     1     -10.762  14.726  66.353  1.00  0.00    -0.313 C  
HETATM   14  C   UNL     1      -8.939  13.704  67.605  1.00  0.00    -0.202 A  
HETATM   15  N   UNL     1     -10.311  13.735  67.219  1.00  0.00    -0.252 N  
BRANCH  10  16
HETATM   16  N   UNL     1      -6.653  11.512  69.312  1.00  0.00    -0.102 NA 
HETATM   17  H   UNL     1      -5.792  11.686  69.830  1.00  0.00     0.000 HD 
BRANCH  16  18
HETATM   18  C   UNL     1      -7.194  10.225  69.421  1.00  0.00    -0.104 A  
HETATM   19  C   UNL     1      -7.729   8.208  68.397  1.00  0.00    -0.113 A  
HETATM   20  C   UNL     1      -7.883   9.792  70.547  1.00  0.00    -0.075 A  
HETATM   21  C   UNL     1      -8.589   8.593  70.530  1.00  0.00    -0.170 A  
HETATM   22  N   UNL     1      -7.062   9.404  68.362  1.00  0.00    -0.071 NA 
HETATM   23  C   UNL     1      -8.569   7.759  69.420  1.00  0.00    -0.135 A  
BRANCH  23  24
HETATM   24  N   UNL     1      -9.325   6.610  69.393  1.00  0.00    -0.147 NA 
HETATM   25  C   UNL     1      -8.949   5.464  68.538  1.00  0.00    -0.107 C  
HETATM   26  C   UNL     1      -8.638   4.223  69.405  1.00  0.00    -0.080 C  
HETATM   27  N   UNL     1      -9.735   3.863  70.320  1.00  0.00    -0.200 NA 
HETATM   28  C   UNL     1     -10.073   5.030  71.161  1.00  0.00    -0.223 C  
HETATM   29  H   UNL     1      -9.519   3.035  70.876  1.00  0.00     0.000 HD 
HETATM   30  C   UNL     1     -10.396   6.307  70.352  1.00  0.00    -0.208 C  
ENDBRANCH  23  24
ENDBRANCH  16  18
ENDBRANCH  10  16
BRANCH  15  31
HETATM   31  C   UNL     1     -11.118  12.526  67.453  1.00  0.00    -0.272 C  
HETATM   32  C   UNL     1     -10.426  11.175  67.193  1.00  0.00    -0.270 C  
HETATM   33  C   UNL     1     -11.651  12.428  68.889  1.00  0.00    -0.364 C  
HETATM   34  C   UNL     1     -11.264  10.188  67.992  1.00  0.00    -0.247 C  
HETATM   35  C   UNL     1     -11.648  10.946  69.255  1.00  0.00    -0.388 C  
ENDBRANCH  15  31
ENDBRANCH   2   4
TORSDOF 5
ENDMDL
MODEL       57
REMARK 921   NORMALIZED FREE ENERGY PREDICTED BY IDOCK:   -5.80 KCAL/MOL
REMARK 922        TOTAL FREE ENERGY PREDICTED BY IDOCK:   -8.09 KCAL/MOL
REMARK 923 INTER-LIGAND FREE ENERGY PREDICTED BY IDOCK:   -7.91 KCAL/MOL
REMARK 924 INTRA-LIGAND FREE ENERGY PREDICTED BY IDOCK:   -0.17 KCAL/MOL
REMARK 927      BINDING AFFINITY PREDICTED BY RF-SCORE:    0.00 PKD
ROOT
HETATM    1  C   UNL     1      -9.123   3.758  68.715  1.00  0.00    -0.199 C  
HETATM    2  C   UNL     1      -8.697   4.912  69.585  1.00  0.00    -0.086 C  
HETATM    3  O   UNL     1      -7.701   4.779  70.300  1.00  0.00    -0.056 OA 
ENDROOT
BRANCH   2   4
HETATM    4  C   UNL     1      -9.445   6.224  69.513  1.00  0.00    -0.151 C  
HETATM    5  C   UNL     1     -10.335   6.575  70.465  1.00  0.00    -0.240 C  
HETATM    6  C   UNL     1     -10.804   5.726  71.631  1.00  0.00    -0.316 C  
HETATM    7  C   UNL     1     -10.918   7.931  70.395  1.00  0.00    -0.251 A  
HETATM    8  C   UNL     1     -11.887   8.373  71.260  1.00  0.00    -0.289 A  
HETATM    9  N   UNL     1     -12.392   9.608  71.240  1.00  0.00    -0.337 NA 
HETATM   10  C   UNL     1     -11.927  10.492  70.353  1.00  0.00    -0.335 A  
HETATM   11  N   UNL     1     -11.000  10.154  69.446  1.00  0.00    -0.234 NA 
HETATM   12  O   UNL     1      -8.738   6.697  67.314  1.00  0.00    -0.118 OA 
HETATM   13  C   UNL     1      -9.216   7.148  68.353  1.00  0.00    -0.133 C  
HETATM   14  C   UNL     1     -10.507   8.884  69.473  1.00  0.00    -0.226 A  
HETATM   15  N   UNL     1      -9.552   8.492  68.490  1.00  0.00    -0.150 N  
BRANCH  10  16
HETATM   16  N   UNL     1     -12.395  11.803  70.404  1.00  0.00    -0.306 NA 
HETATM   17  H   UNL     1     -13.279  11.949  70.889  1.00  0.00     0.000 HD 
BRANCH  16  18
HETATM   18  C   UNL     1     -11.787  12.942  69.863  1.00  0.00    -0.303 A  
HETATM   19  C   UNL     1     -11.534  15.253  69.886  1.00  0.00    -0.304 A  
HETATM   20  C   UNL     1     -11.035  12.910  68.695  1.00  0.00    -0.295 A  
HETATM   21  C   UNL     1     -10.633  14.090  68.077  1.00  0.00    -0.250 A  
HETATM   22  N   UNL     1     -11.985  14.113  70.497  1.00  0.00    -0.319 NA 
HETATM   23  C   UNL     1     -10.907  15.330  68.640  1.00  0.00    -0.253 A  
BRANCH  23  24
HETATM   24  N   UNL     1     -10.563  16.489  67.983  1.00  0.00    -0.316 NA 
HETATM   25  C   UNL     1     -10.242  17.725  68.727  1.00  0.00    -0.373 C  
HETATM   26  C   UNL     1      -8.779  18.149  68.463  1.00  0.00    -0.296 C  
HETATM   27  N   UNL     1      -8.466  18.297  67.030  1.00  0.00    -0.244 NA 
HETATM   28  C   UNL     1      -8.792  17.039  66.328  1.00  0.00    -0.254 C  
HETATM   29  H   UNL     1      -7.501  18.588  66.874  1.00  0.00     0.000 HD 
HETATM   30  C   UNL     1     -10.244  16.559  66.550  1.00  0.00    -0.300 C  
ENDBRANCH  23  24
ENDBRANCH  16  18
ENDBRANCH  10  16
BRANCH  15  31
HETATM   31  C   UNL     1      -9.228   9.454  67.424  1.00  0.00    -0.126 C  
HETATM   32  C   UNL     1      -7.752   9.526  66.989  1.00  0.00    -0.091 C  
HETATM   33  C   UNL     1     -10.012   9.204  66.129  1.00  0.00    -0.338 C  
HETATM   34  C   UNL     1      -7.823  10.153  65.604  1.00  0.00    -0.145 C  
HETATM   35  C   UNL     1      -9.075   9.559  64.977  1.00  0.00    -0.281 C  
ENDBRANCH  15  31
ENDBRANCH   2   4
TORSDOF 5
ENDMDL
MODEL       58
REMARK 921   NORMALIZED FREE ENERGY PREDICTED BY IDOCK:   -5.80 KCAL/MOL
REMARK 922        TOTAL FREE ENERGY PREDICTED BY IDOCK:   -8.08 KCAL/MOL
REMARK 923 INTER-LIGAND FREE ENERGY PREDICTED BY IDOCK:   -7.38 KCAL/MOL
REMARK 924 INTRA-LIGAND FREE ENERGY PREDICTED BY IDOCK:   -0.71 KCAL/MOL
REMARK 927      BINDING AFFINITY PREDICTED BY RF-SCORE:    0.00 PKD
ROOT
HETATM    1  C   UNL     1     -10.835   5.947  68.893  1.00  0.00    -0.373 C  
HETATM    2  C   UNL     1      -9.711   6.427  68.013  1.00  0.00    -0.122 C  
HETATM    3  O   UNL     1      -9.229   5.648  67.188  1.00  0.00    -0.114 OA 
ENDROOT
BRANCH   2   4
HETATM    4  C   UNL     1      -9.246   7.863  68.102  1.00  0.00    -0.136 C  
HETATM    5  C   UNL     1      -8.329   8.246  69.015  1.00  0.00    -0.120 C  
HETATM    6  C   UNL     1      -7.730   7.395  70.118  1.00  0.00    -0.090 C  
HETATM    7  C   UNL     1      -7.827   9.635  68.945  1.00  0.00    -0.081 A  
HETATM    8  C   UNL     1      -6.953  10.160  69.863  1.00  0.00    -0.133 A  
HETATM    9  N   UNL     1      -6.455  11.396  69.790  1.00  0.00    -0.135 NA 
HETATM   10  C   UNL     1      -6.791  12.179  68.762  1.00  0.00    -0.095 A  
HETATM   11  N   UNL     1      -7.659  11.771  67.825  1.00  0.00    -0.118 NA 
HETATM   12  O   UNL     1     -10.908   8.666  66.635  1.00  0.00    -0.084 OA 
HETATM   13  C   UNL     1      -9.828   8.892  67.178  1.00  0.00    -0.207 C  
HETATM   14  C   UNL     1      -8.168  10.511  67.924  1.00  0.00    -0.107 A  
HETATM   15  N   UNL     1      -9.125  10.074  66.963  1.00  0.00    -0.141 N  
BRANCH  10  16
HETATM   16  N   UNL     1      -6.192  13.431  68.647  1.00  0.00    -0.082 NA 
HETATM   17  H   UNL     1      -5.177  13.439  68.547  1.00  0.00     0.000 HD 
BRANCH  16  18
HETATM   18  C   UNL     1      -6.826  14.678  68.653  1.00  0.00    -0.094 A  
HETATM   19  C   UNL     1      -8.701  15.945  69.187  1.00  0.00    -0.256 A  
HETATM   20  C   UNL     1      -6.319  15.782  67.979  1.00  0.00    -0.142 A  
HETATM   21  C   UNL     1      -7.084  16.935  67.829  1.00  0.00    -0.156 A  
HETATM   22  N   UNL     1      -7.995  14.778  69.314  1.00  0.00    -0.138 NA 
HETATM   23  C   UNL     1      -8.343  17.047  68.405  1.00  0.00    -0.241 A  
BRANCH  23  24
HETATM   24  N   UNL     1      -9.114  18.166  68.193  1.00  0.00    -0.283 NA 
HETATM   25  C   UNL     1      -8.567  19.524  68.395  1.00  0.00    -0.349 C  
HETATM   26  C   UNL     1      -8.573  20.311  67.065  1.00  0.00    -0.318 C  
HETATM   27  N   UNL     1      -9.900  20.365  66.427  1.00  0.00    -0.626 NA 
HETATM   28  C   UNL     1     -10.405  18.990  66.235  1.00  0.00    -0.459 C  
HETATM   29  H   UNL     1      -9.889  20.899  65.557  1.00  0.00     0.000 HD 
HETATM   30  C   UNL     1     -10.426  18.148  67.530  1.00  0.00    -0.410 C  
ENDBRANCH  23  24
ENDBRANCH  16  18
ENDBRANCH  10  16
BRANCH  15  31
HETATM   31  C   UNL     1      -9.597  11.052  65.969  1.00  0.00    -0.215 C  
HETATM   32  C   UNL     1      -9.997  10.493  64.590  1.00  0.00    -0.415 C  
HETATM   33  C   UNL     1     -10.821  11.849  66.443  1.00  0.00    -0.318 C  
HETATM   34  C   UNL     1     -10.895  11.579  64.016  1.00  0.00    -0.453 C  
HETATM   35  C   UNL     1     -11.687  12.094  65.210  1.00  0.00    -0.364 C  
ENDBRANCH  15  31
ENDBRANCH   2   4
TORSDOF 5
ENDMDL
MODEL       59
REMARK 921   NORMALIZED FREE ENERGY PREDICTED BY IDOCK:   -5.80 KCAL/MOL
REMARK 922        TOTAL FREE ENERGY PREDICTED BY IDOCK:   -8.08 KCAL/MOL
REMARK 923 INTER-LIGAND FREE ENERGY PREDICTED BY IDOCK:   -7.44 KCAL/MOL
REMARK 924 INTRA-LIGAND FREE ENERGY PREDICTED BY IDOCK:   -0.64 KCAL/MOL
REMARK 927      BINDING AFFINITY PREDICTED BY RF-SCORE:    0.00 PKD
ROOT
HETATM    1  C   UNL     1      -9.035  18.404  68.215  1.00  0.00    -0.330 C  
HETATM    2  C   UNL     1     -10.397  17.965  67.741  1.00  0.00    -0.387 C  
HETATM    3  O   UNL     1     -11.107  18.778  67.144  1.00  0.00    -0.284 OA 
ENDROOT
BRANCH   2   4
HETATM    4  C   UNL     1     -10.837  16.533  67.937  1.00  0.00    -0.326 C  
HETATM    5  C   UNL     1     -10.592  15.592  67.001  1.00  0.00    -0.311 C  
HETATM    6  C   UNL     1      -9.983  15.808  65.628  1.00  0.00    -0.378 C  
HETATM    7  C   UNL     1     -10.930  14.191  67.329  1.00  0.00    -0.304 A  
HETATM    8  C   UNL     1     -10.798  13.160  66.432  1.00  0.00    -0.287 A  
HETATM    9  N   UNL     1     -11.055  11.884  66.724  1.00  0.00    -0.292 NA 
HETATM   10  C   UNL     1     -11.441  11.560  67.961  1.00  0.00    -0.311 A  
HETATM   11  N   UNL     1     -11.628  12.494  68.905  1.00  0.00    -0.296 NA 
HETATM   12  O   UNL     1     -12.148  17.019  69.836  1.00  0.00     1.319 OA 
HETATM   13  C   UNL     1     -11.581  16.146  69.182  1.00  0.00    -0.285 C  
HETATM   14  C   UNL     1     -11.373  13.793  68.583  1.00  0.00    -0.287 A  
HETATM   15  N   UNL     1     -11.606  14.806  69.558  1.00  0.00    -0.286 N  
BRANCH  10  16
HETATM   16  N   UNL     1     -11.616  10.216  68.279  1.00  0.00    -0.663 NA 
HETATM   17  H   UNL     1     -12.541   9.946  68.611  1.00  0.00     0.000 HD 
BRANCH  16  18
HETATM   18  C   UNL     1     -10.664   9.194  68.195  1.00  0.00    -0.131 A  
HETATM   19  C   UNL     1      -9.855   7.327  67.069  1.00  0.00    -0.203 A  
HETATM   20  C   UNL     1      -9.760   8.922  69.215  1.00  0.00    -0.165 A  
HETATM   21  C   UNL     1      -8.982   7.768  69.185  1.00  0.00    -0.145 A  
HETATM   22  N   UNL     1     -10.669   8.429  67.086  1.00  0.00    -0.241 NA 
HETATM   23  C   UNL     1      -9.030   6.892  68.109  1.00  0.00    -0.123 A  
BRANCH  23  24
HETATM   24  N   UNL     1      -8.306   5.723  68.125  1.00  0.00    -0.107 NA 
HETATM   25  C   UNL     1      -7.693   5.217  69.371  1.00  0.00    -0.076 C  
HETATM   26  C   UNL     1      -8.299   3.847  69.753  1.00  0.00    -0.056 C  
HETATM   27  N   UNL     1      -8.204   2.848  68.674  1.00  0.00    -0.063 NA 
HETATM   28  C   UNL     1      -8.835   3.389  67.452  1.00  0.00    -0.130 C  
HETATM   29  H   UNL     1      -8.597   1.947  68.946  1.00  0.00     0.000 HD 
HETATM   30  C   UNL     1      -8.272   4.760  67.015  1.00  0.00    -0.106 C  
ENDBRANCH  23  24
ENDBRANCH  16  18
ENDBRANCH  10  16
BRANCH  15  31
HETATM   31  C   UNL     1     -12.216  14.402  70.836  1.00  0.00    -0.342 C  
HETATM   32  C   UNL     1     -11.755  15.168  72.091  1.00  0.00    -0.502 C  
HETATM   33  C   UNL     1     -13.746  14.524  70.838  1.00  0.00    -0.123 C  
HETATM   34  C   UNL     1     -12.879  14.924  73.086  1.00  0.00    -0.619 C  
HETATM   35  C   UNL     1     -14.148  14.951  72.247  1.00  0.00    -0.600 C  
ENDBRANCH  15  31
ENDBRANCH   2   4
TORSDOF 5
ENDMDL
MODEL       60
REMARK 921   NORMALIZED FREE ENERGY PREDICTED BY IDOCK:   -5.79 KCAL/MOL
REMARK 922        TOTAL FREE ENERGY PREDICTED BY IDOCK:   -8.07 KCAL/MOL
REMARK 923 INTER-LIGAND FREE ENERGY PREDICTED BY IDOCK:   -7.34 KCAL/MOL
REMARK 924 INTRA-LIGAND FREE ENERGY PREDICTED BY IDOCK:   -0.73 KCAL/MOL
REMARK 927      BINDING AFFINITY PREDICTED BY RF-SCORE:    0.00 PKD
ROOT
HETATM    1  C   UNL     1      -7.397   2.948  70.753  1.00  0.00    -0.033 C  
HETATM    2  C   UNL     1      -8.734   3.211  70.109  1.00  0.00    -0.070 C  
HETATM    3  O   UNL     1      -9.602   2.338  70.170  1.00  0.00    -0.100 OA 
ENDROOT
BRANCH   2   4
HETATM    4  C   UNL     1      -9.012   4.553  69.473  1.00  0.00    -0.142 C  
HETATM    5  C   UNL     1      -8.571   4.843  68.231  1.00  0.00    -0.105 C  
HETATM    6  C   UNL     1      -7.678   3.984  67.357  1.00  0.00    -0.080 C  
HETATM    7  C   UNL     1      -9.003   6.123  67.629  1.00  0.00    -0.111 A  
HETATM    8  C   UNL     1      -8.560   6.560  66.406  1.00  0.00    -0.136 A  
HETATM    9  N   UNL     1      -8.974   7.689  65.828  1.00  0.00    -0.107 NA 
HETATM   10  C   UNL     1      -9.889   8.443  66.441  1.00  0.00    -0.240 A  
HETATM   11  N   UNL     1     -10.367   8.120  67.652  1.00  0.00    -0.236 NA 
HETATM   12  O   UNL     1      -9.830   5.515  71.465  1.00  0.00    -0.162 OA 
HETATM   13  C   UNL     1      -9.770   5.598  70.239  1.00  0.00    -0.178 C  
HETATM   14  C   UNL     1      -9.922   6.970  68.232  1.00  0.00    -0.153 A  
HETATM   15  N   UNL     1     -10.384   6.630  69.537  1.00  0.00    -0.192 N  
BRANCH  10  16
HETATM   16  N   UNL     1     -10.381   9.569  65.785  1.00  0.00    -0.188 NA 
HETATM   17  H   UNL     1     -10.755   9.419  64.849  1.00  0.00     0.000 HD 
BRANCH  16  18
HETATM   18  C   UNL     1     -10.421  10.882  66.268  1.00  0.00    -0.245 A  
HETATM   19  C   UNL     1     -11.687  12.670  67.046  1.00  0.00    -0.369 A  
HETATM   20  C   UNL     1      -9.315  11.723  66.248  1.00  0.00    -0.235 A  
HETATM   21  C   UNL     1      -9.450  13.079  66.531  1.00  0.00    -0.246 A  
HETATM   22  N   UNL     1     -11.601  11.340  66.728  1.00  0.00    -0.394 NA 
HETATM   23  C   UNL     1     -10.672  13.620  66.909  1.00  0.00    -0.275 A  
BRANCH  23  24
HETATM   24  N   UNL     1     -10.803  14.973  67.121  1.00  0.00    -0.307 NA 
HETATM   25  C   UNL     1     -11.210  15.508  68.437  1.00  0.00    -0.341 C  
HETATM   26  C   UNL     1     -10.087  16.387  69.033  1.00  0.00    -0.262 C  
HETATM   27  N   UNL     1      -9.658  17.471  68.131  1.00  0.00    -0.283 NA 
HETATM   28  C   UNL     1      -9.252  16.894  66.833  1.00  0.00    -0.238 C  
HETATM   29  H   UNL     1      -8.926  18.050  68.543  1.00  0.00     0.000 HD 
HETATM   30  C   UNL     1     -10.334  16.002  66.183  1.00  0.00    -0.328 C  
ENDBRANCH  23  24
ENDBRANCH  16  18
ENDBRANCH  10  16
BRANCH  15  31
HETATM   31  C   UNL     1     -11.242   7.601  70.237  1.00  0.00    -0.216 C  
HETATM   32  C   UNL     1     -12.432   7.024  71.026  1.00  0.00    -0.373 C  
HETATM   33  C   UNL     1     -10.474   8.461  71.250  1.00  0.00    -0.273 C  
HETATM   34  C   UNL     1     -12.771   8.131  72.013  1.00  0.00    -0.355 C  
HETATM   35  C   UNL     1     -11.423   8.710  72.419  1.00  0.00    -0.369 C  
ENDBRANCH  15  31
ENDBRANCH   2   4
TORSDOF 5
ENDMDL
MODEL       61
REMARK 921   NORMALIZED FREE ENERGY PREDICTED BY IDOCK:   -5.79 KCAL/MOL
REMARK 922        TOTAL FREE ENERGY PREDICTED BY IDOCK:   -8.07 KCAL/MOL
REMARK 923 INTER-LIGAND FREE ENERGY PREDICTED BY IDOCK:   -7.28 KCAL/MOL
REMARK 924 INTRA-LIGAND FREE ENERGY PREDICTED BY IDOCK:   -0.79 KCAL/MOL
REMARK 927      BINDING AFFINITY PREDICTED BY RF-SCORE:    0.00 PKD
ROOT
HETATM    1  C   UNL     1      -8.980   8.844  71.142  1.00  0.00    -0.305 C  
HETATM    2  C   UNL     1      -8.613   8.842  69.681  1.00  0.00    -0.130 C  
HETATM    3  O   UNL     1      -8.293   7.775  69.152  1.00  0.00    -0.130 OA 
ENDROOT
BRANCH   2   4
HETATM    4  C   UNL     1      -8.715  10.118  68.877  1.00  0.00    -0.149 C  
HETATM    5  C   UNL     1      -9.718  10.311  67.995  1.00  0.00    -0.167 C  
HETATM    6  C   UNL     1     -10.779   9.307  67.588  1.00  0.00    -0.276 C  
HETATM    7  C   UNL     1      -9.823  11.638  67.353  1.00  0.00    -0.197 A  
HETATM    8  C   UNL     1     -10.752  11.929  66.385  1.00  0.00    -0.266 A  
HETATM    9  N   UNL     1     -10.891  13.133  65.828  1.00  0.00    -0.272 NA 
HETATM   10  C   UNL     1     -10.111  14.138  66.235  1.00  0.00    -0.300 A  
HETATM   11  N   UNL     1      -9.153  13.954  67.155  1.00  0.00    -0.229 NA 
HETATM   12  O   UNL     1      -6.577  10.885  69.513  1.00  0.00    -0.080 OA 
HETATM   13  C   UNL     1      -7.672  11.185  69.040  1.00  0.00    -0.114 C  
HETATM   14  C   UNL     1      -9.018  12.713  67.702  1.00  0.00    -0.186 A  
HETATM   15  N   UNL     1      -7.978  12.486  68.650  1.00  0.00    -0.081 N  
BRANCH  10  16
HETATM   16  N   UNL     1     -10.329  15.410  65.714  1.00  0.00    -0.333 NA 
HETATM   17  H   UNL     1     -10.969  15.472  64.922  1.00  0.00     0.000 HD 
BRANCH  16  18
HETATM   18  C   UNL     1      -9.768  16.615  66.154  1.00  0.00    -0.303 A  
HETATM   19  C   UNL     1      -7.912  18.010  66.272  1.00  0.00    -0.241 A  
HETATM   20  C   UNL     1     -10.417  17.466  67.040  1.00  0.00    -0.284 A  
HETATM   21  C   UNL     1      -9.741  18.536  67.620  1.00  0.00    -0.317 A  
HETATM   22  N   UNL     1      -8.531  16.921  65.718  1.00  0.00    -0.432 NA 
HETATM   23  C   UNL     1      -8.427  18.830  67.280  1.00  0.00    -0.270 A  
BRANCH  23  24
HETATM   24  N   UNL     1      -7.752  19.850  67.910  1.00  0.00    -0.292 NA 
HETATM   25  C   UNL     1      -7.516  19.827  69.368  1.00  0.00    -0.104 C  
HETATM   26  C   UNL     1      -6.000  19.784  69.669  1.00  0.00    -0.290 C  
HETATM   27  N   UNL     1      -5.249  20.878  69.028  1.00  0.00    -0.321 NA 
HETATM   28  C   UNL     1      -5.505  20.859  67.573  1.00  0.00    -0.242 C  
HETATM   29  H   UNL     1      -4.253  20.842  69.246  1.00  0.00     0.000 HD 
HETATM   30  C   UNL     1      -7.006  20.901  67.204  1.00  0.00    -0.364 C  
ENDBRANCH  23  24
ENDBRANCH  16  18
ENDBRANCH  10  16
BRANCH  15  31
HETATM   31  C   UNL     1      -7.032  13.584  68.910  1.00  0.00    -0.108 C  
HETATM   32  C   UNL     1      -6.394  14.249  67.675  1.00  0.00    -0.126 C  
HETATM   33  C   UNL     1      -7.655  14.739  69.705  1.00  0.00    -0.047 C  
HETATM   34  C   UNL     1      -5.933  15.600  68.201  1.00  0.00    -0.138 C  
HETATM   35  C   UNL     1      -7.021  16.024  69.178  1.00  0.00    -0.189 C  
ENDBRANCH  15  31
ENDBRANCH   2   4
TORSDOF 5
ENDMDL
MODEL       62
REMARK 921   NORMALIZED FREE ENERGY PREDICTED BY IDOCK:   -5.79 KCAL/MOL
REMARK 922        TOTAL FREE ENERGY PREDICTED BY IDOCK:   -8.07 KCAL/MOL
REMARK 923 INTER-LIGAND FREE ENERGY PREDICTED BY IDOCK:   -7.60 KCAL/MOL
REMARK 924 INTRA-LIGAND FREE ENERGY PREDICTED BY IDOCK:   -0.47 KCAL/MOL
REMARK 927      BINDING AFFINITY PREDICTED BY RF-SCORE:    0.00 PKD
ROOT
HETATM    1  C   UNL     1      -7.274   7.093  64.669  1.00  0.00    -0.073 C  
HETATM    2  C   UNL     1      -7.411   7.364  66.145  1.00  0.00    -0.083 C  
HETATM    3  O   UNL     1      -6.897   6.576  66.942  1.00  0.00    -0.061 OA 
ENDROOT
BRANCH   2   4
HETATM    4  C   UNL     1      -8.104   8.621  66.618  1.00  0.00    -0.100 C  
HETATM    5  C   UNL     1      -9.399   8.605  66.997  1.00  0.00    -0.202 C  
HETATM    6  C   UNL     1     -10.361   7.436  66.908  1.00  0.00    -0.367 C  
HETATM    7  C   UNL     1      -9.961   9.843  67.577  1.00  0.00    -0.229 A  
HETATM    8  C   UNL     1     -11.282   9.972  67.927  1.00  0.00    -0.098 A  
HETATM    9  N   UNL     1     -11.796  11.066  68.493  1.00  0.00    -0.520 NA 
HETATM   10  C   UNL     1     -10.997  12.099  68.769  1.00  0.00    -0.232 A  
HETATM   11  N   UNL     1      -9.696  12.086  68.442  1.00  0.00    -0.211 NA 
HETATM   12  O   UNL     1      -6.340  10.041  65.960  1.00  0.00    -0.076 OA 
HETATM   13  C   UNL     1      -7.351   9.920  66.648  1.00  0.00    -0.099 C  
HETATM   14  C   UNL     1      -9.193  10.966  67.852  1.00  0.00    -0.152 A  
HETATM   15  N   UNL     1      -7.823  10.949  67.457  1.00  0.00    -0.112 N  
BRANCH  10  16
HETATM   16  N   UNL     1     -11.526  13.196  69.444  1.00  0.00    -0.358 NA 
HETATM   17  H   UNL     1     -12.136  12.989  70.235  1.00  0.00     0.000 HD 
BRANCH  16  18
HETATM   18  C   UNL     1     -11.314  14.550  69.160  1.00  0.00    -0.277 A  
HETATM   19  C   UNL     1     -11.072  16.226  67.567  1.00  0.00    -0.140 A  
HETATM   20  C   UNL     1     -10.948  15.473  70.132  1.00  0.00    -0.336 A  
HETATM   21  C   UNL     1     -10.537  16.754  69.775  1.00  0.00    -0.174 A  
HETATM   22  N   UNL     1     -11.438  14.943  67.878  1.00  0.00    -0.330 NA 
HETATM   23  C   UNL     1     -10.547  17.173  68.451  1.00  0.00    -0.371 A  
BRANCH  23  24
HETATM   24  N   UNL     1     -10.075  18.419  68.106  1.00  0.00    -0.363 NA 
HETATM   25  C   UNL     1      -8.662  18.792  68.328  1.00  0.00    -0.333 C  
HETATM   26  C   UNL     1      -7.966  19.094  66.981  1.00  0.00    -0.256 C  
HETATM   27  N   UNL     1      -8.665  20.117  66.183  1.00  0.00    -0.560 NA 
HETATM   28  C   UNL     1     -10.068  19.702  65.977  1.00  0.00    -0.461 C  
HETATM   29  H   UNL     1      -8.187  20.314  65.303  1.00  0.00     0.000 HD 
HETATM   30  C   UNL     1     -10.822  19.384  67.288  1.00  0.00    -0.448 C  
ENDBRANCH  23  24
ENDBRANCH  16  18
ENDBRANCH  10  16
BRANCH  15  31
HETATM   31  C   UNL     1      -7.047  12.190  67.613  1.00  0.00    -0.124 C  
HETATM   32  C   UNL     1      -7.777  13.505  67.278  1.00  0.00    -0.093 C  
HETATM   33  C   UNL     1      -6.508  12.387  69.037  1.00  0.00    -0.097 C  
HETATM   34  C   UNL     1      -6.960  14.558  68.011  1.00  0.00    -0.149 C  
HETATM   35  C   UNL     1      -6.549  13.888  69.315  1.00  0.00    -0.113 C  
ENDBRANCH  15  31
ENDBRANCH   2   4
TORSDOF 5
ENDMDL
MODEL       63
REMARK 921   NORMALIZED FREE ENERGY PREDICTED BY IDOCK:   -5.75 KCAL/MOL
REMARK 922        TOTAL FREE ENERGY PREDICTED BY IDOCK:   -8.02 KCAL/MOL
REMARK 923 INTER-LIGAND FREE ENERGY PREDICTED BY IDOCK:   -7.66 KCAL/MOL
REMARK 924 INTRA-LIGAND FREE ENERGY PREDICTED BY IDOCK:   -0.36 KCAL/MOL
REMARK 927      BINDING AFFINITY PREDICTED BY RF-SCORE:    0.00 PKD
ROOT
HETATM    1  C   UNL     1     -10.493   9.014  71.707  1.00  0.00    -0.418 C  
HETATM    2  C   UNL     1     -11.510   9.296  70.632  1.00  0.00    -0.274 C  
HETATM    3  O   UNL     1     -12.273   8.391  70.286  1.00  0.00     0.241 OA 
ENDROOT
BRANCH   2   4
HETATM    4  C   UNL     1     -11.628  10.687  70.053  1.00  0.00    -0.406 C  
HETATM    5  C   UNL     1     -12.212  11.686  70.748  1.00  0.00    -0.443 C  
HETATM    6  C   UNL     1     -12.915  11.576  72.087  1.00  0.00    -0.205 C  
HETATM    7  C   UNL     1     -12.163  13.046  70.169  1.00  0.00    -0.342 A  
HETATM    8  C   UNL     1     -12.787  14.125  70.744  1.00  0.00    -0.310 A  
HETATM    9  N   UNL     1     -12.715  15.367  70.261  1.00  0.00    -0.352 NA 
HETATM   10  C   UNL     1     -11.982  15.605  69.171  1.00  0.00    -0.310 A  
HETATM   11  N   UNL     1     -11.356  14.616  68.517  1.00  0.00    -0.270 NA 
HETATM   12  O   UNL     1     -10.947  10.028  67.894  1.00  0.00    -0.274 OA 
HETATM   13  C   UNL     1     -11.110  10.966  68.672  1.00  0.00    -0.252 C  
HETATM   14  C   UNL     1     -11.452  13.353  69.018  1.00  0.00    -0.301 A  
HETATM   15  N   UNL     1     -10.829  12.281  68.314  1.00  0.00    -0.214 N  
BRANCH  10  16
HETATM   16  N   UNL     1     -11.840  16.919  68.731  1.00  0.00     0.277 NA 
HETATM   17  H   UNL     1     -12.700  17.455  68.621  1.00  0.00     0.000 HD 
BRANCH  16  18
HETATM   18  C   UNL     1     -10.649  17.586  68.424  1.00  0.00    -0.339 A  
HETATM   19  C   UNL     1      -9.433  18.883  66.925  1.00  0.00    -0.317 A  
HETATM   20  C   UNL     1      -9.491  17.444  69.180  1.00  0.00    -0.025 A  
HETATM   21  C   UNL     1      -8.278  17.947  68.721  1.00  0.00    -0.231 A  
HETATM   22  N   UNL     1     -10.636  18.362  67.323  1.00  0.00    -0.415 NA 
HETATM   23  C   UNL     1      -8.195  18.665  67.535  1.00  0.00    -0.253 A  
BRANCH  23  24
HETATM   24  N   UNL     1      -6.979  19.098  67.061  1.00  0.00    -0.199 NA 
HETATM   25  C   UNL     1      -6.160  18.255  66.165  1.00  0.00    -0.200 C  
HETATM   26  C   UNL     1      -5.979  18.944  64.793  1.00  0.00    -0.266 C  
HETATM   27  N   UNL     1      -5.422  20.305  64.894  1.00  0.00    -0.165 NA 
HETATM   28  C   UNL     1      -6.273  21.115  65.790  1.00  0.00    -0.174 C  
HETATM   29  H   UNL     1      -5.298  20.740  63.980  1.00  0.00     0.000 HD 
HETATM   30  C   UNL     1      -6.493  20.480  67.181  1.00  0.00    -0.246 C  
ENDBRANCH  23  24
ENDBRANCH  16  18
ENDBRANCH  10  16
BRANCH  15  31
HETATM   31  C   UNL     1     -10.202  12.583  67.017  1.00  0.00    -0.221 C  
HETATM   32  C   UNL     1     -11.137  13.083  65.900  1.00  0.00    -0.303 C  
HETATM   33  C   UNL     1      -9.099  13.646  67.116  1.00  0.00    -0.241 C  
HETATM   34  C   UNL     1     -10.192  13.783  64.935  1.00  0.00    -0.374 C  
HETATM   35  C   UNL     1      -9.166  14.465  65.829  1.00  0.00     0.163 C  
ENDBRANCH  15  31
ENDBRANCH   2   4
TORSDOF 5
ENDMDL
MODEL       64
REMARK 921   NORMALIZED FREE ENERGY PREDICTED BY IDOCK:   -5.74 KCAL/MOL
REMARK 922        TOTAL FREE ENERGY PREDICTED BY IDOCK:   -8.01 KCAL/MOL
REMARK 923 INTER-LIGAND FREE ENERGY PREDICTED BY IDOCK:   -7.95 KCAL/MOL
REMARK 924 INTRA-LIGAND FREE ENERGY PREDICTED BY IDOCK:   -0.06 KCAL/MOL
REMARK 927      BINDING AFFINITY PREDICTED BY RF-SCORE:    0.00 PKD
ROOT
HETATM    1  C   UNL     1      -8.281   2.180  68.777  1.00  0.00    -0.074 C  
HETATM    2  C   UNL     1      -7.830   3.505  69.333  1.00  0.00    -0.050 C  
HETATM    3  O   UNL     1      -6.627   3.686  69.532  1.00  0.00    -0.032 OA 
ENDROOT
BRANCH   2   4
HETATM    4  C   UNL     1      -8.839   4.606  69.566  1.00  0.00    -0.121 C  
HETATM    5  C   UNL     1      -9.731   4.536  70.576  1.00  0.00    -0.290 C  
HETATM    6  C   UNL     1      -9.949   3.369  71.520  1.00  0.00    -0.161 C  
HETATM    7  C   UNL     1     -10.589   5.715  70.820  1.00  0.00    -0.335 A  
HETATM    8  C   UNL     1     -11.583   5.734  71.766  1.00  0.00    -0.068 A  
HETATM    9  N   UNL     1     -12.336   6.803  72.030  1.00  0.00    -0.306 NA 
HETATM   10  C   UNL     1     -12.115   7.940  71.367  1.00  0.00    -0.307 A  
HETATM   11  N   UNL     1     -11.187   8.021  70.402  1.00  0.00    -0.258 NA 
HETATM   12  O   UNL     1      -8.367   5.697  67.529  1.00  0.00    -0.102 OA 
HETATM   13  C   UNL     1      -8.872   5.792  68.646  1.00  0.00    -0.110 C  
HETATM   14  C   UNL     1     -10.438   6.915  70.138  1.00  0.00    -0.209 A  
HETATM   15  N   UNL     1      -9.476   6.966  69.087  1.00  0.00    -0.142 N  
BRANCH  10  16
HETATM   16  N   UNL     1     -12.844   9.074  71.717  1.00  0.00    -0.350 NA 
HETATM   17  H   UNL     1     -13.661   8.922  72.307  1.00  0.00     0.000 HD 
BRANCH  16  18
HETATM   18  C   UNL     1     -12.581  10.399  71.350  1.00  0.00    -0.434 A  
HETATM   19  C   UNL     1     -13.136  12.650  71.520  1.00  0.00    -0.278 A  
HETATM   20  C   UNL     1     -11.686  10.736  70.341  1.00  0.00    -0.445 A  
HETATM   21  C   UNL     1     -11.616  12.040  69.861  1.00  0.00    -0.315 A  
HETATM   22  N   UNL     1     -13.265  11.368  71.987  1.00  0.00    -0.455 NA 
HETATM   23  C   UNL     1     -12.381  13.056  70.417  1.00  0.00    -0.277 A  
BRANCH  23  24
HETATM   24  N   UNL     1     -12.350  14.326  69.888  1.00  0.00    -0.340 NA 
HETATM   25  C   UNL     1     -12.469  15.520  70.750  1.00  0.00    -0.440 C  
HETATM   26  C   UNL     1     -11.184  16.375  70.668  1.00  0.00    -0.189 C  
HETATM   27  N   UNL     1     -10.824  16.752  69.290  1.00  0.00    -0.312 NA 
HETATM   28  C   UNL     1     -10.707  15.532  68.465  1.00  0.00    -0.259 C  
HETATM   29  H   UNL     1      -9.981  17.326  69.254  1.00  0.00     0.000 HD 
HETATM   30  C   UNL     1     -11.962  14.631  68.504  1.00  0.00    -0.263 C  
ENDBRANCH  23  24
ENDBRANCH  16  18
ENDBRANCH  10  16
BRANCH  15  31
HETATM   31  C   UNL     1      -9.418   8.188  68.267  1.00  0.00    -0.141 C  
HETATM   32  C   UNL     1      -8.014   8.736  67.948  1.00  0.00    -0.107 C  
HETATM   33  C   UNL     1     -10.102   8.029  66.903  1.00  0.00    -0.362 C  
HETATM   34  C   UNL     1      -8.246   9.608  66.723  1.00  0.00    -0.113 C  
HETATM   35  C   UNL     1      -9.291   8.858  65.910  1.00  0.00    -0.301 C  
ENDBRANCH  15  31
ENDBRANCH   2   4
TORSDOF 5
ENDMDL
MODEL       65
REMARK 921   NORMALIZED FREE ENERGY PREDICTED BY IDOCK:   -5.72 KCAL/MOL
REMARK 922        TOTAL FREE ENERGY PREDICTED BY IDOCK:   -7.99 KCAL/MOL
REMARK 923 INTER-LIGAND FREE ENERGY PREDICTED BY IDOCK:   -7.19 KCAL/MOL
REMARK 924 INTRA-LIGAND FREE ENERGY PREDICTED BY IDOCK:   -0.80 KCAL/MOL
REMARK 927      BINDING AFFINITY PREDICTED BY RF-SCORE:    0.00 PKD
ROOT
HETATM    1  C   UNL     1     -10.508  19.800  67.245  1.00  0.00    -0.579 C  
HETATM    2  C   UNL     1      -9.439  19.202  66.368  1.00  0.00    -0.354 C  
HETATM    3  O   UNL     1      -8.888  19.921  65.531  1.00  0.00    -0.233 OA 
ENDROOT
BRANCH   2   4
HETATM    4  C   UNL     1      -9.010  17.768  66.575  1.00  0.00    -0.280 C  
HETATM    5  C   UNL     1      -7.874  17.466  67.238  1.00  0.00    -0.218 C  
HETATM    6  C   UNL     1      -6.833  18.440  67.753  1.00  0.00    -0.208 C  
HETATM    7  C   UNL     1      -7.599  16.040  67.518  1.00  0.00    -0.179 A  
HETATM    8  C   UNL     1      -6.442  15.606  68.115  1.00  0.00    -0.129 A  
HETATM    9  N   UNL     1      -6.197  14.329  68.416  1.00  0.00    -0.094 NA 
HETATM   10  C   UNL     1      -7.124  13.404  68.154  1.00  0.00    -0.116 A  
HETATM   11  N   UNL     1      -8.277  13.719  67.546  1.00  0.00    -0.176 NA 
HETATM   12  O   UNL     1     -10.633  16.895  65.103  1.00  0.00    -0.679 OA 
HETATM   13  C   UNL     1      -9.846  16.653  66.016  1.00  0.00    -0.309 C  
HETATM   14  C   UNL     1      -8.503  15.026  67.235  1.00  0.00    -0.198 A  
HETATM   15  N   UNL     1      -9.703  15.376  66.550  1.00  0.00    -0.256 N  
BRANCH  10  16
HETATM   16  N   UNL     1      -6.895  12.091  68.557  1.00  0.00    -0.072 NA 
HETATM   17  H   UNL     1      -6.608  11.960  69.527  1.00  0.00     0.000 HD 
BRANCH  16  18
HETATM   18  C   UNL     1      -7.014  10.932  67.782  1.00  0.00    -0.077 A  
HETATM   19  C   UNL     1      -6.513   9.808  65.809  1.00  0.00    -0.083 A  
HETATM   20  C   UNL     1      -7.878   9.894  68.109  1.00  0.00    -0.085 A  
HETATM   21  C   UNL     1      -8.127   8.866  67.205  1.00  0.00    -0.103 A  
HETATM   22  N   UNL     1      -6.279  10.860  66.655  1.00  0.00    -0.100 NA 
HETATM   23  C   UNL     1      -7.470   8.805  65.982  1.00  0.00    -0.089 A  
BRANCH  23  24
HETATM   24  N   UNL     1      -7.776   7.820  65.072  1.00  0.00    -0.100 NA 
HETATM   25  C   UNL     1      -7.418   7.956  63.645  1.00  0.00    -0.118 C  
HETATM   26  C   UNL     1      -6.425   6.847  63.229  1.00  0.00    -0.043 C  
HETATM   27  N   UNL     1      -6.915   5.488  63.524  1.00  0.00    -0.041 NA 
HETATM   28  C   UNL     1      -7.252   5.392  64.959  1.00  0.00    -0.066 C  
HETATM   29  H   UNL     1      -6.254   4.768  63.232  1.00  0.00     0.000 HD 
HETATM   30  C   UNL     1      -8.243   6.476  65.440  1.00  0.00    -0.135 C  
ENDBRANCH  23  24
ENDBRANCH  16  18
ENDBRANCH  10  16
BRANCH  15  31
HETATM   31  C   UNL     1     -10.592  14.284  66.118  1.00  0.00    -0.293 C  
HETATM   32  C   UNL     1     -12.093  14.461  66.414  1.00  0.00    -0.390 C  
HETATM   33  C   UNL     1     -10.514  14.006  64.611  1.00  0.00    -0.398 C  
HETATM   34  C   UNL     1     -12.761  13.509  65.433  1.00  0.00    -0.495 C  
HETATM   35  C   UNL     1     -11.920  13.609  64.168  1.00  0.00    -0.488 C  
ENDBRANCH  15  31
ENDBRANCH   2   4
TORSDOF 5
ENDMDL
MODEL       66
REMARK 921   NORMALIZED FREE ENERGY PREDICTED BY IDOCK:   -5.69 KCAL/MOL
REMARK 922        TOTAL FREE ENERGY PREDICTED BY IDOCK:   -7.94 KCAL/MOL
REMARK 923 INTER-LIGAND FREE ENERGY PREDICTED BY IDOCK:   -7.56 KCAL/MOL
REMARK 924 INTRA-LIGAND FREE ENERGY PREDICTED BY IDOCK:   -0.38 KCAL/MOL
REMARK 927      BINDING AFFINITY PREDICTED BY RF-SCORE:    0.00 PKD
ROOT
HETATM    1  C   UNL     1      -8.600   8.720  62.558  1.00  0.00    -0.171 C  
HETATM    2  C   UNL     1      -8.219   8.155  63.901  1.00  0.00    -0.064 C  
HETATM    3  O   UNL     1      -7.920   6.961  63.979  1.00  0.00    -0.119 OA 
ENDROOT
BRANCH   2   4
HETATM    4  C   UNL     1      -8.137   9.065  65.105  1.00  0.00    -0.130 C  
HETATM    5  C   UNL     1      -7.032   9.800  65.352  1.00  0.00    -0.105 C  
HETATM    6  C   UNL     1      -5.721   9.760  64.592  1.00  0.00    -0.086 C  
HETATM    7  C   UNL     1      -7.085  10.767  66.470  1.00  0.00    -0.138 A  
HETATM    8  C   UNL     1      -6.004  11.513  66.864  1.00  0.00    -0.136 A  
HETATM    9  N   UNL     1      -6.046  12.422  67.840  1.00  0.00    -0.080 NA 
HETATM   10  C   UNL     1      -7.200  12.656  68.469  1.00  0.00    -0.113 A  
HETATM   11  N   UNL     1      -8.310  11.962  68.179  1.00  0.00    -0.154 NA 
HETATM   12  O   UNL     1     -10.110   8.222  66.085  1.00  0.00    -0.149 OA 
HETATM   13  C   UNL     1      -9.292   9.140  66.062  1.00  0.00    -0.238 C  
HETATM   14  C   UNL     1      -8.244  11.028  67.189  1.00  0.00    -0.133 A  
HETATM   15  N   UNL     1      -9.400  10.249  66.895  1.00  0.00    -0.156 N  
BRANCH  10  16
HETATM   16  N   UNL     1      -7.253  13.672  69.420  1.00  0.00    -0.317 NA 
HETATM   17  H   UNL     1      -6.945  13.427  70.361  1.00  0.00     0.000 HD 
BRANCH  16  18
HETATM   18  C   UNL     1      -7.680  14.991  69.229  1.00  0.00    -0.194 A  
HETATM   19  C   UNL     1      -9.439  16.477  68.909  1.00  0.00    -0.260 A  
HETATM   20  C   UNL     1      -6.801  16.037  68.976  1.00  0.00    -0.159 A  
HETATM   21  C   UNL     1      -7.276  17.283  68.579  1.00  0.00    -0.224 A  
HETATM   22  N   UNL     1      -9.006  15.225  69.257  1.00  0.00    -0.242 NA 
HETATM   23  C   UNL     1      -8.638  17.543  68.491  1.00  0.00    -0.276 A  
BRANCH  23  24
HETATM   24  N   UNL     1      -9.091  18.758  68.032  1.00  0.00    -0.291 NA 
HETATM   25  C   UNL     1      -8.151  19.820  67.615  1.00  0.00    -0.296 C  
HETATM   26  C   UNL     1      -8.337  20.146  66.116  1.00  0.00    -0.196 C  
HETATM   27  N   UNL     1      -9.725  20.500  65.766  1.00  0.00    -0.569 NA 
HETATM   28  C   UNL     1     -10.628  19.411  66.191  1.00  0.00    -0.477 C  
HETATM   29  H   UNL     1      -9.828  20.724  64.776  1.00  0.00     0.000 HD 
HETATM   30  C   UNL     1     -10.491  19.036  67.684  1.00  0.00    -0.440 C  
ENDBRANCH  23  24
ENDBRANCH  16  18
ENDBRANCH  10  16
BRANCH  15  31
HETATM   31  C   UNL     1     -10.583  10.422  67.755  1.00  0.00    -0.250 C  
HETATM   32  C   UNL     1     -10.347  10.332  69.275  1.00  0.00    -0.250 C  
HETATM   33  C   UNL     1     -11.289  11.768  67.543  1.00  0.00    -0.377 C  
HETATM   34  C   UNL     1     -11.554  11.048  69.863  1.00  0.00    -0.416 C  
HETATM   35  C   UNL     1     -11.818  12.203  68.908  1.00  0.00    -0.358 C  
ENDBRANCH  15  31
ENDBRANCH   2   4
TORSDOF 5
ENDMDL
MODEL       67
REMARK 921   NORMALIZED FREE ENERGY PREDICTED BY IDOCK:   -5.68 KCAL/MOL
REMARK 922        TOTAL FREE ENERGY PREDICTED BY IDOCK:   -7.93 KCAL/MOL
REMARK 923 INTER-LIGAND FREE ENERGY PREDICTED BY IDOCK:   -7.24 KCAL/MOL
REMARK 924 INTRA-LIGAND FREE ENERGY PREDICTED BY IDOCK:   -0.69 KCAL/MOL
REMARK 927      BINDING AFFINITY PREDICTED BY RF-SCORE:    0.00 PKD
ROOT
HETATM    1  C   UNL     1     -11.746  14.669  67.212  1.00  0.00    -0.406 C  
HETATM    2  C   UNL     1     -12.289  13.638  66.257  1.00  0.00    -0.412 C  
HETATM    3  O   UNL     1     -13.315  13.897  65.624  1.00  0.00    -0.620 OA 
ENDROOT
BRANCH   2   4
HETATM    4  C   UNL     1     -11.536  12.346  66.036  1.00  0.00    -0.431 C  
HETATM    5  C   UNL     1     -11.006  12.042  64.833  1.00  0.00    -0.356 C  
HETATM    6  C   UNL     1     -11.162  12.826  63.544  1.00  0.00    -0.429 C  
HETATM    7  C   UNL     1     -10.168  10.828  64.737  1.00  0.00    -0.403 A  
HETATM    8  C   UNL     1      -9.640  10.377  63.553  1.00  0.00    -0.310 A  
HETATM    9  N   UNL     1      -8.844   9.310  63.455  1.00  0.00    -0.174 NA 
HETATM   10  C   UNL     1      -8.507   8.639  64.560  1.00  0.00    -0.110 A  
HETATM   11  N   UNL     1      -8.991   8.981  65.763  1.00  0.00    -0.184 NA 
HETATM   12  O   UNL     1     -12.171  11.426  68.113  1.00  0.00    -0.602 OA 
HETATM   13  C   UNL     1     -11.390  11.367  67.165  1.00  0.00    -0.255 C  
HETATM   14  C   UNL     1      -9.813  10.065  65.841  1.00  0.00    -0.264 A  
HETATM   15  N   UNL     1     -10.373  10.419  67.103  1.00  0.00    -0.225 N  
BRANCH  10  16
HETATM   16  N   UNL     1      -7.603   7.586  64.456  1.00  0.00    -0.102 NA 
HETATM   17  H   UNL     1      -6.924   7.645  63.697  1.00  0.00     0.000 HD 
BRANCH  16  18
HETATM   18  C   UNL     1      -7.520   6.455  65.277  1.00  0.00    -0.081 A  
HETATM   19  C   UNL     1      -8.438   4.431  65.959  1.00  0.00    -0.113 A  
HETATM   20  C   UNL     1      -6.601   6.343  66.313  1.00  0.00    -0.048 A  
HETATM   21  C   UNL     1      -6.694   5.307  67.236  1.00  0.00    -0.055 A  
HETATM   22  N   UNL     1      -8.404   5.463  65.059  1.00  0.00    -0.140 NA 
HETATM   23  C   UNL     1      -7.659   4.315  67.113  1.00  0.00    -0.077 A  
BRANCH  23  24
HETATM   24  N   UNL     1      -7.781   3.334  68.071  1.00  0.00    -0.063 NA 
HETATM   25  C   UNL     1      -7.821   3.667  69.510  1.00  0.00    -0.051 C  
HETATM   26  C   UNL     1      -9.174   3.244  70.124  1.00  0.00    -0.156 C  
HETATM   27  N   UNL     1      -9.495   1.823  69.901  1.00  0.00    -0.091 NA 
HETATM   28  C   UNL     1      -9.453   1.535  68.453  1.00  0.00    -0.186 C  
HETATM   29  H   UNL     1     -10.385   1.557  70.323  1.00  0.00     0.000 HD 
HETATM   30  C   UNL     1      -8.123   1.935  67.776  1.00  0.00    -0.060 C  
ENDBRANCH  23  24
ENDBRANCH  16  18
ENDBRANCH  10  16
BRANCH  15  31
HETATM   31  C   UNL     1     -10.116   9.525  68.244  1.00  0.00    -0.183 C  
HETATM   32  C   UNL     1     -10.297   8.016  67.990  1.00  0.00    -0.262 C  
HETATM   33  C   UNL     1      -8.696   9.664  68.810  1.00  0.00    -0.126 C  
HETATM   34  C   UNL     1      -9.486   7.371  69.104  1.00  0.00    -0.149 C  
HETATM   35  C   UNL     1      -8.269   8.271  69.264  1.00  0.00    -0.118 C  
ENDBRANCH  15  31
ENDBRANCH   2   4
TORSDOF 5
ENDMDL
MODEL       68
REMARK 921   NORMALIZED FREE ENERGY PREDICTED BY IDOCK:   -5.68 KCAL/MOL
REMARK 922        TOTAL FREE ENERGY PREDICTED BY IDOCK:   -7.92 KCAL/MOL
REMARK 923 INTER-LIGAND FREE ENERGY PREDICTED BY IDOCK:   -7.37 KCAL/MOL
REMARK 924 INTRA-LIGAND FREE ENERGY PREDICTED BY IDOCK:   -0.56 KCAL/MOL
REMARK 927      BINDING AFFINITY PREDICTED BY RF-SCORE:    0.00 PKD
ROOT
HETATM    1  C   UNL     1      -7.512   3.781  67.688  1.00  0.00    -0.067 C  
HETATM    2  C   UNL     1      -6.755   5.074  67.536  1.00  0.00    -0.055 C  
HETATM    3  O   UNL     1      -5.534   5.070  67.706  1.00  0.00    -0.011 OA 
ENDROOT
BRANCH   2   4
HETATM    4  C   UNL     1      -7.484   6.327  67.109  1.00  0.00    -0.084 C  
HETATM    5  C   UNL     1      -7.393   6.794  65.846  1.00  0.00    -0.075 C  
HETATM    6  C   UNL     1      -6.510   6.256  64.737  1.00  0.00    -0.034 C  
HETATM    7  C   UNL     1      -8.245   7.944  65.474  1.00  0.00    -0.140 A  
HETATM    8  C   UNL     1      -8.184   8.552  64.246  1.00  0.00    -0.145 A  
HETATM    9  N   UNL     1      -8.976   9.561  63.878  1.00  0.00    -0.215 NA 
HETATM   10  C   UNL     1      -9.907  10.007  64.725  1.00  0.00    -0.254 A  
HETATM   11  N   UNL     1     -10.032   9.499  65.960  1.00  0.00    -0.289 NA 
HETATM   12  O   UNL     1      -8.095   6.921  69.309  1.00  0.00    -0.117 OA 
HETATM   13  C   UNL     1      -8.308   7.086  68.109  1.00  0.00    -0.123 C  
HETATM   14  C   UNL     1      -9.204   8.480  66.322  1.00  0.00    -0.207 A  
HETATM   15  N   UNL     1      -9.291   7.955  67.645  1.00  0.00    -0.142 N  
BRANCH  10  16
HETATM   16  N   UNL     1     -10.788  10.995  64.295  1.00  0.00    -0.376 NA 
HETATM   17  H   UNL     1     -11.310  10.796  63.442  1.00  0.00     0.000 HD 
BRANCH  16  18
HETATM   18  C   UNL     1     -11.038  12.231  64.902  1.00  0.00    -0.311 A  
HETATM   19  C   UNL     1     -10.789  14.543  64.867  1.00  0.00    -0.421 A  
HETATM   20  C   UNL     1     -11.573  12.347  66.179  1.00  0.00    -0.452 A  
HETATM   21  C   UNL     1     -11.603  13.578  66.827  1.00  0.00    -0.397 A  
HETATM   22  N   UNL     1     -10.702  13.340  64.216  1.00  0.00    -0.409 NA 
HETATM   23  C   UNL     1     -11.167  14.737  66.197  1.00  0.00    -0.337 A  
BRANCH  23  24
HETATM   24  N   UNL     1     -11.140  15.934  66.874  1.00  0.00    -0.163 NA 
HETATM   25  C   UNL     1     -11.610  16.036  68.272  1.00  0.00    -0.232 C  
HETATM   26  C   UNL     1     -10.450  16.460  69.201  1.00  0.00    -0.303 C  
HETATM   27  N   UNL     1      -9.788  17.706  68.773  1.00  0.00    -0.335 NA 
HETATM   28  C   UNL     1      -9.327  17.558  67.378  1.00  0.00    -0.249 C  
HETATM   29  H   UNL     1      -9.034  17.978  69.404  1.00  0.00     0.000 HD 
HETATM   30  C   UNL     1     -10.442  17.135  66.395  1.00  0.00    -0.255 C  
ENDBRANCH  23  24
ENDBRANCH  16  18
ENDBRANCH  10  16
BRANCH  15  31
HETATM   31  C   UNL     1     -10.204   8.621  68.590  1.00  0.00    -0.194 C  
HETATM   32  C   UNL     1     -10.933   7.712  69.598  1.00  0.00    -0.145 C  
HETATM   33  C   UNL     1      -9.509   9.687  69.447  1.00  0.00    -0.201 C  
HETATM   34  C   UNL     1     -11.339   8.671  70.707  1.00  0.00    -0.299 C  
HETATM   35  C   UNL     1     -10.173   9.643  70.821  1.00  0.00    -0.330 C  
ENDBRANCH  15  31
ENDBRANCH   2   4
TORSDOF 5
ENDMDL
MODEL       69
REMARK 921   NORMALIZED FREE ENERGY PREDICTED BY IDOCK:   -5.67 KCAL/MOL
REMARK 922        TOTAL FREE ENERGY PREDICTED BY IDOCK:   -7.91 KCAL/MOL
REMARK 923 INTER-LIGAND FREE ENERGY PREDICTED BY IDOCK:   -6.98 KCAL/MOL
REMARK 924 INTRA-LIGAND FREE ENERGY PREDICTED BY IDOCK:   -0.93 KCAL/MOL
REMARK 927      BINDING AFFINITY PREDICTED BY RF-SCORE:    0.00 PKD
ROOT
HETATM    1  C   UNL     1     -11.913  15.131  72.579  1.00  0.00    -0.492 C  
HETATM    2  C   UNL     1     -12.730  14.527  71.466  1.00  0.00    -0.339 C  
HETATM    3  O   UNL     1     -13.948  14.725  71.451  1.00  0.00    -0.407 OA 
ENDROOT
BRANCH   2   4
HETATM    4  C   UNL     1     -12.044  13.762  70.358  1.00  0.00    -0.421 C  
HETATM    5  C   UNL     1     -11.509  14.399  69.295  1.00  0.00    -0.323 C  
HETATM    6  C   UNL     1     -11.597  15.880  68.981  1.00  0.00    -0.392 C  
HETATM    7  C   UNL     1     -10.736  13.592  68.327  1.00  0.00    -0.266 A  
HETATM    8  C   UNL     1     -10.210  14.113  67.172  1.00  0.00    -0.258 A  
HETATM    9  N   UNL     1      -9.473  13.411  66.310  1.00  0.00    -0.227 NA 
HETATM   10  C   UNL     1      -9.195  12.132  66.575  1.00  0.00    -0.216 A  
HETATM   11  N   UNL     1      -9.683  11.519  67.663  1.00  0.00    -0.172 NA 
HETATM   12  O   UNL     1     -12.769  11.657  71.136  1.00  0.00    -0.381 OA 
HETATM   13  C   UNL     1     -11.975  12.264  70.420  1.00  0.00    -0.263 C  
HETATM   14  C   UNL     1     -10.445  12.249  68.524  1.00  0.00    -0.232 A  
HETATM   15  N   UNL     1     -11.010  11.606  69.664  1.00  0.00    -0.107 N  
BRANCH  10  16
HETATM   16  N   UNL     1      -8.347  11.437  65.716  1.00  0.00    -0.376 NA 
HETATM   17  H   UNL     1      -7.934  11.975  64.954  1.00  0.00     0.000 HD 
BRANCH  16  18
HETATM   18  C   UNL     1      -7.998  10.083  65.780  1.00  0.00    -0.126 A  
HETATM   19  C   UNL     1      -8.498   7.880  65.231  1.00  0.00    -0.104 A  
HETATM   20  C   UNL     1      -6.975   9.608  66.591  1.00  0.00    -0.085 A  
HETATM   21  C   UNL     1      -6.804   8.242  66.791  1.00  0.00    -0.069 A  
HETATM   22  N   UNL     1      -8.725   9.218  65.046  1.00  0.00    -0.180 NA 
HETATM   23  C   UNL     1      -7.600   7.311  66.137  1.00  0.00    -0.088 A  
BRANCH  23  24
HETATM   24  N   UNL     1      -7.463   5.967  66.396  1.00  0.00    -0.082 NA 
HETATM   25  C   UNL     1      -7.274   5.467  67.774  1.00  0.00    -0.072 C  
HETATM   26  C   UNL     1      -8.455   4.556  68.184  1.00  0.00    -0.094 C  
HETATM   27  N   UNL     1      -8.684   3.444  67.244  1.00  0.00    -0.109 NA 
HETATM   28  C   UNL     1      -8.876   3.987  65.883  1.00  0.00    -0.123 C  
HETATM   29  H   UNL     1      -9.458   2.846  67.535  1.00  0.00     0.000 HD 
HETATM   30  C   UNL     1      -7.727   4.908  65.413  1.00  0.00    -0.086 C  
ENDBRANCH  23  24
ENDBRANCH  16  18
ENDBRANCH  10  16
BRANCH  15  31
HETATM   31  C   UNL     1     -10.825  10.151  69.794  1.00  0.00    -0.279 C  
HETATM   32  C   UNL     1     -10.818   9.339  68.485  1.00  0.00    -0.119 C  
HETATM   33  C   UNL     1      -9.517   9.772  70.502  1.00  0.00    -0.140 C  
HETATM   34  C   UNL     1     -10.108   8.050  68.872  1.00  0.00    -0.209 C  
HETATM   35  C   UNL     1      -9.020   8.488  69.842  1.00  0.00    -0.145 C  
ENDBRANCH  15  31
ENDBRANCH   2   4
TORSDOF 5
ENDMDL
MODEL       70
REMARK 921   NORMALIZED FREE ENERGY PREDICTED BY IDOCK:   -5.66 KCAL/MOL
REMARK 922        TOTAL FREE ENERGY PREDICTED BY IDOCK:   -7.91 KCAL/MOL
REMARK 923 INTER-LIGAND FREE ENERGY PREDICTED BY IDOCK:   -7.41 KCAL/MOL
REMARK 924 INTRA-LIGAND FREE ENERGY PREDICTED BY IDOCK:   -0.50 KCAL/MOL
REMARK 927      BINDING AFFINITY PREDICTED BY RF-SCORE:    0.00 PKD
ROOT
HETATM    1  C   UNL     1      -9.773   4.489  67.759  1.00  0.00    -0.199 C  
HETATM    2  C   UNL     1     -10.195   5.869  67.328  1.00  0.00    -0.200 C  
HETATM    3  O   UNL     1     -11.079   5.979  66.476  1.00  0.00    -0.209 OA 
ENDROOT
BRANCH   2   4
HETATM    4  C   UNL     1      -9.588   7.084  67.992  1.00  0.00    -0.133 C  
HETATM    5  C   UNL     1      -8.402   7.584  67.587  1.00  0.00    -0.118 C  
HETATM    6  C   UNL     1      -7.470   6.990  66.548  1.00  0.00    -0.081 C  
HETATM    7  C   UNL     1      -7.946   8.852  68.195  1.00  0.00    -0.102 A  
HETATM    8  C   UNL     1      -6.726   9.416  67.919  1.00  0.00    -0.067 A  
HETATM    9  N   UNL     1      -6.317  10.582  68.423  1.00  0.00    -0.054 NA 
HETATM   10  C   UNL     1      -7.133  11.272  69.224  1.00  0.00    -0.112 A  
HETATM   11  N   UNL     1      -8.336  10.797  69.578  1.00  0.00    -0.011 NA 
HETATM   12  O   UNL     1     -11.142   7.096  69.766  1.00  0.00    -0.254 OA 
HETATM   13  C   UNL     1     -10.301   7.738  69.140  1.00  0.00    -0.215 C  
HETATM   14  C   UNL     1      -8.730   9.598  69.064  1.00  0.00    -0.142 A  
HETATM   15  N   UNL     1      -9.986   9.055  69.462  1.00  0.00    -0.186 N  
BRANCH  10  16
HETATM   16  N   UNL     1      -6.733  12.530  69.668  1.00  0.00    -0.338 NA 
HETATM   17  H   UNL     1      -6.187  12.554  70.529  1.00  0.00     0.000 HD 
BRANCH  16  18
HETATM   18  C   UNL     1      -6.995  13.765  69.064  1.00  0.00    -0.104 A  
HETATM   19  C   UNL     1      -7.179  16.074  69.274  1.00  0.00    -0.226 A  
HETATM   20  C   UNL     1      -7.509  13.880  67.779  1.00  0.00    -0.174 A  
HETATM   21  C   UNL     1      -7.958  15.107  67.300  1.00  0.00    -0.234 A  
HETATM   22  N   UNL     1      -6.770  14.874  69.795  1.00  0.00    -0.170 NA 
HETATM   23  C   UNL     1      -7.843  16.264  68.060  1.00  0.00    -0.149 A  
BRANCH  23  24
HETATM   24  N   UNL     1      -8.352  17.457  67.601  1.00  0.00    -0.209 NA 
HETATM   25  C   UNL     1      -9.240  17.509  66.420  1.00  0.00    -0.245 C  
HETATM   26  C   UNL     1     -10.633  18.046  66.816  1.00  0.00    -0.270 C  
HETATM   27  N   UNL     1     -10.581  19.353  67.497  1.00  0.00    -0.460 NA 
HETATM   28  C   UNL     1      -9.693  19.255  68.673  1.00  0.00    -0.429 C  
HETATM   29  H   UNL     1     -11.509  19.699  67.740  1.00  0.00     0.000 HD 
HETATM   30  C   UNL     1      -8.279  18.723  68.343  1.00  0.00    -0.341 C  
ENDBRANCH  23  24
ENDBRANCH  16  18
ENDBRANCH  10  16
BRANCH  15  31
HETATM   31  C   UNL     1     -10.749   9.773  70.496  1.00  0.00    -0.317 C  
HETATM   32  C   UNL     1     -12.103  10.368  70.064  1.00  0.00    -0.297 C  
HETATM   33  C   UNL     1     -11.072   8.902  71.718  1.00  0.00    -0.433 C  
HETATM   34  C   UNL     1     -12.846  10.547  71.379  1.00  0.00    -0.551 C  
HETATM   35  C   UNL     1     -12.449   9.336  72.212  1.00  0.00    -0.377 C  
ENDBRANCH  15  31
ENDBRANCH   2   4
TORSDOF 5
ENDMDL
MODEL       71
REMARK 921   NORMALIZED FREE ENERGY PREDICTED BY IDOCK:   -5.65 KCAL/MOL
REMARK 922        TOTAL FREE ENERGY PREDICTED BY IDOCK:   -7.89 KCAL/MOL
REMARK 923 INTER-LIGAND FREE ENERGY PREDICTED BY IDOCK:   -7.44 KCAL/MOL
REMARK 924 INTRA-LIGAND FREE ENERGY PREDICTED BY IDOCK:   -0.45 KCAL/MOL
REMARK 927      BINDING AFFINITY PREDICTED BY RF-SCORE:    0.00 PKD
ROOT
HETATM    1  C   UNL     1      -6.852  20.623  67.135  1.00  0.00    -0.363 C  
HETATM    2  C   UNL     1      -6.886  19.927  68.470  1.00  0.00    -0.308 C  
HETATM    3  O   UNL     1      -6.360  20.479  69.440  1.00  0.00    -0.295 OA 
ENDROOT
BRANCH   2   4
HETATM    4  C   UNL     1      -7.620  18.614  68.616  1.00  0.00    -0.341 C  
HETATM    5  C   UNL     1      -8.969  18.562  68.607  1.00  0.00    -0.323 C  
HETATM    6  C   UNL     1      -9.926  19.737  68.574  1.00  0.00    -0.538 C  
HETATM    7  C   UNL     1      -9.605  17.228  68.616  1.00  0.00    -0.284 A  
HETATM    8  C   UNL     1     -10.964  17.049  68.684  1.00  0.00    -0.217 A  
HETATM    9  N   UNL     1     -11.558  15.854  68.647  1.00  0.00    -0.395 NA 
HETATM   10  C   UNL     1     -10.812  14.755  68.511  1.00  0.00    -0.252 A  
HETATM   11  N   UNL     1      -9.474  14.818  68.462  1.00  0.00    -0.208 NA 
HETATM   12  O   UNL     1      -5.681  17.404  69.199  1.00  0.00    -0.173 OA 
HETATM   13  C   UNL     1      -6.843  17.343  68.799  1.00  0.00    -0.228 C  
HETATM   14  C   UNL     1      -8.885  16.045  68.516  1.00  0.00    -0.199 A  
HETATM   15  N   UNL     1      -7.462  16.131  68.509  1.00  0.00    -0.159 N  
BRANCH  10  16
HETATM   16  N   UNL     1     -11.449  13.524  68.379  1.00  0.00    -0.289 NA 
HETATM   17  H   UNL     1     -12.468  13.539  68.388  1.00  0.00     0.000 HD 
BRANCH  16  18
HETATM   18  C   UNL     1     -10.847  12.269  68.237  1.00  0.00    -0.225 A  
HETATM   19  C   UNL     1     -10.190  10.534  66.835  1.00  0.00    -0.229 A  
HETATM   20  C   UNL     1     -10.517  11.465  69.322  1.00  0.00    -0.104 A  
HETATM   21  C   UNL     1     -10.125  10.144  69.133  1.00  0.00    -0.226 A  
HETATM   22  N   UNL     1     -10.623  11.825  66.985  1.00  0.00    -0.223 NA 
HETATM   23  C   UNL     1      -9.982   9.607  67.860  1.00  0.00    -0.166 A  
BRANCH  23  24
HETATM   24  N   UNL     1      -9.658   8.281  67.691  1.00  0.00    -0.148 NA 
HETATM   25  C   UNL     1     -10.594   7.207  68.083  1.00  0.00    -0.192 C  
HETATM   26  C   UNL     1     -11.015   6.381  66.846  1.00  0.00    -0.341 C  
HETATM   27  N   UNL     1      -9.871   5.837  66.093  1.00  0.00    -0.332 NA 
HETATM   28  C   UNL     1      -8.966   6.941  65.714  1.00  0.00    -0.009 C  
HETATM   29  H   UNL     1     -10.166   5.284  65.288  1.00  0.00     0.000 HD 
HETATM   30  C   UNL     1      -8.507   7.808  66.909  1.00  0.00    -0.125 C  
ENDBRANCH  23  24
ENDBRANCH  16  18
ENDBRANCH  10  16
BRANCH  15  31
HETATM   31  C   UNL     1      -6.698  14.873  68.553  1.00  0.00    -0.092 C  
HETATM   32  C   UNL     1      -6.657  14.140  69.908  1.00  0.00    -0.082 C  
HETATM   33  C   UNL     1      -7.204  13.827  67.551  1.00  0.00    -0.173 C  
HETATM   34  C   UNL     1      -6.292  12.713  69.526  1.00  0.00    -0.111 C  
HETATM   35  C   UNL     1      -7.031  12.465  68.218  1.00  0.00    -0.091 C  
ENDBRANCH  15  31
ENDBRANCH   2   4
TORSDOF 5
ENDMDL
MODEL       72
REMARK 921   NORMALIZED FREE ENERGY PREDICTED BY IDOCK:   -5.64 KCAL/MOL
REMARK 922        TOTAL FREE ENERGY PREDICTED BY IDOCK:   -7.87 KCAL/MOL
REMARK 923 INTER-LIGAND FREE ENERGY PREDICTED BY IDOCK:   -7.60 KCAL/MOL
REMARK 924 INTRA-LIGAND FREE ENERGY PREDICTED BY IDOCK:   -0.27 KCAL/MOL
REMARK 927      BINDING AFFINITY PREDICTED BY RF-SCORE:    0.00 PKD
ROOT
HETATM    1  C   UNL     1      -7.032   2.740  68.177  1.00  0.00    -0.048 C  
HETATM    2  C   UNL     1      -8.488   3.079  67.991  1.00  0.00    -0.083 C  
HETATM    3  O   UNL     1      -9.287   2.166  67.773  1.00  0.00    -0.181 OA 
ENDROOT
BRANCH   2   4
HETATM    4  C   UNL     1      -8.953   4.509  68.147  1.00  0.00    -0.140 C  
HETATM    5  C   UNL     1      -8.949   5.364  67.103  1.00  0.00    -0.112 C  
HETATM    6  C   UNL     1      -8.403   5.102  65.712  1.00  0.00    -0.120 C  
HETATM    7  C   UNL     1      -9.548   6.700  67.305  1.00  0.00    -0.157 A  
HETATM    8  C   UNL     1      -9.534   7.679  66.343  1.00  0.00    -0.161 A  
HETATM    9  N   UNL     1     -10.109   8.874  66.492  1.00  0.00    -0.292 NA 
HETATM   10  C   UNL     1     -10.764   9.150  67.623  1.00  0.00    -0.189 A  
HETATM   11  N   UNL     1     -10.814   8.273  68.637  1.00  0.00    -0.010 NA 
HETATM   12  O   UNL     1      -9.056   4.394  70.500  1.00  0.00    -0.099 OA 
HETATM   13  C   UNL     1      -9.407   5.002  69.491  1.00  0.00    -0.128 C  
HETATM   14  C   UNL     1     -10.208   7.064  68.471  1.00  0.00    -0.172 A  
HETATM   15  N   UNL     1     -10.212   6.135  69.551  1.00  0.00    -0.183 N  
BRANCH  10  16
HETATM   16  N   UNL     1     -11.439  10.363  67.729  1.00  0.00    -0.633 NA 
HETATM   17  H   UNL     1     -12.397  10.319  68.074  1.00  0.00     0.000 HD 
BRANCH  16  18
HETATM   18  C   UNL     1     -10.950  11.636  67.415  1.00  0.00    -0.261 A  
HETATM   19  C   UNL     1      -9.559  13.416  67.966  1.00  0.00    -0.219 A  
HETATM   20  C   UNL     1     -11.497  12.425  66.411  1.00  0.00    -0.427 A  
HETATM   21  C   UNL     1     -11.128  13.760  66.276  1.00  0.00    -0.302 A  
HETATM   22  N   UNL     1      -9.931  12.112  68.157  1.00  0.00    -0.197 NA 
HETATM   23  C   UNL     1     -10.155  14.326  67.090  1.00  0.00    -0.254 A  
BRANCH  23  24
HETATM   24  N   UNL     1      -9.850  15.664  66.989  1.00  0.00    -0.230 NA 
HETATM   25  C   UNL     1     -10.604  16.683  67.750  1.00  0.00    -0.342 C  
HETATM   26  C   UNL     1      -9.671  17.417  68.739  1.00  0.00    -0.282 C  
HETATM   27  N   UNL     1      -8.487  18.009  68.092  1.00  0.00    -0.262 NA 
HETATM   28  C   UNL     1      -7.758  16.958  67.352  1.00  0.00    -0.171 C  
HETATM   29  H   UNL     1      -7.888  18.501  68.756  1.00  0.00     0.000 HD 
HETATM   30  C   UNL     1      -8.637  16.184  66.343  1.00  0.00    -0.330 C  
ENDBRANCH  23  24
ENDBRANCH  16  18
ENDBRANCH  10  16
BRANCH  15  31
HETATM   31  C   UNL     1     -10.782   6.576  70.836  1.00  0.00    -0.242 C  
HETATM   32  C   UNL     1     -10.153   7.830  71.473  1.00  0.00    -0.212 C  
HETATM   33  C   UNL     1     -12.283   6.885  70.753  1.00  0.00    -0.364 C  
HETATM   34  C   UNL     1     -11.231   8.320  72.427  1.00  0.00    -0.451 C  
HETATM   35  C   UNL     1     -12.540   8.058  71.695  1.00  0.00    -0.346 C  
ENDBRANCH  15  31
ENDBRANCH   2   4
TORSDOF 5
ENDMDL
MODEL       73
REMARK 921   NORMALIZED FREE ENERGY PREDICTED BY IDOCK:   -5.59 KCAL/MOL
REMARK 922        TOTAL FREE ENERGY PREDICTED BY IDOCK:   -7.82 KCAL/MOL
REMARK 923 INTER-LIGAND FREE ENERGY PREDICTED BY IDOCK:   -7.29 KCAL/MOL
REMARK 924 INTRA-LIGAND FREE ENERGY PREDICTED BY IDOCK:   -0.52 KCAL/MOL
REMARK 927      BINDING AFFINITY PREDICTED BY RF-SCORE:    0.00 PKD
ROOT
HETATM    1  C   UNL     1      -9.895  19.444  68.826  1.00  0.00    -0.530 C  
HETATM    2  C   UNL     1      -8.898  18.634  68.040  1.00  0.00    -0.306 C  
HETATM    3  O   UNL     1      -7.765  19.091  67.871  1.00  0.00    -0.256 OA 
ENDROOT
BRANCH   2   4
HETATM    4  C   UNL     1      -9.273  17.258  67.540  1.00  0.00    -0.227 C  
HETATM    5  C   UNL     1     -10.053  17.097  66.451  1.00  0.00    -0.326 C  
HETATM    6  C   UNL     1     -10.747  18.188  65.658  1.00  0.00    -0.045 C  
HETATM    7  C   UNL     1     -10.258  15.723  65.948  1.00  0.00    -0.377 A  
HETATM    8  C   UNL     1     -11.090  15.428  64.897  1.00  0.00    -0.423 A  
HETATM    9  N   UNL     1     -11.252  14.200  64.401  1.00  0.00    -0.325 NA 
HETATM   10  C   UNL     1     -10.558  13.185  64.923  1.00  0.00    -0.349 A  
HETATM   11  N   UNL     1      -9.739  13.360  65.970  1.00  0.00    -0.253 NA 
HETATM   12  O   UNL     1      -8.434  16.155  69.449  1.00  0.00    -0.227 OA 
HETATM   13  C   UNL     1      -8.792  16.042  68.278  1.00  0.00    -0.182 C  
HETATM   14  C   UNL     1      -9.598  14.619  66.471  1.00  0.00    -0.289 A  
HETATM   15  N   UNL     1      -8.765  14.821  67.611  1.00  0.00    -0.170 N  
BRANCH  10  16
HETATM   16  N   UNL     1     -10.665  11.927  64.336  1.00  0.00    -0.301 NA 
HETATM   17  H   UNL     1     -11.305  11.849  63.546  1.00  0.00     0.000 HD 
BRANCH  16  18
HETATM   18  C   UNL     1      -9.993  10.757  64.709  1.00  0.00    -0.320 A  
HETATM   19  C   UNL     1      -8.597   8.997  64.110  1.00  0.00    -0.143 A  
HETATM   20  C   UNL     1     -10.214  10.118  65.923  1.00  0.00    -0.281 A  
HETATM   21  C   UNL     1      -9.694   8.850  66.163  1.00  0.00    -0.338 A  
HETATM   22  N   UNL     1      -9.131  10.225  63.822  1.00  0.00    -0.233 NA 
HETATM   23  C   UNL     1      -8.883   8.214  65.231  1.00  0.00     0.008 A  
BRANCH  23  24
HETATM   24  N   UNL     1      -8.431   6.934  65.454  1.00  0.00    -0.120 NA 
HETATM   25  C   UNL     1      -8.906   6.142  66.608  1.00  0.00    -0.127 C  
HETATM   26  C   UNL     1      -9.657   4.881  66.125  1.00  0.00    -0.175 C  
HETATM   27  N   UNL     1      -8.862   4.048  65.204  1.00  0.00    -0.123 NA 
HETATM   28  C   UNL     1      -8.416   4.874  64.063  1.00  0.00    -0.137 C  
HETATM   29  H   UNL     1      -9.367   3.214  64.905  1.00  0.00     0.000 HD 
HETATM   30  C   UNL     1      -7.656   6.153  64.479  1.00  0.00    -0.094 C  
ENDBRANCH  23  24
ENDBRANCH  16  18
ENDBRANCH  10  16
BRANCH  15  31
HETATM   31  C   UNL     1      -8.183  13.631  68.255  1.00  0.00    -0.156 C  
HETATM   32  C   UNL     1      -9.135  12.444  68.497  1.00  0.00    -0.068 C  
HETATM   33  C   UNL     1      -7.003  13.040  67.472  1.00  0.00    -0.155 C  
HETATM   34  C   UNL     1      -8.191  11.261  68.652  1.00  0.00    -0.146 C  
HETATM   35  C   UNL     1      -7.075  11.526  67.652  1.00  0.00    -0.098 C  
ENDBRANCH  15  31
ENDBRANCH   2   4
TORSDOF 5
ENDMDL
MODEL       74
REMARK 921   NORMALIZED FREE ENERGY PREDICTED BY IDOCK:   -5.58 KCAL/MOL
REMARK 922        TOTAL FREE ENERGY PREDICTED BY IDOCK:   -7.80 KCAL/MOL
REMARK 923 INTER-LIGAND FREE ENERGY PREDICTED BY IDOCK:   -7.32 KCAL/MOL
REMARK 924 INTRA-LIGAND FREE ENERGY PREDICTED BY IDOCK:   -0.47 KCAL/MOL
REMARK 927      BINDING AFFINITY PREDICTED BY RF-SCORE:    0.00 PKD
ROOT
HETATM    1  C   UNL     1     -10.615  18.753  66.911  1.00  0.00    -0.472 C  
HETATM    2  C   UNL     1      -9.501  17.944  66.300  1.00  0.00    -0.220 C  
HETATM    3  O   UNL     1      -8.570  18.537  65.751  1.00  0.00    -0.442 OA 
ENDROOT
BRANCH   2   4
HETATM    4  C   UNL     1      -9.503  16.438  66.434  1.00  0.00    -0.320 C  
HETATM    5  C   UNL     1     -10.249  15.665  65.618  1.00  0.00    -0.402 C  
HETATM    6  C   UNL     1     -11.243  16.135  64.573  1.00  0.00    -0.275 C  
HETATM    7  C   UNL     1     -10.089  14.199  65.723  1.00  0.00    -0.352 A  
HETATM    8  C   UNL     1     -10.846  13.311  65.002  1.00  0.00    -0.322 A  
HETATM    9  N   UNL     1     -10.684  11.987  65.050  1.00  0.00    -0.285 NA 
HETATM   10  C   UNL     1      -9.721  11.472  65.818  1.00  0.00    -0.235 A  
HETATM   11  N   UNL     1      -8.943  12.251  66.584  1.00  0.00    -0.205 NA 
HETATM   12  O   UNL     1      -8.326  16.452  68.477  1.00  0.00    -0.183 OA 
HETATM   13  C   UNL     1      -8.681  15.785  67.507  1.00  0.00    -0.176 C  
HETATM   14  C   UNL     1      -9.133  13.599  66.531  1.00  0.00    -0.119 A  
HETATM   15  N   UNL     1      -8.347  14.441  67.370  1.00  0.00    -0.189 N  
BRANCH  10  16
HETATM   16  N   UNL     1      -9.501  10.097  65.788  1.00  0.00    -0.192 NA 
HETATM   17  H   UNL     1      -9.294   9.693  64.875  1.00  0.00     0.000 HD 
BRANCH  16  18
HETATM   18  C   UNL     1      -9.533   9.209  66.869  1.00  0.00    -0.171 A  
HETATM   19  C   UNL     1     -10.776   7.811  68.249  1.00  0.00    -0.036 A  
HETATM   20  C   UNL     1      -8.449   9.020  67.718  1.00  0.00    -0.117 A  
HETATM   21  C   UNL     1      -8.591   8.299  68.900  1.00  0.00    -0.132 A  
HETATM   22  N   UNL     1     -10.685   8.552  67.100  1.00  0.00    -0.229 NA 
HETATM   23  C   UNL     1      -9.793   7.690  69.235  1.00  0.00    -0.168 A  
BRANCH  23  24
HETATM   24  N   UNL     1      -9.937   7.038  70.438  1.00  0.00    -0.180 NA 
HETATM   25  C   UNL     1      -9.289   7.542  71.666  1.00  0.00    -0.145 C  
HETATM   26  C   UNL     1     -10.353   7.927  72.718  1.00  0.00    -0.333 C  
HETATM   27  N   UNL     1     -11.290   6.831  73.026  1.00  0.00    -0.490 NA 
HETATM   28  C   UNL     1     -11.921   6.363  71.775  1.00  0.00    -0.316 C  
HETATM   29  H   UNL     1     -11.977   7.097  73.731  1.00  0.00     0.000 HD 
HETATM   30  C   UNL     1     -10.908   5.961  70.679  1.00  0.00    -0.292 C  
ENDBRANCH  23  24
ENDBRANCH  16  18
ENDBRANCH  10  16
BRANCH  15  31
HETATM   31  C   UNL     1      -7.438  13.797  68.333  1.00  0.00    -0.119 C  
HETATM   32  C   UNL     1      -7.910  12.461  68.936  1.00  0.00     0.110 C  
HETATM   33  C   UNL     1      -6.052  13.500  67.746  1.00  0.00    -0.148 C  
HETATM   34  C   UNL     1      -6.621  11.819  69.426  1.00  0.00    -0.113 C  
HETATM   35  C   UNL     1      -5.584  12.190  68.375  1.00  0.00    -0.054 C  
ENDBRANCH  15  31
ENDBRANCH   2   4
TORSDOF 5
ENDMDL
MODEL       75
REMARK 921   NORMALIZED FREE ENERGY PREDICTED BY IDOCK:   -5.55 KCAL/MOL
REMARK 922        TOTAL FREE ENERGY PREDICTED BY IDOCK:   -7.76 KCAL/MOL
REMARK 923 INTER-LIGAND FREE ENERGY PREDICTED BY IDOCK:   -7.45 KCAL/MOL
REMARK 924 INTRA-LIGAND FREE ENERGY PREDICTED BY IDOCK:   -0.32 KCAL/MOL
REMARK 927      BINDING AFFINITY PREDICTED BY RF-SCORE:    0.00 PKD
ROOT
HETATM    1  C   UNL     1      -6.044   2.154  69.491  1.00  0.00    -0.024 C  
HETATM    2  C   UNL     1      -7.183   2.894  68.839  1.00  0.00    -0.048 C  
HETATM    3  O   UNL     1      -7.927   2.278  68.071  1.00  0.00    -0.058 OA 
ENDROOT
BRANCH   2   4
HETATM    4  C   UNL     1      -7.439   4.342  69.188  1.00  0.00    -0.055 C  
HETATM    5  C   UNL     1      -6.807   5.341  68.538  1.00  0.00    -0.056 C  
HETATM    6  C   UNL     1      -5.714   5.202  67.496  1.00  0.00    -0.013 C  
HETATM    7  C   UNL     1      -7.216   6.728  68.844  1.00  0.00    -0.091 A  
HETATM    8  C   UNL     1      -6.596   7.826  68.304  1.00  0.00    -0.058 A  
HETATM    9  N   UNL     1      -6.980   9.083  68.534  1.00  0.00    -0.064 NA 
HETATM   10  C   UNL     1      -8.041   9.313  69.311  1.00  0.00    -0.106 A  
HETATM   11  N   UNL     1      -8.702   8.311  69.909  1.00  0.00    -0.132 NA 
HETATM   12  O   UNL     1      -8.665   3.827  71.136  1.00  0.00    -0.077 OA 
HETATM   13  C   UNL     1      -8.395   4.682  70.295  1.00  0.00    -0.075 C  
HETATM   14  C   UNL     1      -8.286   7.035  69.673  1.00  0.00    -0.131 A  
HETATM   15  N   UNL     1      -8.947   5.959  70.334  1.00  0.00    -0.146 N  
BRANCH  10  16
HETATM   16  N   UNL     1      -8.489  10.622  69.467  1.00  0.00    -0.375 NA 
HETATM   17  H   UNL     1      -8.134  11.127  70.278  1.00  0.00     0.000 HD 
BRANCH  16  18
HETATM   18  C   UNL     1      -9.371  11.322  68.636  1.00  0.00    -0.164 A  
HETATM   19  C   UNL     1     -11.553  11.684  67.918  1.00  0.00    -0.298 A  
HETATM   20  C   UNL     1      -8.937  12.154  67.611  1.00  0.00    -0.178 A  
HETATM   21  C   UNL     1      -9.836  12.656  66.675  1.00  0.00    -0.245 A  
HETATM   22  N   UNL     1     -10.690  11.135  68.830  1.00  0.00    -0.197 NA 
HETATM   23  C   UNL     1     -11.198  12.403  66.774  1.00  0.00    -0.310 A  
BRANCH  23  24
HETATM   24  N   UNL     1     -12.066  12.850  65.805  1.00  0.00    -0.444 NA 
HETATM   25  C   UNL     1     -12.654  14.204  65.867  1.00  0.00    -0.417 C  
HETATM   26  C   UNL     1     -12.207  15.042  64.647  1.00  0.00    -0.278 C  
HETATM   27  N   UNL     1     -12.503  14.396  63.357  1.00  0.00    -1.068 NA 
HETATM   28  C   UNL     1     -11.892  13.051  63.333  1.00  0.00    -0.476 C  
HETATM   29  H   UNL     1     -12.214  14.967  62.563  1.00  0.00     0.000 HD 
HETATM   30  C   UNL     1     -12.300  12.160  64.528  1.00  0.00    -0.307 C  
ENDBRANCH  23  24
ENDBRANCH  16  18
ENDBRANCH  10  16
BRANCH  15  31
HETATM   31  C   UNL     1      -9.983   6.294  71.326  1.00  0.00    -0.180 C  
HETATM   32  C   UNL     1      -9.647   7.425  72.316  1.00  0.00    -0.186 C  
HETATM   33  C   UNL     1     -11.315   6.708  70.687  1.00  0.00    -0.401 C  
HETATM   34  C   UNL     1     -11.012   7.877  72.811  1.00  0.00    -0.456 C  
HETATM   35  C   UNL     1     -11.914   7.785  71.588  1.00  0.00    -0.330 C  
ENDBRANCH  15  31
ENDBRANCH   2   4
TORSDOF 5
ENDMDL
MODEL       76
REMARK 921   NORMALIZED FREE ENERGY PREDICTED BY IDOCK:   -5.53 KCAL/MOL
REMARK 922        TOTAL FREE ENERGY PREDICTED BY IDOCK:   -7.74 KCAL/MOL
REMARK 923 INTER-LIGAND FREE ENERGY PREDICTED BY IDOCK:   -8.45 KCAL/MOL
REMARK 924 INTRA-LIGAND FREE ENERGY PREDICTED BY IDOCK:    0.71 KCAL/MOL
REMARK 927      BINDING AFFINITY PREDICTED BY RF-SCORE:    0.00 PKD
ROOT
HETATM    1  C   UNL     1      -6.153   6.442  64.858  1.00  0.00    -0.030 C  
HETATM    2  C   UNL     1      -7.617   6.617  64.549  1.00  0.00    -0.103 C  
HETATM    3  O   UNL     1      -8.254   5.648  64.128  1.00  0.00    -0.128 OA 
ENDROOT
BRANCH   2   4
HETATM    4  C   UNL     1      -8.293   7.940  64.828  1.00  0.00    -0.066 C  
HETATM    5  C   UNL     1      -8.444   8.866  63.858  1.00  0.00    -0.147 C  
HETATM    6  C   UNL     1      -7.897   8.805  62.445  1.00  0.00    -0.135 C  
HETATM    7  C   UNL     1      -9.236  10.073  64.177  1.00  0.00    -0.319 A  
HETATM    8  C   UNL     1      -9.395  11.116  63.300  1.00  0.00    -0.297 A  
HETATM    9  N   UNL     1     -10.144  12.191  63.554  1.00  0.00    -0.423 NA 
HETATM   10  C   UNL     1     -10.806  12.271  64.710  1.00  0.00    -0.304 A  
HETATM   11  N   UNL     1     -10.698  11.318  65.648  1.00  0.00    -0.246 NA 
HETATM   12  O   UNL     1      -8.322   7.621  67.165  1.00  0.00    -0.118 OA 
HETATM   13  C   UNL     1      -8.785   8.246  66.213  1.00  0.00    -0.151 C  
HETATM   14  C   UNL     1      -9.918  10.235  65.376  1.00  0.00    -0.302 A  
HETATM   15  N   UNL     1      -9.754   9.232  66.376  1.00  0.00    -0.236 N  
BRANCH  10  16
HETATM   16  N   UNL     1     -11.657  13.352  64.924  1.00  0.00    -0.319 NA 
HETATM   17  H   UNL     1     -12.574  13.300  64.481  1.00  0.00     0.000 HD 
BRANCH  16  18
HETATM   18  C   UNL     1     -11.395  14.502  65.677  1.00  0.00    -0.336 A  
HETATM   19  C   UNL     1     -10.637  16.699  65.741  1.00  0.00    -0.268 A  
HETATM   20  C   UNL     1     -11.433  14.516  67.066  1.00  0.00    -0.383 A  
HETATM   21  C   UNL     1     -10.956  15.612  67.778  1.00  0.00    -0.316 A  
HETATM   22  N   UNL     1     -11.055  15.620  65.007  1.00  0.00    -0.401 NA 
HETATM   23  C   UNL     1     -10.496  16.750  67.130  1.00  0.00    -0.299 A  
BRANCH  23  24
HETATM   24  N   UNL     1      -9.966  17.799  67.846  1.00  0.00    -0.306 NA 
HETATM   25  C   UNL     1      -8.702  17.653  68.598  1.00  0.00    -0.266 C  
HETATM   26  C   UNL     1      -7.626  18.609  68.034  1.00  0.00    -0.260 C  
HETATM   27  N   UNL     1      -8.061  20.017  67.997  1.00  0.00    -0.274 NA 
HETATM   28  C   UNL     1      -9.320  20.119  67.231  1.00  0.00    -0.391 C  
HETATM   29  H   UNL     1      -7.336  20.636  67.634  1.00  0.00     0.000 HD 
HETATM   30  C   UNL     1     -10.440  19.186  67.746  1.00  0.00    -0.419 C  
ENDBRANCH  23  24
ENDBRANCH  16  18
ENDBRANCH  10  16
BRANCH  15  31
HETATM   31  C   UNL     1     -10.355   9.475  67.698  1.00  0.00    -0.244 C  
HETATM   32  C   UNL     1      -9.386   9.853  68.835  1.00  0.00    -0.170 C  
HETATM   33  C   UNL     1     -11.406  10.594  67.684  1.00  0.00    -0.284 C  
HETATM   34  C   UNL     1     -10.288  10.531  69.856  1.00  0.00    -0.164 C  
HETATM   35  C   UNL     1     -11.287  11.320  69.022  1.00  0.00    -0.344 C  
ENDBRANCH  15  31
ENDBRANCH   2   4
TORSDOF 5
ENDMDL
MODEL       77
REMARK 921   NORMALIZED FREE ENERGY PREDICTED BY IDOCK:   -5.52 KCAL/MOL
REMARK 922        TOTAL FREE ENERGY PREDICTED BY IDOCK:   -7.73 KCAL/MOL
REMARK 923 INTER-LIGAND FREE ENERGY PREDICTED BY IDOCK:   -7.08 KCAL/MOL
REMARK 924 INTRA-LIGAND FREE ENERGY PREDICTED BY IDOCK:   -0.65 KCAL/MOL
REMARK 927      BINDING AFFINITY PREDICTED BY RF-SCORE:    0.00 PKD
ROOT
HETATM    1  C   UNL     1      -7.943  18.323  66.091  1.00  0.00    -0.219 C  
HETATM    2  C   UNL     1      -9.060  17.539  66.727  1.00  0.00    -0.262 C  
HETATM    3  O   UNL     1     -10.092  18.132  67.050  1.00  0.00    -0.319 OA 
ENDROOT
BRANCH   2   4
HETATM    4  C   UNL     1      -8.932  16.042  66.890  1.00  0.00    -0.253 C  
HETATM    5  C   UNL     1      -8.079  15.506  67.788  1.00  0.00    -0.153 C  
HETATM    6  C   UNL     1      -7.078  16.251  68.651  1.00  0.00    -0.155 C  
HETATM    7  C   UNL     1      -8.114  14.041  67.982  1.00  0.00    -0.152 A  
HETATM    8  C   UNL     1      -7.245  13.376  68.810  1.00  0.00    -0.092 A  
HETATM    9  N   UNL     1      -7.291  12.061  69.031  1.00  0.00    -0.066 NA 
HETATM   10  C   UNL     1      -8.244  11.331  68.447  1.00  0.00    -0.149 A  
HETATM   11  N   UNL     1      -9.126  11.878  67.598  1.00  0.00    -0.174 NA 
HETATM   12  O   UNL     1     -10.210  15.556  64.969  1.00  0.00    -0.357 OA 
HETATM   13  C   UNL     1      -9.747  15.126  66.024  1.00  0.00    -0.330 C  
HETATM   14  C   UNL     1      -9.054  13.220  67.374  1.00  0.00    -0.216 A  
HETATM   15  N   UNL     1      -9.954  13.815  66.443  1.00  0.00    -0.289 N  
BRANCH  10  16
HETATM   16  N   UNL     1      -8.339   9.977  68.759  1.00  0.00    -0.114 NA 
HETATM   17  H   UNL     1      -8.242   9.733  69.744  1.00  0.00     0.000 HD 
BRANCH  16  18
HETATM   18  C   UNL     1      -8.554   8.915  67.874  1.00  0.00    -0.126 A  
HETATM   19  C   UNL     1      -9.816   7.054  67.280  1.00  0.00    -0.166 A  
HETATM   20  C   UNL     1      -7.644   8.565  66.884  1.00  0.00    -0.091 A  
HETATM   21  C   UNL     1      -7.790   7.378  66.173  1.00  0.00    -0.107 A  
HETATM   22  N   UNL     1      -9.679   8.191  68.032  1.00  0.00    -0.156 NA 
HETATM   23  C   UNL     1      -8.881   6.544  66.376  1.00  0.00    -0.143 A  
BRANCH  23  24
HETATM   24  N   UNL     1      -8.977   5.342  65.713  1.00  0.00    -0.157 NA 
HETATM   25  C   UNL     1     -10.184   4.496  65.828  1.00  0.00    -0.265 C  
HETATM   26  C   UNL     1     -10.866   4.339  64.450  1.00  0.00    -0.012 C  
HETATM   27  N   UNL     1      -9.958   3.827  63.408  1.00  0.00    -0.164 NA 
HETATM   28  C   UNL     1      -8.772   4.703  63.319  1.00  0.00    -0.132 C  
HETATM   29  H   UNL     1     -10.426   3.717  62.508  1.00  0.00     0.000 HD 
HETATM   30  C   UNL     1      -8.043   4.902  64.667  1.00  0.00    -0.111 C  
ENDBRANCH  23  24
ENDBRANCH  16  18
ENDBRANCH  10  16
BRANCH  15  31
HETATM   31  C   UNL     1     -10.851  12.924  65.688  1.00  0.00    -0.273 C  
HETATM   32  C   UNL     1     -12.330  13.347  65.603  1.00  0.00    -0.521 C  
HETATM   33  C   UNL     1     -10.411  12.722  64.231  1.00  0.00    -0.423 C  
HETATM   34  C   UNL     1     -12.846  12.585  64.391  1.00  0.00    -0.366 C  
HETATM   35  C   UNL     1     -11.688  12.606  63.403  1.00  0.00    -0.571 C  
ENDBRANCH  15  31
ENDBRANCH   2   4
TORSDOF 5
ENDMDL
MODEL       78
REMARK 921   NORMALIZED FREE ENERGY PREDICTED BY IDOCK:   -5.51 KCAL/MOL
REMARK 922        TOTAL FREE ENERGY PREDICTED BY IDOCK:   -7.71 KCAL/MOL
REMARK 923 INTER-LIGAND FREE ENERGY PREDICTED BY IDOCK:   -7.30 KCAL/MOL
REMARK 924 INTRA-LIGAND FREE ENERGY PREDICTED BY IDOCK:   -0.41 KCAL/MOL
REMARK 927      BINDING AFFINITY PREDICTED BY RF-SCORE:    0.00 PKD
ROOT
HETATM    1  C   UNL     1      -7.439   4.923  66.800  1.00  0.00    -0.087 C  
HETATM    2  C   UNL     1      -6.943   5.828  67.898  1.00  0.00    -0.066 C  
HETATM    3  O   UNL     1      -6.143   5.378  68.721  1.00  0.00    -0.020 OA 
ENDROOT
BRANCH   2   4
HETATM    4  C   UNL     1      -7.371   7.277  67.929  1.00  0.00    -0.097 C  
HETATM    5  C   UNL     1      -6.681   8.224  67.260  1.00  0.00    -0.063 C  
HETATM    6  C   UNL     1      -5.377   8.042  66.508  1.00  0.00    -0.028 C  
HETATM    7  C   UNL     1      -7.243   9.591  67.228  1.00  0.00    -0.087 A  
HETATM    8  C   UNL     1      -6.596  10.652  66.646  1.00  0.00    -0.101 A  
HETATM    9  N   UNL     1      -7.109  11.882  66.568  1.00  0.00     0.092 NA 
HETATM   10  C   UNL     1      -8.330  12.115  67.056  1.00  0.00    -0.173 A  
HETATM   11  N   UNL     1      -9.036  11.154  67.669  1.00  0.00    -0.139 NA 
HETATM   12  O   UNL     1      -8.960   6.944  69.639  1.00  0.00    -0.143 OA 
HETATM   13  C   UNL     1      -8.570   7.682  68.737  1.00  0.00    -0.129 C  
HETATM   14  C   UNL     1      -8.490   9.909  67.751  1.00  0.00    -0.118 A  
HETATM   15  N   UNL     1      -9.204   8.884  68.437  1.00  0.00    -0.140 N  
BRANCH  10  16
HETATM   16  N   UNL     1      -8.891  13.378  66.885  1.00  0.00    -0.341 NA 
HETATM   17  H   UNL     1      -8.675  13.854  66.010  1.00  0.00     0.000 HD 
BRANCH  16  18
HETATM   18  C   UNL     1      -9.718  14.067  67.780  1.00  0.00    -0.228 A  
HETATM   19  C   UNL     1     -10.000  15.030  69.877  1.00  0.00    -0.005 A  
HETATM   20  C   UNL     1     -11.071  14.274  67.545  1.00  0.00    -0.309 A  
HETATM   21  C   UNL     1     -11.899  14.767  68.549  1.00  0.00    -0.340 A  
HETATM   22  N   UNL     1      -9.165  14.503  68.928  1.00  0.00    -0.161 NA 
HETATM   23  C   UNL     1     -11.391  15.133  69.789  1.00  0.00    -0.285 A  
BRANCH  23  24
HETATM   24  N   UNL     1     -12.231  15.556  70.793  1.00  0.00    -0.371 NA 
HETATM   25  C   UNL     1     -13.612  15.043  70.904  1.00  0.00    -0.307 C  
HETATM   26  C   UNL     1     -13.798  14.277  72.234  1.00  0.00    -0.524 C  
HETATM   27  N   UNL     1     -13.432  15.073  73.419  1.00  0.00    -0.587 NA 
HETATM   28  C   UNL     1     -12.045  15.558  73.272  1.00  0.00    -0.487 C  
HETATM   29  H   UNL     1     -13.572  14.559  74.289  1.00  0.00     0.000 HD 
HETATM   30  C   UNL     1     -11.792  16.334  71.960  1.00  0.00    -0.487 C  
ENDBRANCH  23  24
ENDBRANCH  16  18
ENDBRANCH  10  16
BRANCH  15  31
HETATM   31  C   UNL     1     -10.455   9.257  69.119  1.00  0.00    -0.217 C  
HETATM   32  C   UNL     1     -10.315   9.893  70.515  1.00  0.00    -0.298 C  
HETATM   33  C   UNL     1     -11.305  10.250  68.315  1.00  0.00    -0.245 C  
HETATM   34  C   UNL     1     -11.638  10.619  70.707  1.00  0.00    -0.388 C  
HETATM   35  C   UNL     1     -11.976  11.172  69.330  1.00  0.00    -0.421 C  
ENDBRANCH  15  31
ENDBRANCH   2   4
TORSDOF 5
ENDMDL
MODEL       79
REMARK 921   NORMALIZED FREE ENERGY PREDICTED BY IDOCK:   -5.41 KCAL/MOL
REMARK 922        TOTAL FREE ENERGY PREDICTED BY IDOCK:   -7.58 KCAL/MOL
REMARK 923 INTER-LIGAND FREE ENERGY PREDICTED BY IDOCK:   -6.87 KCAL/MOL
REMARK 924 INTRA-LIGAND FREE ENERGY PREDICTED BY IDOCK:   -0.70 KCAL/MOL
REMARK 927      BINDING AFFINITY PREDICTED BY RF-SCORE:    0.00 PKD
ROOT
HETATM    1  C   UNL     1      -7.623   8.890  62.854  1.00  0.00    -0.110 C  
HETATM    2  C   UNL     1      -8.055   8.511  64.247  1.00  0.00    -0.155 C  
HETATM    3  O   UNL     1      -8.273   7.323  64.497  1.00  0.00    -0.107 OA 
ENDROOT
BRANCH   2   4
HETATM    4  C   UNL     1      -8.142   9.569  65.322  1.00  0.00    -0.124 C  
HETATM    5  C   UNL     1      -7.256   9.607  66.340  1.00  0.00    -0.094 C  
HETATM    6  C   UNL     1      -6.165   8.597  66.636  1.00  0.00    -0.058 C  
HETATM    7  C   UNL     1      -7.326  10.753  67.271  1.00  0.00    -0.097 A  
HETATM    8  C   UNL     1      -6.531  10.862  68.383  1.00  0.00    -0.057 A  
HETATM    9  N   UNL     1      -6.549  11.910  69.209  1.00  0.00    -0.104 NA 
HETATM   10  C   UNL     1      -7.361  12.937  68.947  1.00  0.00    -0.014 A  
HETATM   11  N   UNL     1      -8.199  12.919  67.900  1.00  0.00    -0.152 NA 
HETATM   12  O   UNL     1     -10.256  10.344  64.622  1.00  0.00    -0.346 OA 
HETATM   13  C   UNL     1      -9.245  10.587  65.278  1.00  0.00    -0.200 C  
HETATM   14  C   UNL     1      -8.176  11.834  67.077  1.00  0.00    -0.172 A  
HETATM   15  N   UNL     1      -9.089  11.776  65.984  1.00  0.00    -0.192 N  
BRANCH  10  16
HETATM   16  N   UNL     1      -7.303  14.064  69.763  1.00  0.00    -0.338 NA 
HETATM   17  H   UNL     1      -7.420  13.905  70.763  1.00  0.00     0.000 HD 
BRANCH  16  18
HETATM   18  C   UNL     1      -7.103  15.391  69.364  1.00  0.00    -0.193 A  
HETATM   19  C   UNL     1      -8.019  17.410  68.666  1.00  0.00    -0.271 A  
HETATM   20  C   UNL     1      -5.844  15.910  69.084  1.00  0.00    -0.118 A  
HETATM   21  C   UNL     1      -5.709  17.158  68.484  1.00  0.00    -0.141 A  
HETATM   22  N   UNL     1      -8.193  16.166  69.213  1.00  0.00    -0.227 NA 
HETATM   23  C   UNL     1      -6.815  17.953  68.212  1.00  0.00    -0.212 A  
BRANCH  23  24
HETATM   24  N   UNL     1      -6.670  19.155  67.559  1.00  0.00    -0.199 NA 
HETATM   25  C   UNL     1      -5.627  19.348  66.530  1.00  0.00    -0.161 C  
HETATM   26  C   UNL     1      -6.272  19.652  65.159  1.00  0.00    -0.258 C  
HETATM   27  N   UNL     1      -7.199  20.798  65.194  1.00  0.00    -0.499 NA 
HETATM   28  C   UNL     1      -8.228  20.561  66.227  1.00  0.00     0.081 C  
HETATM   29  H   UNL     1      -7.607  20.993  64.280  1.00  0.00     0.000 HD 
HETATM   30  C   UNL     1      -7.647  20.250  67.625  1.00  0.00    -0.304 C  
ENDBRANCH  23  24
ENDBRANCH  16  18
ENDBRANCH  10  16
BRANCH  15  31
HETATM   31  C   UNL     1     -10.089  12.850  65.865  1.00  0.00    -0.289 C  
HETATM   32  C   UNL     1     -10.439  13.309  64.437  1.00  0.00    -0.424 C  
HETATM   33  C   UNL     1     -11.435  12.492  66.508  1.00  0.00    -0.418 C  
HETATM   34  C   UNL     1     -11.794  13.981  64.604  1.00  0.00    -0.433 C  
HETATM   35  C   UNL     1     -12.516  13.135  65.643  1.00  0.00    -0.485 C  
ENDBRANCH  15  31
ENDBRANCH   2   4
TORSDOF 5
ENDMDL
MODEL       80
REMARK 921   NORMALIZED FREE ENERGY PREDICTED BY IDOCK:   -5.39 KCAL/MOL
REMARK 922        TOTAL FREE ENERGY PREDICTED BY IDOCK:   -7.56 KCAL/MOL
REMARK 923 INTER-LIGAND FREE ENERGY PREDICTED BY IDOCK:   -7.01 KCAL/MOL
REMARK 924 INTRA-LIGAND FREE ENERGY PREDICTED BY IDOCK:   -0.55 KCAL/MOL
REMARK 927      BINDING AFFINITY PREDICTED BY RF-SCORE:    0.00 PKD
ROOT
HETATM    1  C   UNL     1      -7.971   5.285  69.962  1.00  0.00    -0.080 C  
HETATM    2  C   UNL     1      -9.191   5.556  69.120  1.00  0.00    -0.116 C  
HETATM    3  O   UNL     1     -10.149   4.783  69.198  1.00  0.00    -0.192 OA 
ENDROOT
BRANCH   2   4
HETATM    4  C   UNL     1      -9.252   6.797  68.260  1.00  0.00    -0.122 C  
HETATM    5  C   UNL     1     -10.034   7.844  68.597  1.00  0.00    -0.201 C  
HETATM    6  C   UNL     1     -11.016   7.914  69.750  1.00  0.00    -0.148 C  
HETATM    7  C   UNL     1      -9.931   9.071  67.779  1.00  0.00    -0.235 A  
HETATM    8  C   UNL     1     -10.728  10.171  67.977  1.00  0.00    -0.260 A  
HETATM    9  N   UNL     1     -10.618  11.302  67.278  1.00  0.00    -0.221 NA 
HETATM   10  C   UNL     1      -9.670  11.407  66.344  1.00  0.00    -0.204 A  
HETATM   11  N   UNL     1      -8.857  10.381  66.052  1.00  0.00    -0.155 NA 
HETATM   12  O   UNL     1      -8.060   5.821  66.475  1.00  0.00    -0.101 OA 
HETATM   13  C   UNL     1      -8.449   6.865  66.993  1.00  0.00    -0.121 C  
HETATM   14  C   UNL     1      -8.994   9.229  66.767  1.00  0.00    -0.131 A  
HETATM   15  N   UNL     1      -8.168   8.113  66.444  1.00  0.00    -0.105 N  
BRANCH  10  16
HETATM   16  N   UNL     1      -9.505  12.624  65.688  1.00  0.00    -0.456 NA 
HETATM   17  H   UNL     1      -9.294  12.575  64.691  1.00  0.00     0.000 HD 
BRANCH  16  18
HETATM   18  C   UNL     1      -9.595  13.905  66.242  1.00  0.00    -0.256 A  
HETATM   19  C   UNL     1     -10.532  16.033  66.174  1.00  0.00    -0.326 A  
HETATM   20  C   UNL     1      -8.729  14.361  67.228  1.00  0.00    -0.228 A  
HETATM   21  C   UNL     1      -8.712  15.703  67.594  1.00  0.00    -0.182 A  
HETATM   22  N   UNL     1     -10.544  14.728  65.755  1.00  0.00    -0.309 NA 
HETATM   23  C   UNL     1      -9.604  16.614  67.041  1.00  0.00    -0.244 A  
BRANCH  23  24
HETATM   24  N   UNL     1      -9.531  17.949  67.364  1.00  0.00    -0.256 NA 
HETATM   25  C   UNL     1      -8.235  18.601  67.647  1.00  0.00    -0.258 C  
HETATM   26  C   UNL     1      -7.952  19.710  66.609  1.00  0.00    -0.300 C  
HETATM   27  N   UNL     1      -9.034  20.706  66.511  1.00  0.00    -0.565 NA 
HETATM   28  C   UNL     1     -10.307  20.015  66.220  1.00  0.00    -0.455 C  
HETATM   29  H   UNL     1      -8.826  21.438  65.832  1.00  0.00     0.000 HD 
HETATM   30  C   UNL     1     -10.650  18.891  67.223  1.00  0.00    -0.456 C  
ENDBRANCH  23  24
ENDBRANCH  16  18
ENDBRANCH  10  16
BRANCH  15  31
HETATM   31  C   UNL     1      -7.279   8.231  65.276  1.00  0.00    -0.079 C  
HETATM   32  C   UNL     1      -5.906   7.540  65.385  1.00  0.00    -0.038 C  
HETATM   33  C   UNL     1      -7.902   7.675  63.988  1.00  0.00    -0.127 C  
HETATM   34  C   UNL     1      -5.477   7.378  63.934  1.00  0.00    -0.037 C  
HETATM   35  C   UNL     1      -6.762   7.049  63.188  1.00  0.00    -0.048 C  
ENDBRANCH  15  31
ENDBRANCH   2   4
TORSDOF 5
ENDMDL
MODEL       81
REMARK 921   NORMALIZED FREE ENERGY PREDICTED BY IDOCK:   -5.36 KCAL/MOL
REMARK 922        TOTAL FREE ENERGY PREDICTED BY IDOCK:   -7.51 KCAL/MOL
REMARK 923 INTER-LIGAND FREE ENERGY PREDICTED BY IDOCK:   -7.02 KCAL/MOL
REMARK 924 INTRA-LIGAND FREE ENERGY PREDICTED BY IDOCK:   -0.49 KCAL/MOL
REMARK 927      BINDING AFFINITY PREDICTED BY RF-SCORE:    0.00 PKD
ROOT
HETATM    1  C   UNL     1      -9.051   2.839  70.888  1.00  0.00    -0.184 C  
HETATM    2  C   UNL     1      -8.369   3.842  71.783  1.00  0.00    -0.078 C  
HETATM    3  O   UNL     1      -7.940   3.466  72.876  1.00  0.00    -0.070 OA 
ENDROOT
BRANCH   2   4
HETATM    4  C   UNL     1      -8.156   5.259  71.301  1.00  0.00    -0.114 C  
HETATM    5  C   UNL     1      -6.940   5.688  70.905  1.00  0.00    -0.061 C  
HETATM    6  C   UNL     1      -5.633   4.922  70.981  1.00  0.00    -0.012 C  
HETATM    7  C   UNL     1      -6.845   7.042  70.319  1.00  0.00    -0.057 A  
HETATM    8  C   UNL     1      -5.654   7.616  69.951  1.00  0.00    -0.023 A  
HETATM    9  N   UNL     1      -5.555   8.817  69.379  1.00  0.00    -0.034 NA 
HETATM   10  C   UNL     1      -6.664   9.511  69.115  1.00  0.00    -0.049 A  
HETATM   11  N   UNL     1      -7.877   9.053  69.458  1.00  0.00    -0.091 NA 
HETATM   12  O   UNL     1     -10.293   5.987  71.983  1.00  0.00    -0.195 OA 
HETATM   13  C   UNL     1      -9.311   6.219  71.281  1.00  0.00    -0.156 C  
HETATM   14  C   UNL     1      -7.957   7.831  70.054  1.00  0.00    -0.113 A  
HETATM   15  N   UNL     1      -9.231   7.344  70.467  1.00  0.00    -0.157 N  
BRANCH  10  16
HETATM   16  N   UNL     1      -6.553  10.721  68.433  1.00  0.00    -0.054 NA 
HETATM   17  H   UNL     1      -5.641  11.175  68.464  1.00  0.00     0.000 HD 
BRANCH  16  18
HETATM   18  C   UNL     1      -7.553  11.382  67.711  1.00  0.00    -0.105 A  
HETATM   19  C   UNL     1      -9.078  13.132  67.585  1.00  0.00    -0.201 A  
HETATM   20  C   UNL     1      -8.125  10.851  66.561  1.00  0.00    -0.154 A  
HETATM   21  C   UNL     1      -9.259  11.432  66.000  1.00  0.00    -0.229 A  
HETATM   22  N   UNL     1      -7.990  12.562  68.191  1.00  0.00    -0.148 NA 
HETATM   23  C   UNL     1      -9.811  12.593  66.524  1.00  0.00    -0.256 A  
BRANCH  23  24
HETATM   24  N   UNL     1     -10.969  13.117  66.000  1.00  0.00    -0.277 NA 
HETATM   25  C   UNL     1     -11.276  14.559  66.104  1.00  0.00    -0.339 C  
HETATM   26  C   UNL     1     -11.359  15.196  64.699  1.00  0.00    -0.356 C  
HETATM   27  N   UNL     1     -12.315  14.516  63.807  1.00  0.00    -1.087 NA 
HETATM   28  C   UNL     1     -11.969  13.082  63.724  1.00  0.00    -0.518 C  
HETATM   29  H   UNL     1     -12.368  14.956  62.889  1.00  0.00     0.000 HD 
HETATM   30  C   UNL     1     -11.870  12.384  65.099  1.00  0.00    -0.388 C  
ENDBRANCH  23  24
ENDBRANCH  16  18
ENDBRANCH  10  16
BRANCH  15  31
HETATM   31  C   UNL     1     -10.390   8.242  70.322  1.00  0.00    -0.209 C  
HETATM   32  C   UNL     1     -10.506   9.386  71.348  1.00  0.00    -0.358 C  
HETATM   33  C   UNL     1     -10.448   8.932  68.952  1.00  0.00    -0.225 C  
HETATM   34  C   UNL     1     -11.418  10.388  70.656  1.00  0.00    -0.438 C  
HETATM   35  C   UNL     1     -11.012  10.330  69.191  1.00  0.00    -0.280 C  
ENDBRANCH  15  31
ENDBRANCH   2   4
TORSDOF 5
ENDMDL
MODEL       82
REMARK 921   NORMALIZED FREE ENERGY PREDICTED BY IDOCK:   -5.35 KCAL/MOL
REMARK 922        TOTAL FREE ENERGY PREDICTED BY IDOCK:   -7.50 KCAL/MOL
REMARK 923 INTER-LIGAND FREE ENERGY PREDICTED BY IDOCK:   -6.94 KCAL/MOL
REMARK 924 INTRA-LIGAND FREE ENERGY PREDICTED BY IDOCK:   -0.56 KCAL/MOL
REMARK 927      BINDING AFFINITY PREDICTED BY RF-SCORE:    0.00 PKD
ROOT
HETATM    1  C   UNL     1     -10.203  19.935  65.502  1.00  0.00    -0.235 C  
HETATM    2  C   UNL     1     -10.403  19.007  66.672  1.00  0.00    -0.428 C  
HETATM    3  O   UNL     1     -11.200  19.331  67.556  1.00  0.00    -0.326 OA 
ENDROOT
BRANCH   2   4
HETATM    4  C   UNL     1      -9.689  17.675  66.708  1.00  0.00    -0.300 C  
HETATM    5  C   UNL     1      -8.483  17.544  67.299  1.00  0.00    -0.224 C  
HETATM    6  C   UNL     1      -7.630  18.652  67.887  1.00  0.00    -0.264 C  
HETATM    7  C   UNL     1      -7.918  16.183  67.413  1.00  0.00    -0.185 A  
HETATM    8  C   UNL     1      -6.669  15.932  67.924  1.00  0.00    -0.146 A  
HETATM    9  N   UNL     1      -6.161  14.708  68.076  1.00  0.00    -0.143 NA 
HETATM   10  C   UNL     1      -6.898  13.646  67.741  1.00  0.00    -0.168 A  
HETATM   11  N   UNL     1      -8.121  13.781  67.207  1.00  0.00    -0.167 NA 
HETATM   12  O   UNL     1     -11.181  16.647  65.198  1.00  0.00    -0.190 OA 
HETATM   13  C   UNL     1     -10.315  16.477  66.055  1.00  0.00    -0.345 C  
HETATM   14  C   UNL     1      -8.616  15.040  67.047  1.00  0.00    -0.239 A  
HETATM   15  N   UNL     1      -9.896  15.208  66.441  1.00  0.00    -0.264 N  
BRANCH  10  16
HETATM   16  N   UNL     1      -6.394  12.373  67.992  1.00  0.00    -0.072 NA 
HETATM   17  H   UNL     1      -5.379  12.287  68.024  1.00  0.00     0.000 HD 
BRANCH  16  18
HETATM   18  C   UNL     1      -7.124  11.198  68.203  1.00  0.00    -0.071 A  
HETATM   19  C   UNL     1      -8.222   9.357  67.300  1.00  0.00    -0.117 A  
HETATM   20  C   UNL     1      -7.627  10.838  69.447  1.00  0.00    -0.114 A  
HETATM   21  C   UNL     1      -8.526   9.784  69.572  1.00  0.00    -0.176 A  
HETATM   22  N   UNL     1      -7.371  10.418  67.132  1.00  0.00    -0.090 NA 
HETATM   23  C   UNL     1      -8.894   9.014  68.475  1.00  0.00    -0.134 A  
BRANCH  23  24
HETATM   24  N   UNL     1      -9.834   8.018  68.602  1.00  0.00    -0.170 NA 
HETATM   25  C   UNL     1      -9.810   6.825  67.730  1.00  0.00    -0.126 C  
HETATM   26  C   UNL     1      -9.585   5.547  68.571  1.00  0.00    -0.127 C  
HETATM   27  N   UNL     1     -10.566   5.387  69.659  1.00  0.00    -0.298 NA 
HETATM   28  C   UNL     1     -10.552   6.595  70.510  1.00  0.00    -0.229 C  
HETATM   29  H   UNL     1     -10.412   4.534  70.196  1.00  0.00     0.000 HD 
HETATM   30  C   UNL     1     -10.772   7.910  69.728  1.00  0.00    -0.233 C  
ENDBRANCH  23  24
ENDBRANCH  16  18
ENDBRANCH  10  16
BRANCH  15  31
HETATM   31  C   UNL     1     -10.572  14.009  65.919  1.00  0.00    -0.301 C  
HETATM   32  C   UNL     1      -9.670  12.933  65.283  1.00  0.00    -0.006 C  
HETATM   33  C   UNL     1     -11.385  13.264  66.986  1.00  0.00    -0.346 C  
HETATM   34  C   UNL     1     -10.527  11.677  65.339  1.00  0.00    -0.324 C  
HETATM   35  C   UNL     1     -11.269  11.776  66.664  1.00  0.00    -0.383 C  
ENDBRANCH  15  31
ENDBRANCH   2   4
TORSDOF 5
ENDMDL
MODEL       83
REMARK 921   NORMALIZED FREE ENERGY PREDICTED BY IDOCK:   -5.35 KCAL/MOL
REMARK 922        TOTAL FREE ENERGY PREDICTED BY IDOCK:   -7.50 KCAL/MOL
REMARK 923 INTER-LIGAND FREE ENERGY PREDICTED BY IDOCK:   -7.04 KCAL/MOL
REMARK 924 INTRA-LIGAND FREE ENERGY PREDICTED BY IDOCK:   -0.46 KCAL/MOL
REMARK 927      BINDING AFFINITY PREDICTED BY RF-SCORE:    0.00 PKD
ROOT
HETATM    1  C   UNL     1      -8.442   5.004  65.836  1.00  0.00    -0.121 C  
HETATM    2  C   UNL     1      -9.470   5.977  66.352  1.00  0.00    -0.150 C  
HETATM    3  O   UNL     1     -10.665   5.701  66.221  1.00  0.00    -0.213 OA 
ENDROOT
BRANCH   2   4
HETATM    4  C   UNL     1      -9.027   7.225  67.081  1.00  0.00    -0.132 C  
HETATM    5  C   UNL     1      -8.400   8.228  66.433  1.00  0.00    -0.117 C  
HETATM    6  C   UNL     1      -7.948   8.236  64.985  1.00  0.00    -0.141 C  
HETATM    7  C   UNL     1      -8.125   9.469  67.188  1.00  0.00    -0.106 A  
HETATM    8  C   UNL     1      -7.427  10.526  66.659  1.00  0.00    -0.120 A  
HETATM    9  N   UNL     1      -7.208  11.670  67.310  1.00  0.00    -0.127 NA 
HETATM   10  C   UNL     1      -7.708  11.832  68.537  1.00  0.00    -0.137 A  
HETATM   11  N   UNL     1      -8.381  10.851  69.156  1.00  0.00    -0.114 NA 
HETATM   12  O   UNL     1      -9.459   6.329  69.220  1.00  0.00    -0.135 OA 
HETATM   13  C   UNL     1      -9.265   7.348  68.559  1.00  0.00    -0.142 C  
HETATM   14  C   UNL     1      -8.582   9.685  68.480  1.00  0.00    -0.119 A  
HETATM   15  N   UNL     1      -9.257   8.614  69.135  1.00  0.00    -0.152 N  
BRANCH  10  16
HETATM   16  N   UNL     1      -7.554  13.064  69.168  1.00  0.00    -0.320 NA 
HETATM   17  H   UNL     1      -7.120  13.048  70.091  1.00  0.00     0.000 HD 
BRANCH  16  18
HETATM   18  C   UNL     1      -7.927  14.320  68.678  1.00  0.00    -0.139 A  
HETATM   19  C   UNL     1      -9.366  15.587  67.361  1.00  0.00    -0.207 A  
HETATM   20  C   UNL     1      -7.144  15.456  68.846  1.00  0.00    -0.131 A  
HETATM   21  C   UNL     1      -7.441  16.631  68.162  1.00  0.00    -0.170 A  
HETATM   22  N   UNL     1      -9.078  14.400  67.983  1.00  0.00    -0.181 NA 
HETATM   23  C   UNL     1      -8.562  16.729  67.348  1.00  0.00    -0.193 A  
BRANCH  23  24
HETATM   24  N   UNL     1      -8.805  17.875  66.626  1.00  0.00    -0.261 NA 
HETATM   25  C   UNL     1     -10.184  18.327  66.345  1.00  0.00    -0.403 C  
HETATM   26  C   UNL     1     -10.443  19.703  66.999  1.00  0.00    -0.479 C  
HETATM   27  N   UNL     1      -9.460  20.728  66.605  1.00  0.00    -0.647 NA 
HETATM   28  C   UNL     1      -8.099  20.241  66.910  1.00  0.00    -0.299 C  
HETATM   29  H   UNL     1      -9.653  21.633  67.035  1.00  0.00     0.000 HD 
HETATM   30  C   UNL     1      -7.775  18.866  66.284  1.00  0.00    -0.276 C  
ENDBRANCH  23  24
ENDBRANCH  16  18
ENDBRANCH  10  16
BRANCH  15  31
HETATM   31  C   UNL     1      -9.610   8.789  70.554  1.00  0.00    -0.191 C  
HETATM   32  C   UNL     1     -10.941   8.163  71.014  1.00  0.00    -0.273 C  
HETATM   33  C   UNL     1      -8.553   8.222  71.511  1.00  0.00    -0.197 C  
HETATM   34  C   UNL     1     -10.770   8.041  72.521  1.00  0.00    -0.407 C  
HETATM   35  C   UNL     1      -9.309   7.662  72.713  1.00  0.00    -0.236 C  
ENDBRANCH  15  31
ENDBRANCH   2   4
TORSDOF 5
ENDMDL
MODEL       84
REMARK 921   NORMALIZED FREE ENERGY PREDICTED BY IDOCK:   -5.30 KCAL/MOL
REMARK 922        TOTAL FREE ENERGY PREDICTED BY IDOCK:   -7.44 KCAL/MOL
REMARK 923 INTER-LIGAND FREE ENERGY PREDICTED BY IDOCK:   -6.88 KCAL/MOL
REMARK 924 INTRA-LIGAND FREE ENERGY PREDICTED BY IDOCK:   -0.55 KCAL/MOL
REMARK 927      BINDING AFFINITY PREDICTED BY RF-SCORE:    0.00 PKD
ROOT
HETATM    1  C   UNL     1      -6.723  18.513  65.340  1.00  0.00    -0.215 C  
HETATM    2  C   UNL     1      -6.947  18.144  66.783  1.00  0.00    -0.197 C  
HETATM    3  O   UNL     1      -6.523  18.899  67.661  1.00  0.00    -0.200 OA 
ENDROOT
BRANCH   2   4
HETATM    4  C   UNL     1      -7.743  16.907  67.129  1.00  0.00    -0.210 C  
HETATM    5  C   UNL     1      -9.092  16.906  67.078  1.00  0.00    -0.240 C  
HETATM    6  C   UNL     1      -9.994  18.093  66.803  1.00  0.00    -0.353 C  
HETATM    7  C   UNL     1      -9.788  15.620  67.296  1.00  0.00    -0.225 A  
HETATM    8  C   UNL     1     -11.155  15.509  67.344  1.00  0.00    -0.285 A  
HETATM    9  N   UNL     1     -11.800  14.351  67.494  1.00  0.00    -0.388 NA 
HETATM   10  C   UNL     1     -11.101  13.217  67.581  1.00  0.00    -0.270 A  
HETATM   11  N   UNL     1      -9.760  13.217  67.573  1.00  0.00    -0.219 NA 
HETATM   12  O   UNL     1      -5.880  15.744  67.988  1.00  0.00    -0.115 OA 
HETATM   13  C   UNL     1      -7.030  15.658  67.561  1.00  0.00    -0.189 C  
HETATM   14  C   UNL     1      -9.119  14.411  67.432  1.00  0.00    -0.198 A  
HETATM   15  N   UNL     1      -7.694  14.439  67.465  1.00  0.00    -0.180 N  
BRANCH  10  16
HETATM   16  N   UNL     1     -11.787  12.007  67.643  1.00  0.00    -0.564 NA 
HETATM   17  H   UNL     1     -12.776  12.035  67.394  1.00  0.00     0.000 HD 
BRANCH  16  18
HETATM   18  C   UNL     1     -11.274  10.758  68.009  1.00  0.00    -0.307 A  
HETATM   19  C   UNL     1     -10.514   8.659  67.358  1.00  0.00    -0.281 A  
HETATM   20  C   UNL     1     -11.217  10.326  69.329  1.00  0.00    -0.281 A  
HETATM   21  C   UNL     1     -10.906   9.004  69.630  1.00  0.00    -0.196 A  
HETATM   22  N   UNL     1     -10.861   9.941  67.021  1.00  0.00    -0.173 NA 
HETATM   23  C   UNL     1     -10.575   8.094  68.634  1.00  0.00    -0.109 A  
BRANCH  23  24
HETATM   24  N   UNL     1     -10.335   6.775  68.941  1.00  0.00    -0.182 NA 
HETATM   25  C   UNL     1      -9.118   6.085  68.464  1.00  0.00    -0.112 C  
HETATM   26  C   UNL     1      -8.248   5.637  69.661  1.00  0.00    -0.107 C  
HETATM   27  N   UNL     1      -8.981   4.806  70.633  1.00  0.00    -0.118 NA 
HETATM   28  C   UNL     1     -10.182   5.534  71.090  1.00  0.00    -0.222 C  
HETATM   29  H   UNL     1      -8.390   4.508  71.409  1.00  0.00     0.000 HD 
HETATM   30  C   UNL     1     -11.097   6.011  69.939  1.00  0.00    -0.399 C  
ENDBRANCH  23  24
ENDBRANCH  16  18
ENDBRANCH  10  16
BRANCH  15  31
HETATM   31  C   UNL     1      -6.988  13.181  67.758  1.00  0.00    -0.145 C  
HETATM   32  C   UNL     1      -7.126  12.632  69.191  1.00  0.00     0.028 C  
HETATM   33  C   UNL     1      -7.420  12.023  66.847  1.00  0.00    -0.051 C  
HETATM   34  C   UNL     1      -6.777  11.159  69.040  1.00  0.00    -0.085 C  
HETATM   35  C   UNL     1      -7.376  10.758  67.699  1.00  0.00    -0.094 C  
ENDBRANCH  15  31
ENDBRANCH   2   4
TORSDOF 5
ENDMDL
MODEL       85
REMARK 921   NORMALIZED FREE ENERGY PREDICTED BY IDOCK:   -5.29 KCAL/MOL
REMARK 922        TOTAL FREE ENERGY PREDICTED BY IDOCK:   -7.43 KCAL/MOL
REMARK 923 INTER-LIGAND FREE ENERGY PREDICTED BY IDOCK:   -6.79 KCAL/MOL
REMARK 924 INTRA-LIGAND FREE ENERGY PREDICTED BY IDOCK:   -0.63 KCAL/MOL
REMARK 927      BINDING AFFINITY PREDICTED BY RF-SCORE:    0.00 PKD
ROOT
HETATM    1  C   UNL     1      -8.833   2.329  64.509  1.00  0.00    -0.108 C  
HETATM    2  C   UNL     1      -9.680   3.575  64.508  1.00  0.00    -0.173 C  
HETATM    3  O   UNL     1     -10.792   3.535  63.975  1.00  0.00    -0.259 OA 
ENDROOT
BRANCH   2   4
HETATM    4  C   UNL     1      -9.194   4.817  65.218  1.00  0.00    -0.155 C  
HETATM    5  C   UNL     1      -8.497   5.769  64.563  1.00  0.00    -0.040 C  
HETATM    6  C   UNL     1      -8.006   5.716  63.129  1.00  0.00    -0.101 C  
HETATM    7  C   UNL     1      -8.179   7.014  65.294  1.00  0.00    -0.128 A  
HETATM    8  C   UNL     1      -7.413   8.020  64.760  1.00  0.00    -0.091 A  
HETATM    9  N   UNL     1      -7.153   9.168  65.388  1.00  0.00    -0.081 NA 
HETATM   10  C   UNL     1      -7.678   9.388  66.596  1.00  0.00    -0.097 A  
HETATM   11  N   UNL     1      -8.418   8.460  67.219  1.00  0.00    -0.123 NA 
HETATM   12  O   UNL     1      -9.731   4.002  67.365  1.00  0.00    -0.193 OA 
HETATM   13  C   UNL     1      -9.465   4.991  66.684  1.00  0.00    -0.146 C  
HETATM   14  C   UNL     1      -8.660   7.288  66.567  1.00  0.00    -0.133 A  
HETATM   15  N   UNL     1      -9.408   6.271  67.229  1.00  0.00    -0.117 N  
BRANCH  10  16
HETATM   16  N   UNL     1      -7.477  10.627  67.199  1.00  0.00    -0.096 NA 
HETATM   17  H   UNL     1      -6.748  10.670  67.911  1.00  0.00     0.000 HD 
BRANCH  16  18
HETATM   18  C   UNL     1      -8.163  11.818  66.939  1.00  0.00    -0.166 A  
HETATM   19  C   UNL     1      -8.338  14.115  67.258  1.00  0.00    -0.196 A  
HETATM   20  C   UNL     1      -9.403  11.850  66.312  1.00  0.00    -0.234 A  
HETATM   21  C   UNL     1     -10.146  13.026  66.268  1.00  0.00    -0.283 A  
HETATM   22  N   UNL     1      -7.598  12.966  67.360  1.00  0.00    -0.162 NA 
HETATM   23  C   UNL     1      -9.648  14.215  66.784  1.00  0.00    -0.282 A  
BRANCH  23  24
HETATM   24  N   UNL     1     -10.421  15.353  66.794  1.00  0.00    -0.293 NA 
HETATM   25  C   UNL     1     -11.146  15.778  68.010  1.00  0.00    -0.337 C  
HETATM   26  C   UNL     1     -10.629  17.152  68.493  1.00  0.00    -0.361 C  
HETATM   27  N   UNL     1     -10.686  18.194  67.451  1.00  0.00    -0.384 NA 
HETATM   28  C   UNL     1      -9.944  17.733  66.260  1.00  0.00    -0.318 C  
HETATM   29  H   UNL     1     -10.353  19.097  67.790  1.00  0.00     0.000 HD 
HETATM   30  C   UNL     1     -10.414  16.362  65.725  1.00  0.00    -0.354 C  
ENDBRANCH  23  24
ENDBRANCH  16  18
ENDBRANCH  10  16
BRANCH  15  31
HETATM   31  C   UNL     1      -9.791   6.501  68.632  1.00  0.00    -0.139 C  
HETATM   32  C   UNL     1     -11.281   6.317  68.978  1.00  0.00    -0.415 C  
HETATM   33  C   UNL     1      -9.040   5.595  69.617  1.00  0.00    -0.148 C  
HETATM   34  C   UNL     1     -11.269   6.096  70.483  1.00  0.00    -0.403 C  
HETATM   35  C   UNL     1     -10.020   5.264  70.740  1.00  0.00    -0.279 C  
ENDBRANCH  15  31
ENDBRANCH   2   4
TORSDOF 5
ENDMDL
MODEL       86
REMARK 921   NORMALIZED FREE ENERGY PREDICTED BY IDOCK:   -5.28 KCAL/MOL
REMARK 922        TOTAL FREE ENERGY PREDICTED BY IDOCK:   -7.42 KCAL/MOL
REMARK 923 INTER-LIGAND FREE ENERGY PREDICTED BY IDOCK:   -7.13 KCAL/MOL
REMARK 924 INTRA-LIGAND FREE ENERGY PREDICTED BY IDOCK:   -0.29 KCAL/MOL
REMARK 927      BINDING AFFINITY PREDICTED BY RF-SCORE:    0.00 PKD
ROOT
HETATM    1  C   UNL     1     -10.881  18.238  67.998  1.00  0.00    -0.178 C  
HETATM    2  C   UNL     1      -9.700  17.372  67.646  1.00  0.00    -0.270 C  
HETATM    3  O   UNL     1      -8.582  17.887  67.593  1.00  0.00    -0.237 OA 
ENDROOT
BRANCH   2   4
HETATM    4  C   UNL     1      -9.892  15.887  67.437  1.00  0.00    -0.234 C  
HETATM    5  C   UNL     1      -9.907  15.030  68.480  1.00  0.00    -0.217 C  
HETATM    6  C   UNL     1      -9.634  15.360  69.935  1.00  0.00    -0.109 C  
HETATM    7  C   UNL     1     -10.237  13.616  68.204  1.00  0.00    -0.247 A  
HETATM    8  C   UNL     1     -10.210  12.640  69.168  1.00  0.00     0.262 A  
HETATM    9  N   UNL     1     -10.548  11.369  68.947  1.00  0.00    -0.203 NA 
HETATM   10  C   UNL     1     -10.965  11.003  67.732  1.00  0.00    -0.269 A  
HETATM   11  N   UNL     1     -11.002  11.873  66.712  1.00  0.00    -0.277 NA 
HETATM   12  O   UNL     1      -9.647  16.015  65.095  1.00  0.00    -0.281 OA 
HETATM   13  C   UNL     1     -10.044  15.344  66.046  1.00  0.00    -0.324 C  
HETATM   14  C   UNL     1     -10.640  13.163  66.955  1.00  0.00    -0.263 A  
HETATM   15  N   UNL     1     -10.631  14.094  65.875  1.00  0.00    -0.290 N  
BRANCH  10  16
HETATM   16  N   UNL     1     -11.404   9.696  67.538  1.00  0.00    -0.344 NA 
HETATM   17  H   UNL     1     -12.409   9.541  67.611  1.00  0.00     0.000 HD 
BRANCH  16  18
HETATM   18  C   UNL     1     -10.621   8.571  67.254  1.00  0.00    -0.245 A  
HETATM   19  C   UNL     1      -8.853   7.635  66.070  1.00  0.00    -0.155 A  
HETATM   20  C   UNL     1     -10.952   7.295  67.693  1.00  0.00    -0.181 A  
HETATM   21  C   UNL     1     -10.273   6.180  67.210  1.00  0.00    -0.236 A  
HETATM   22  N   UNL     1      -9.528   8.752  66.488  1.00  0.00    -0.200 NA 
HETATM   23  C   UNL     1      -9.203   6.309  66.334  1.00  0.00    -0.156 A  
BRANCH  23  24
HETATM   24  N   UNL     1      -8.586   5.195  65.814  1.00  0.00    -0.130 NA 
HETATM   25  C   UNL     1      -9.370   4.059  65.288  1.00  0.00    -0.163 C  
HETATM   26  C   UNL     1      -9.096   3.867  63.779  1.00  0.00    -0.126 C  
HETATM   27  N   UNL     1      -7.664   3.713  63.463  1.00  0.00    -0.066 NA 
HETATM   28  C   UNL     1      -6.920   4.872  63.997  1.00  0.00    -0.049 C  
HETATM   29  H   UNL     1      -7.501   3.575  62.465  1.00  0.00     0.000 HD 
HETATM   30  C   UNL     1      -7.151   5.119  65.505  1.00  0.00    -0.067 C  
ENDBRANCH  23  24
ENDBRANCH  16  18
ENDBRANCH  10  16
BRANCH  15  31
HETATM   31  C   UNL     1     -10.913  13.582  64.524  1.00  0.00    -0.394 C  
HETATM   32  C   UNL     1     -10.209  12.271  64.124  1.00  0.00    -0.376 C  
HETATM   33  C   UNL     1     -12.406  13.320  64.280  1.00  0.00    -0.406 C  
HETATM   34  C   UNL     1     -11.064  11.746  62.979  1.00  0.00    -0.075 C  
HETATM   35  C   UNL     1     -12.492  12.093  63.376  1.00  0.00    -0.625 C  
ENDBRANCH  15  31
ENDBRANCH   2   4
TORSDOF 5
ENDMDL
MODEL       87
REMARK 921   NORMALIZED FREE ENERGY PREDICTED BY IDOCK:   -5.20 KCAL/MOL
REMARK 922        TOTAL FREE ENERGY PREDICTED BY IDOCK:   -7.31 KCAL/MOL
REMARK 923 INTER-LIGAND FREE ENERGY PREDICTED BY IDOCK:   -6.51 KCAL/MOL
REMARK 924 INTRA-LIGAND FREE ENERGY PREDICTED BY IDOCK:   -0.80 KCAL/MOL
REMARK 927      BINDING AFFINITY PREDICTED BY RF-SCORE:    0.00 PKD
ROOT
HETATM    1  C   UNL     1      -9.333  19.937  68.970  1.00  0.00    -0.117 C  
HETATM    2  C   UNL     1      -8.779  19.452  67.656  1.00  0.00    -0.309 C  
HETATM    3  O   UNL     1      -7.911  20.124  67.094  1.00  0.00    -0.300 OA 
ENDROOT
BRANCH   2   4
HETATM    4  C   UNL     1      -9.235  18.126  67.090  1.00  0.00    -0.256 C  
HETATM    5  C   UNL     1     -10.198  18.063  66.146  1.00  0.00    -0.364 C  
HETATM    6  C   UNL     1     -11.023  19.215  65.607  1.00  0.00    -0.056 C  
HETATM    7  C   UNL     1     -10.487  16.743  65.547  1.00  0.00    -0.254 A  
HETATM    8  C   UNL     1     -11.493  16.541  64.636  1.00  0.00     0.021 A  
HETATM    9  N   UNL     1     -11.740  15.367  64.051  1.00  0.00    -0.314 NA 
HETATM   10  C   UNL     1     -10.962  14.318  64.332  1.00  0.00    -0.188 A  
HETATM   11  N   UNL     1      -9.969  14.402  65.230  1.00  0.00    -0.335 NA 
HETATM   12  O   UNL     1      -8.068  16.851  68.694  1.00  0.00    -0.233 OA 
HETATM   13  C   UNL     1      -8.628  16.851  67.600  1.00  0.00    -0.208 C  
HETATM   14  C   UNL     1      -9.742  15.605  65.826  1.00  0.00    -0.345 A  
HETATM   15  N   UNL     1      -8.720  15.705  66.815  1.00  0.00    -0.247 N  
BRANCH  10  16
HETATM   16  N   UNL     1     -11.171  13.124  63.646  1.00  0.00    -0.589 NA 
HETATM   17  H   UNL     1     -11.914  13.128  62.949  1.00  0.00     0.000 HD 
BRANCH  16  18
HETATM   18  C   UNL     1     -10.474  11.921  63.806  1.00  0.00    -0.423 A  
HETATM   19  C   UNL     1      -9.885  10.141  65.180  1.00  0.00    -0.325 A  
HETATM   20  C   UNL     1      -9.563  11.450  62.870  1.00  0.00    -0.366 A  
HETATM   21  C   UNL     1      -8.736  10.370  63.165  1.00  0.00    -0.203 A  
HETATM   22  N   UNL     1     -10.683  11.228  64.942  1.00  0.00    -0.294 NA 
HETATM   23  C   UNL     1      -8.841   9.687  64.369  1.00  0.00    -0.230 A  
BRANCH  23  24
HETATM   24  N   UNL     1      -7.972   8.665  64.674  1.00  0.00    -0.133 NA 
HETATM   25  C   UNL     1      -6.569   8.937  65.047  1.00  0.00    -0.069 C  
HETATM   26  C   UNL     1      -6.293   8.458  66.491  1.00  0.00    -0.055 C  
HETATM   27  N   UNL     1      -6.633   7.041  66.709  1.00  0.00    -0.053 NA 
HETATM   28  C   UNL     1      -8.044   6.815  66.332  1.00  0.00    -0.110 C  
HETATM   29  H   UNL     1      -6.434   6.738  67.662  1.00  0.00     0.000 HD 
HETATM   30  C   UNL     1      -8.386   7.273  64.896  1.00  0.00    -0.016 C  
ENDBRANCH  23  24
ENDBRANCH  16  18
ENDBRANCH  10  16
BRANCH  15  31
HETATM   31  C   UNL     1      -8.030  14.468  67.218  1.00  0.00    -0.191 C  
HETATM   32  C   UNL     1      -6.502  14.558  67.390  1.00  0.00     0.074 C  
HETATM   33  C   UNL     1      -8.546  13.898  68.546  1.00  0.00    -0.137 C  
HETATM   34  C   UNL     1      -6.177  13.366  68.278  1.00  0.00    -0.102 C  
HETATM   35  C   UNL     1      -7.341  13.286  69.255  1.00  0.00     0.211 C  
ENDBRANCH  15  31
ENDBRANCH   2   4
TORSDOF 5
ENDMDL
MODEL       88
REMARK 921   NORMALIZED FREE ENERGY PREDICTED BY IDOCK:   -5.18 KCAL/MOL
REMARK 922        TOTAL FREE ENERGY PREDICTED BY IDOCK:   -7.28 KCAL/MOL
REMARK 923 INTER-LIGAND FREE ENERGY PREDICTED BY IDOCK:   -6.96 KCAL/MOL
REMARK 924 INTRA-LIGAND FREE ENERGY PREDICTED BY IDOCK:   -0.32 KCAL/MOL
REMARK 927      BINDING AFFINITY PREDICTED BY RF-SCORE:    0.00 PKD
ROOT
HETATM    1  C   UNL     1     -10.864   5.862  73.223  1.00  0.00    -0.291 C  
HETATM    2  C   UNL     1     -10.204   5.950  71.871  1.00  0.00    -0.203 C  
HETATM    3  O   UNL     1     -10.101   4.924  71.194  1.00  0.00    -0.199 OA 
ENDROOT
BRANCH   2   4
HETATM    4  C   UNL     1      -9.751   7.290  71.340  1.00  0.00    -0.170 C  
HETATM    5  C   UNL     1      -8.487   7.726  71.526  1.00  0.00    -0.129 C  
HETATM    6  C   UNL     1      -7.403   7.054  72.346  1.00  0.00    -0.084 C  
HETATM    7  C   UNL     1      -8.087   8.982  70.857  1.00  0.00    -0.203 A  
HETATM    8  C   UNL     1      -6.856   9.562  71.032  1.00  0.00    -0.032 A  
HETATM    9  N   UNL     1      -6.462  10.671  70.402  1.00  0.00    -0.257 NA 
HETATM   10  C   UNL     1      -7.284  11.255  69.527  1.00  0.00    -0.018 A  
HETATM   11  N   UNL     1      -8.520  10.784  69.303  1.00  0.00    -0.100 NA 
HETATM   12  O   UNL     1     -11.931   7.989  70.774  1.00  0.00    -0.242 OA 
HETATM   13  C   UNL     1     -10.726   8.171  70.613  1.00  0.00    -0.224 C  
HETATM   14  C   UNL     1      -8.909   9.660  69.967  1.00  0.00    -0.232 A  
HETATM   15  N   UNL     1     -10.233   9.168  69.776  1.00  0.00    -0.198 N  
BRANCH  10  16
HETATM   16  N   UNL     1      -6.827  12.356  68.807  1.00  0.00    -0.088 NA 
HETATM   17  H   UNL     1      -6.093  12.175  68.122  1.00  0.00     0.000 HD 
BRANCH  16  18
HETATM   18  C   UNL     1      -7.260  13.681  68.918  1.00  0.00    -0.083 A  
HETATM   19  C   UNL     1      -8.839  15.302  68.379  1.00  0.00    -0.179 A  
HETATM   20  C   UNL     1      -6.475  14.686  69.470  1.00  0.00    -0.138 A  
HETATM   21  C   UNL     1      -6.852  16.021  69.364  1.00  0.00    -0.215 A  
HETATM   22  N   UNL     1      -8.477  13.981  68.424  1.00  0.00    -0.165 NA 
HETATM   23  C   UNL     1      -8.051  16.388  68.768  1.00  0.00    -0.234 A  
BRANCH  23  24
HETATM   24  N   UNL     1      -8.378  17.715  68.611  1.00  0.00    -0.286 NA 
HETATM   25  C   UNL     1      -7.344  18.770  68.648  1.00  0.00    -0.307 C  
HETATM   26  C   UNL     1      -7.275  19.506  67.290  1.00  0.00    -0.213 C  
HETATM   27  N   UNL     1      -8.574  20.054  66.860  1.00  0.00    -0.325 NA 
HETATM   28  C   UNL     1      -9.575  18.968  66.828  1.00  0.00    -0.333 C  
HETATM   29  H   UNL     1      -8.509  20.547  65.969  1.00  0.00     0.000 HD 
HETATM   30  C   UNL     1      -9.693  18.191  68.158  1.00  0.00    -0.325 C  
ENDBRANCH  23  24
ENDBRANCH  16  18
ENDBRANCH  10  16
BRANCH  15  31
HETATM   31  C   UNL     1     -11.151   9.968  68.949  1.00  0.00    -0.176 C  
HETATM   32  C   UNL     1     -11.263  11.465  69.295  1.00  0.00    -0.342 C  
HETATM   33  C   UNL     1     -10.800   9.932  67.455  1.00  0.00    -0.293 C  
HETATM   34  C   UNL     1     -11.813  12.082  68.019  1.00  0.00    -0.338 C  
HETATM   35  C   UNL     1     -11.134  11.312  66.895  1.00  0.00    -0.339 C  
ENDBRANCH  15  31
ENDBRANCH   2   4
TORSDOF 5
ENDMDL
MODEL       89
REMARK 921   NORMALIZED FREE ENERGY PREDICTED BY IDOCK:   -5.15 KCAL/MOL
REMARK 922        TOTAL FREE ENERGY PREDICTED BY IDOCK:   -7.25 KCAL/MOL
REMARK 923 INTER-LIGAND FREE ENERGY PREDICTED BY IDOCK:   -6.94 KCAL/MOL
REMARK 924 INTRA-LIGAND FREE ENERGY PREDICTED BY IDOCK:   -0.31 KCAL/MOL
REMARK 927      BINDING AFFINITY PREDICTED BY RF-SCORE:    0.00 PKD
ROOT
HETATM    1  C   UNL     1      -5.996   3.973  65.069  1.00  0.00    -0.023 C  
HETATM    2  C   UNL     1      -6.584   3.464  66.360  1.00  0.00    -0.041 C  
HETATM    3  O   UNL     1      -6.320   2.314  66.718  1.00  0.00    -0.023 OA 
ENDROOT
BRANCH   2   4
HETATM    4  C   UNL     1      -7.415   4.385  67.223  1.00  0.00    -0.077 C  
HETATM    5  C   UNL     1      -8.706   4.643  66.929  1.00  0.00    -0.107 C  
HETATM    6  C   UNL     1      -9.470   4.188  65.700  1.00  0.00    -0.177 C  
HETATM    7  C   UNL     1      -9.486   5.442  67.898  1.00  0.00    -0.137 A  
HETATM    8  C   UNL     1     -10.783   5.832  67.673  1.00  0.00    -0.229 A  
HETATM    9  N   UNL     1     -11.516   6.513  68.555  1.00  0.00    -0.080 NA 
HETATM   10  C   UNL     1     -10.991   6.825  69.742  1.00  0.00    -0.297 A  
HETATM   11  N   UNL     1      -9.724   6.514  70.052  1.00  0.00    -0.165 NA 
HETATM   12  O   UNL     1      -5.569   5.147  68.478  1.00  0.00    -0.013 OA 
HETATM   13  C   UNL     1      -6.793   5.047  68.419  1.00  0.00    -0.056 C  
HETATM   14  C   UNL     1      -8.987   5.831  69.133  1.00  0.00    -0.118 A  
HETATM   15  N   UNL     1      -7.625   5.529  69.425  1.00  0.00    -0.077 N  
BRANCH  10  16
HETATM   16  N   UNL     1     -11.797   7.453  70.689  1.00  0.00    -0.465 NA 
HETATM   17  H   UNL     1     -12.352   6.842  71.287  1.00  0.00     0.000 HD 
BRANCH  16  18
HETATM   18  C   UNL     1     -11.930   8.828  70.911  1.00  0.00    -0.201 A  
HETATM   19  C   UNL     1     -13.010  10.560  72.025  1.00  0.00    -0.385 A  
HETATM   20  C   UNL     1     -11.295   9.782  70.125  1.00  0.00    -0.305 A  
HETATM   21  C   UNL     1     -11.623  11.129  70.239  1.00  0.00    -0.388 A  
HETATM   22  N   UNL     1     -12.746   9.221  71.908  1.00  0.00    -0.365 NA 
HETATM   23  C   UNL     1     -12.539  11.572  71.185  1.00  0.00    -0.359 A  
BRANCH  23  24
HETATM   24  N   UNL     1     -12.903  12.897  71.240  1.00  0.00    -0.329 NA 
HETATM   25  C   UNL     1     -13.640  13.443  72.400  1.00  0.00    -0.606 C  
HETATM   26  C   UNL     1     -12.798  14.525  73.113  1.00  0.00    -0.444 C  
HETATM   27  N   UNL     1     -12.355  15.604  72.212  1.00  0.00    -0.385 NA 
HETATM   28  C   UNL     1     -11.617  15.018  71.075  1.00  0.00    -0.322 C  
HETATM   29  H   UNL     1     -11.812  16.316  72.701  1.00  0.00     0.000 HD 
HETATM   30  C   UNL     1     -12.406  13.927  70.317  1.00  0.00    -0.345 C  
ENDBRANCH  23  24
ENDBRANCH  16  18
ENDBRANCH  10  16
BRANCH  15  31
HETATM   31  C   UNL     1      -7.052   6.070  70.670  1.00  0.00    -0.075 C  
HETATM   32  C   UNL     1      -7.228   7.581  70.907  1.00  0.00    -0.067 C  
HETATM   33  C   UNL     1      -7.617   5.402  71.931  1.00  0.00    -0.098 C  
HETATM   34  C   UNL     1      -7.039   7.727  72.410  1.00  0.00    -0.086 C  
HETATM   35  C   UNL     1      -7.695   6.487  73.001  1.00  0.00    -0.097 C  
ENDBRANCH  15  31
ENDBRANCH   2   4
TORSDOF 5
ENDMDL
MODEL       90
REMARK 921   NORMALIZED FREE ENERGY PREDICTED BY IDOCK:   -5.15 KCAL/MOL
REMARK 922        TOTAL FREE ENERGY PREDICTED BY IDOCK:   -7.24 KCAL/MOL
REMARK 923 INTER-LIGAND FREE ENERGY PREDICTED BY IDOCK:   -7.38 KCAL/MOL
REMARK 924 INTRA-LIGAND FREE ENERGY PREDICTED BY IDOCK:    0.13 KCAL/MOL
REMARK 927      BINDING AFFINITY PREDICTED BY RF-SCORE:    0.00 PKD
ROOT
HETATM    1  C   UNL     1      -9.517  18.392  68.454  1.00  0.00    -0.352 C  
HETATM    2  C   UNL     1     -10.069  17.039  68.821  1.00  0.00    -0.307 C  
HETATM    3  O   UNL     1     -10.867  16.959  69.758  1.00  0.00    -0.281 OA 
ENDROOT
BRANCH   2   4
HETATM    4  C   UNL     1      -9.700  15.827  67.998  1.00  0.00    -0.212 C  
HETATM    5  C   UNL     1      -8.718  14.988  68.389  1.00  0.00    -0.175 C  
HETATM    6  C   UNL     1      -7.792  15.160  69.577  1.00  0.00    -0.186 C  
HETATM    7  C   UNL     1      -8.514  13.754  67.601  1.00  0.00    -0.183 A  
HETATM    8  C   UNL     1      -7.500  12.864  67.856  1.00  0.00    -0.131 A  
HETATM    9  N   UNL     1      -7.328  11.724  67.185  1.00  0.00    -0.140 NA 
HETATM   10  C   UNL     1      -8.192  11.393  66.222  1.00  0.00    -0.088 A  
HETATM   11  N   UNL     1      -9.201  12.205  65.875  1.00  0.00    -0.133 NA 
HETATM   12  O   UNL     1     -11.008  16.480  66.147  1.00  0.00    -0.105 OA 
HETATM   13  C   UNL     1     -10.418  15.558  66.706  1.00  0.00    -0.295 C  
HETATM   14  C   UNL     1      -9.352  13.372  66.563  1.00  0.00    -0.215 A  
HETATM   15  N   UNL     1     -10.392  14.269  66.182  1.00  0.00    -0.290 N  
BRANCH  10  16
HETATM   16  N   UNL     1      -8.056  10.158  65.593  1.00  0.00    -0.142 NA 
HETATM   17  H   UNL     1      -7.567  10.157  64.699  1.00  0.00     0.000 HD 
BRANCH  16  18
HETATM   18  C   UNL     1      -8.515   8.918  66.052  1.00  0.00    -0.129 A  
HETATM   19  C   UNL     1      -8.165   6.629  66.261  1.00  0.00    -0.120 A  
HETATM   20  C   UNL     1      -9.803   8.726  66.538  1.00  0.00    -0.349 A  
HETATM   21  C   UNL     1     -10.288   7.444  66.777  1.00  0.00    -0.321 A  
HETATM   22  N   UNL     1      -7.670   7.873  65.971  1.00  0.00    -0.089 NA 
HETATM   23  C   UNL     1      -9.484   6.324  66.607  1.00  0.00    -0.152 A  
BRANCH  23  24
HETATM   24  N   UNL     1      -9.997   5.060  66.782  1.00  0.00    -0.192 NA 
HETATM   25  C   UNL     1     -10.250   4.168  65.632  1.00  0.00    -0.139 C  
HETATM   26  C   UNL     1      -9.371   2.900  65.729  1.00  0.00    -0.059 C  
HETATM   27  N   UNL     1      -9.531   2.178  67.004  1.00  0.00    -0.391 NA 
HETATM   28  C   UNL     1      -9.261   3.101  68.125  1.00  0.00    -0.195 C  
HETATM   29  H   UNL     1      -8.954   1.338  67.046  1.00  0.00     0.000 HD 
HETATM   30  C   UNL     1     -10.111   4.392  68.087  1.00  0.00     0.084 C  
ENDBRANCH  23  24
ENDBRANCH  16  18
ENDBRANCH  10  16
BRANCH  15  31
HETATM   31  C   UNL     1     -11.186  13.934  64.988  1.00  0.00    -0.342 C  
HETATM   32  C   UNL     1     -10.545  12.953  63.988  1.00  0.00    -0.418 C  
HETATM   33  C   UNL     1     -12.551  13.320  65.327  1.00  0.00    -0.528 C  
HETATM   34  C   UNL     1     -11.735  12.415  63.209  1.00  0.00    -0.466 C  
HETATM   35  C   UNL     1     -12.845  12.286  64.243  1.00  0.00    -0.336 C  
ENDBRANCH  15  31
ENDBRANCH   2   4
TORSDOF 5
ENDMDL
MODEL       91
REMARK 921   NORMALIZED FREE ENERGY PREDICTED BY IDOCK:   -5.15 KCAL/MOL
REMARK 922        TOTAL FREE ENERGY PREDICTED BY IDOCK:   -7.24 KCAL/MOL
REMARK 923 INTER-LIGAND FREE ENERGY PREDICTED BY IDOCK:   -7.62 KCAL/MOL
REMARK 924 INTRA-LIGAND FREE ENERGY PREDICTED BY IDOCK:    0.38 KCAL/MOL
REMARK 927      BINDING AFFINITY PREDICTED BY RF-SCORE:    0.00 PKD
ROOT
HETATM    1  C   UNL     1     -10.658  17.636  66.971  1.00  0.00    -0.254 C  
HETATM    2  C   UNL     1     -10.575  17.141  68.392  1.00  0.00    -0.371 C  
HETATM    3  O   UNL     1     -10.476  17.966  69.303  1.00  0.00    -0.225 OA 
ENDROOT
BRANCH   2   4
HETATM    4  C   UNL     1     -10.689  15.662  68.681  1.00  0.00    -0.256 C  
HETATM    5  C   UNL     1     -11.451  15.204  69.697  1.00  0.00    -0.314 C  
HETATM    6  C   UNL     1     -12.181  16.034  70.734  1.00  0.00    -0.254 C  
HETATM    7  C   UNL     1     -11.619  13.741  69.825  1.00  0.00    -0.324 A  
HETATM    8  C   UNL     1     -12.306  13.156  70.859  1.00  0.00    -0.307 A  
HETATM    9  N   UNL     1     -12.506  11.841  70.967  1.00  0.00    -0.359 NA 
HETATM   10  C   UNL     1     -12.044  11.027  70.015  1.00  0.00    -0.364 A  
HETATM   11  N   UNL     1     -11.336  11.494  68.976  1.00  0.00    -0.249 NA 
HETATM   12  O   UNL     1      -8.953  15.069  67.199  1.00  0.00    -0.194 OA 
HETATM   13  C   UNL     1      -9.926  14.678  67.842  1.00  0.00    -0.221 C  
HETATM   14  C   UNL     1     -11.130  12.838  68.891  1.00  0.00    -0.262 A  
HETATM   15  N   UNL     1     -10.344  13.351  67.818  1.00  0.00    -0.237 N  
BRANCH  10  16
HETATM   16  N   UNL     1     -12.340   9.669  70.090  1.00  0.00    -0.441 NA 
HETATM   17  H   UNL     1     -13.325   9.416  70.019  1.00  0.00     0.000 HD 
BRANCH  16  18
HETATM   18  C   UNL     1     -11.438   8.611  70.252  1.00  0.00    -0.076 A  
HETATM   19  C   UNL     1      -9.693   7.344  69.382  1.00  0.00    -0.159 A  
HETATM   20  C   UNL     1     -11.528   7.699  71.297  1.00  0.00    -0.293 A  
HETATM   21  C   UNL     1     -10.751   6.545  71.300  1.00  0.00    -0.280 A  
HETATM   22  N   UNL     1     -10.474   8.468  69.322  1.00  0.00    -0.222 NA 
HETATM   23  C   UNL     1      -9.815   6.301  70.303  1.00  0.00    -0.168 A  
BRANCH  23  24
HETATM   24  N   UNL     1      -9.103   5.124  70.284  1.00  0.00    -0.122 NA 
HETATM   25  C   UNL     1      -8.798   4.391  71.531  1.00  0.00    -0.118 C  
HETATM   26  C   UNL     1      -9.463   2.996  71.514  1.00  0.00    -0.146 C  
HETATM   27  N   UNL     1      -9.105   2.196  70.329  1.00  0.00    -0.088 NA 
HETATM   28  C   UNL     1      -9.434   2.959  69.107  1.00  0.00    -0.084 C  
HETATM   29  H   UNL     1      -9.542   1.274  70.338  1.00  0.00     0.000 HD 
HETATM   30  C   UNL     1      -8.797   4.367  69.062  1.00  0.00    -0.094 C  
ENDBRANCH  23  24
ENDBRANCH  16  18
ENDBRANCH  10  16
BRANCH  15  31
HETATM   31  C   UNL     1      -9.702  12.383  66.912  1.00  0.00    -0.215 C  
HETATM   32  C   UNL     1      -8.739  11.370  67.559  1.00  0.00    -0.140 C  
HETATM   33  C   UNL     1     -10.711  11.529  66.133  1.00  0.00    -0.324 C  
HETATM   34  C   UNL     1      -8.673  10.244  66.538  1.00  0.00    -0.139 C  
HETATM   35  C   UNL     1     -10.088  10.144  65.985  1.00  0.00    -0.317 C  
ENDBRANCH  15  31
ENDBRANCH   2   4
TORSDOF 5
ENDMDL
MODEL       92
REMARK 921   NORMALIZED FREE ENERGY PREDICTED BY IDOCK:   -5.14 KCAL/MOL
REMARK 922        TOTAL FREE ENERGY PREDICTED BY IDOCK:   -7.24 KCAL/MOL
REMARK 923 INTER-LIGAND FREE ENERGY PREDICTED BY IDOCK:   -7.28 KCAL/MOL
REMARK 924 INTRA-LIGAND FREE ENERGY PREDICTED BY IDOCK:    0.05 KCAL/MOL
REMARK 927      BINDING AFFINITY PREDICTED BY RF-SCORE:    0.00 PKD
ROOT
HETATM    1  C   UNL     1      -7.452   1.588  68.782  1.00  0.00    -0.042 C  
HETATM    2  C   UNL     1      -8.690   2.376  68.442  1.00  0.00    -0.093 C  
HETATM    3  O   UNL     1      -9.622   1.800  67.875  1.00  0.00    -0.156 OA 
ENDROOT
BRANCH   2   4
HETATM    4  C   UNL     1      -8.801   3.823  68.863  1.00  0.00    -0.158 C  
HETATM    5  C   UNL     1      -8.660   4.824  67.969  1.00  0.00    -0.105 C  
HETATM    6  C   UNL     1      -8.273   4.695  66.509  1.00  0.00    -0.107 C  
HETATM    7  C   UNL     1      -8.919   6.203  68.435  1.00  0.00    -0.115 A  
HETATM    8  C   UNL     1      -8.735   7.307  67.640  1.00  0.00    -0.125 A  
HETATM    9  N   UNL     1      -9.007   8.554  68.029  1.00  0.00    -0.141 NA 
HETATM   10  C   UNL     1      -9.512   8.766  69.247  1.00  0.00    -0.161 A  
HETATM   11  N   UNL     1      -9.704   7.760  70.111  1.00  0.00    -0.182 NA 
HETATM   12  O   UNL     1      -8.789   3.326  71.169  1.00  0.00    -0.075 OA 
HETATM   13  C   UNL     1      -9.047   4.162  70.305  1.00  0.00    -0.105 C  
HETATM   14  C   UNL     1      -9.407   6.495  69.701  1.00  0.00    -0.142 A  
HETATM   15  N   UNL     1      -9.563   5.416  70.619  1.00  0.00    -0.165 N  
BRANCH  10  16
HETATM   16  N   UNL     1      -9.879  10.061  69.605  1.00  0.00    -0.226 NA 
HETATM   17  H   UNL     1      -9.626  10.358  70.547  1.00  0.00     0.000 HD 
BRANCH  16  18
HETATM   18  C   UNL     1     -10.557  10.999  68.819  1.00  0.00    -0.202 A  
HETATM   19  C   UNL     1     -10.873  11.979  66.734  1.00  0.00    -0.266 A  
HETATM   20  C   UNL     1     -11.391  11.970  69.359  1.00  0.00    -0.317 A  
HETATM   21  C   UNL     1     -11.870  13.013  68.571  1.00  0.00    -0.360 A  
HETATM   22  N   UNL     1     -10.346  10.965  67.489  1.00  0.00    -0.193 NA 
HETATM   23  C   UNL     1     -11.591  13.078  67.212  1.00  0.00    -0.356 A  
BRANCH  23  24
HETATM   24  N   UNL     1     -12.016  14.150  66.461  1.00  0.00    -0.426 NA 
HETATM   25  C   UNL     1     -11.322  15.453  66.522  1.00  0.00    -0.098 C  
HETATM   26  C   UNL     1     -10.725  15.812  65.143  1.00  0.00    -0.435 C  
HETATM   27  N   UNL     1     -11.721  15.794  64.056  1.00  0.00    -1.020 NA 
HETATM   28  C   UNL     1     -12.383  14.474  64.024  1.00  0.00    -0.170 C  
HETATM   29  H   UNL     1     -11.314  16.045  63.155  1.00  0.00     0.000 HD 
HETATM   30  C   UNL     1     -13.003  14.055  65.376  1.00  0.00    -0.310 C  
ENDBRANCH  23  24
ENDBRANCH  16  18
ENDBRANCH  10  16
BRANCH  15  31
HETATM   31  C   UNL     1      -9.938   5.741  72.006  1.00  0.00    -0.175 C  
HETATM   32  C   UNL     1     -10.848   4.730  72.728  1.00  0.00    -0.280 C  
HETATM   33  C   UNL     1      -8.726   5.915  72.931  1.00  0.00    -0.124 C  
HETATM   34  C   UNL     1     -10.621   5.039  74.200  1.00  0.00    -0.338 C  
HETATM   35  C   UNL     1      -9.140   5.376  74.298  1.00  0.00    -0.118 C  
ENDBRANCH  15  31
ENDBRANCH   2   4
TORSDOF 5
ENDMDL
MODEL       93
REMARK 921   NORMALIZED FREE ENERGY PREDICTED BY IDOCK:   -5.14 KCAL/MOL
REMARK 922        TOTAL FREE ENERGY PREDICTED BY IDOCK:   -7.23 KCAL/MOL
REMARK 923 INTER-LIGAND FREE ENERGY PREDICTED BY IDOCK:   -7.63 KCAL/MOL
REMARK 924 INTRA-LIGAND FREE ENERGY PREDICTED BY IDOCK:    0.39 KCAL/MOL
REMARK 927      BINDING AFFINITY PREDICTED BY RF-SCORE:    0.00 PKD
ROOT
HETATM    1  C   UNL     1      -7.154  19.797  68.220  1.00  0.00    -0.336 C  
HETATM    2  C   UNL     1      -6.947  18.804  67.107  1.00  0.00    -0.200 C  
HETATM    3  O   UNL     1      -6.129  19.067  66.222  1.00  0.00    -0.167 OA 
ENDROOT
BRANCH   2   4
HETATM    4  C   UNL     1      -7.679  17.482  67.131  1.00  0.00    -0.228 C  
HETATM    5  C   UNL     1      -8.955  17.381  66.702  1.00  0.00    -0.274 C  
HETATM    6  C   UNL     1      -9.861  18.514  66.263  1.00  0.00    -0.352 C  
HETATM    7  C   UNL     1      -9.551  16.030  66.629  1.00  0.00    -0.258 A  
HETATM    8  C   UNL     1     -10.860  15.809  66.282  1.00  0.00    -0.232 A  
HETATM    9  N   UNL     1     -11.403  14.595  66.167  1.00  0.00    -0.349 NA 
HETATM   10  C   UNL     1     -10.644  13.516  66.373  1.00  0.00    -0.283 A  
HETATM   11  N   UNL     1      -9.359  13.622  66.743  1.00  0.00    -0.258 NA 
HETATM   12  O   UNL     1      -6.017  16.394  68.402  1.00  0.00    -0.114 OA 
HETATM   13  C   UNL     1      -6.990  16.259  67.664  1.00  0.00    -0.144 C  
HETATM   14  C   UNL     1      -8.828  14.870  66.869  1.00  0.00    -0.258 A  
HETATM   15  N   UNL     1      -7.477  15.006  67.304  1.00  0.00    -0.203 N  
BRANCH  10  16
HETATM   16  N   UNL     1     -11.196  12.256  66.159  1.00  0.00    -0.312 NA 
HETATM   17  H   UNL     1     -11.718  12.132  65.291  1.00  0.00     0.000 HD 
BRANCH  16  18
HETATM   18  C   UNL     1     -11.117  11.141  67.000  1.00  0.00    -0.273 A  
HETATM   19  C   UNL     1     -11.668  10.144  69.027  1.00  0.00     0.072 A  
HETATM   20  C   UNL     1     -10.277  10.064  66.743  1.00  0.00    -0.295 A  
HETATM   21  C   UNL     1     -10.066   9.083  67.707  1.00  0.00    -0.260 A  
HETATM   22  N   UNL     1     -11.865  11.152  68.120  1.00  0.00    -0.607 NA 
HETATM   23  C   UNL     1     -10.736   9.108  68.923  1.00  0.00    -0.141 A  
BRANCH  23  24
HETATM   24  N   UNL     1     -10.467   8.169  69.892  1.00  0.00    -0.222 NA 
HETATM   25  C   UNL     1      -9.752   8.531  71.134  1.00  0.00    -0.201 C  
HETATM   26  C   UNL     1     -10.658   8.296  72.364  1.00  0.00    -0.337 C  
HETATM   27  N   UNL     1     -11.191   6.925  72.441  1.00  0.00    -0.258 NA 
HETATM   28  C   UNL     1     -11.903   6.607  71.187  1.00  0.00    -0.360 C  
HETATM   29  H   UNL     1     -11.776   6.783  73.265  1.00  0.00     0.000 HD 
HETATM   30  C   UNL     1     -11.051   6.821  69.915  1.00  0.00    -0.323 C  
ENDBRANCH  23  24
ENDBRANCH  16  18
ENDBRANCH  10  16
BRANCH  15  31
HETATM   31  C   UNL     1      -6.756  13.784  67.700  1.00  0.00    -0.176 C  
HETATM   32  C   UNL     1      -5.401  13.983  68.405  1.00  0.00    -0.103 C  
HETATM   33  C   UNL     1      -7.567  12.888  68.646  1.00  0.00    -0.085 C  
HETATM   34  C   UNL     1      -5.183  12.663  69.129  1.00  0.00    -0.068 C  
HETATM   35  C   UNL     1      -6.568  12.256  69.612  1.00  0.00    -0.020 C  
ENDBRANCH  15  31
ENDBRANCH   2   4
TORSDOF 5
ENDMDL
MODEL       94
REMARK 921   NORMALIZED FREE ENERGY PREDICTED BY IDOCK:   -5.12 KCAL/MOL
REMARK 922        TOTAL FREE ENERGY PREDICTED BY IDOCK:   -7.20 KCAL/MOL
REMARK 923 INTER-LIGAND FREE ENERGY PREDICTED BY IDOCK:   -6.35 KCAL/MOL
REMARK 924 INTRA-LIGAND FREE ENERGY PREDICTED BY IDOCK:   -0.85 KCAL/MOL
REMARK 927      BINDING AFFINITY PREDICTED BY RF-SCORE:    0.00 PKD
ROOT
HETATM    1  C   UNL     1     -12.212   7.204  71.817  1.00  0.00    -0.379 C  
HETATM    2  C   UNL     1     -11.382   7.259  70.561  1.00  0.00    -0.280 C  
HETATM    3  O   UNL     1     -11.569   6.407  69.689  1.00  0.00    -0.417 OA 
ENDROOT
BRANCH   2   4
HETATM    4  C   UNL     1     -10.396   8.387  70.359  1.00  0.00    -0.219 C  
HETATM    5  C   UNL     1      -9.151   8.330  70.877  1.00  0.00    -0.176 C  
HETATM    6  C   UNL     1      -8.593   7.257  71.791  1.00  0.00    -0.121 C  
HETATM    7  C   UNL     1      -8.207   9.408  70.517  1.00  0.00    -0.221 A  
HETATM    8  C   UNL     1      -6.941   9.499  71.040  1.00  0.00    -0.015 A  
HETATM    9  N   UNL     1      -6.060  10.439  70.693  1.00  0.00    -0.184 NA 
HETATM   10  C   UNL     1      -6.394  11.341  69.768  1.00  0.00    -0.137 A  
HETATM   11  N   UNL     1      -7.616  11.358  69.214  1.00  0.00    -0.036 NA 
HETATM   12  O   UNL     1     -12.008   9.855  69.460  1.00  0.00     0.054 OA 
HETATM   13  C   UNL     1     -10.811   9.608  69.590  1.00  0.00    -0.244 C  
HETATM   14  C   UNL     1      -8.506  10.399  69.591  1.00  0.00    -0.049 A  
HETATM   15  N   UNL     1      -9.823  10.425  69.047  1.00  0.00    -0.202 N  
BRANCH  10  16
HETATM   16  N   UNL     1      -5.435  12.258  69.346  1.00  0.00    -0.070 NA 
HETATM   17  H   UNL     1      -4.477  11.914  69.285  1.00  0.00     0.000 HD 
BRANCH  16  18
HETATM   18  C   UNL     1      -5.638  13.598  68.998  1.00  0.00    -0.074 A  
HETATM   19  C   UNL     1      -6.443  15.699  69.586  1.00  0.00    -0.179 A  
HETATM   20  C   UNL     1      -5.436  14.079  67.710  1.00  0.00    -0.032 A  
HETATM   21  C   UNL     1      -5.855  15.357  67.355  1.00  0.00     0.063 A  
HETATM   22  N   UNL     1      -6.085  14.430  69.958  1.00  0.00    -0.139 NA 
HETATM   23  C   UNL     1      -6.420  16.217  68.289  1.00  0.00    -0.128 A  
BRANCH  23  24
HETATM   24  N   UNL     1      -6.890  17.453  67.908  1.00  0.00    -0.174 NA 
HETATM   25  C   UNL     1      -8.231  17.612  67.308  1.00  0.00    -0.213 C  
HETATM   26  C   UNL     1      -9.124  18.495  68.209  1.00  0.00    -0.317 C  
HETATM   27  N   UNL     1      -8.524  19.805  68.518  1.00  0.00    -0.281 NA 
HETATM   28  C   UNL     1      -7.192  19.601  69.123  1.00  0.00    -0.327 C  
HETATM   29  H   UNL     1      -9.131  20.380  69.103  1.00  0.00     0.000 HD 
HETATM   30  C   UNL     1      -6.248  18.724  68.269  1.00  0.00    -0.208 C  
ENDBRANCH  23  24
ENDBRANCH  16  18
ENDBRANCH  10  16
BRANCH  15  31
HETATM   31  C   UNL     1     -10.187  11.559  68.181  1.00  0.00    -0.194 C  
HETATM   32  C   UNL     1     -11.128  11.249  67.002  1.00  0.00    -0.356 C  
HETATM   33  C   UNL     1     -10.869  12.703  68.944  1.00  0.00    -0.238 C  
HETATM   34  C   UNL     1     -11.717  12.608  66.654  1.00  0.00    -0.464 C  
HETATM   35  C   UNL     1     -11.907  13.300  67.997  1.00  0.00    -0.392 C  
ENDBRANCH  15  31
ENDBRANCH   2   4
TORSDOF 5
ENDMDL
MODEL       95
REMARK 921   NORMALIZED FREE ENERGY PREDICTED BY IDOCK:   -5.11 KCAL/MOL
REMARK 922        TOTAL FREE ENERGY PREDICTED BY IDOCK:   -7.19 KCAL/MOL
REMARK 923 INTER-LIGAND FREE ENERGY PREDICTED BY IDOCK:   -8.00 KCAL/MOL
REMARK 924 INTRA-LIGAND FREE ENERGY PREDICTED BY IDOCK:    0.81 KCAL/MOL
REMARK 927      BINDING AFFINITY PREDICTED BY RF-SCORE:    0.00 PKD
ROOT
HETATM    1  C   UNL     1     -10.496   5.697  69.043  1.00  0.00    -0.321 C  
HETATM    2  C   UNL     1      -9.332   6.571  68.653  1.00  0.00    -0.125 C  
HETATM    3  O   UNL     1      -8.189   6.119  68.758  1.00  0.00    -0.106 OA 
ENDROOT
BRANCH   2   4
HETATM    4  C   UNL     1      -9.583   7.945  68.074  1.00  0.00    -0.168 C  
HETATM    5  C   UNL     1      -9.117   8.286  66.854  1.00  0.00    -0.181 C  
HETATM    6  C   UNL     1      -8.219   7.457  65.957  1.00  0.00    -0.130 C  
HETATM    7  C   UNL     1      -9.524   9.597  66.305  1.00  0.00    -0.255 A  
HETATM    8  C   UNL     1      -9.054  10.085  65.111  1.00  0.00    -0.204 A  
HETATM    9  N   UNL     1      -9.444  11.245  64.579  1.00  0.00    -0.215 NA 
HETATM   10  C   UNL     1     -10.362  11.980  65.211  1.00  0.00    -0.275 A  
HETATM   11  N   UNL     1     -10.865  11.608  66.397  1.00  0.00    -0.277 NA 
HETATM   12  O   UNL     1     -10.426   8.824  70.094  1.00  0.00    -0.202 OA 
HETATM   13  C   UNL     1     -10.344   8.962  68.875  1.00  0.00    -0.212 C  
HETATM   14  C   UNL     1     -10.443  10.427  66.931  1.00  0.00    -0.240 A  
HETATM   15  N   UNL     1     -10.933  10.033  68.210  1.00  0.00    -0.246 N  
BRANCH  10  16
HETATM   16  N   UNL     1     -10.829  13.141  64.600  1.00  0.00    -0.345 NA 
HETATM   17  H   UNL     1     -11.514  13.015  63.855  1.00  0.00     0.000 HD 
BRANCH  16  18
HETATM   18  C   UNL     1     -10.464  14.460  64.892  1.00  0.00    -0.423 A  
HETATM   19  C   UNL     1      -9.016  15.922  65.975  1.00  0.00    -0.302 A  
HETATM   20  C   UNL     1     -11.269  15.549  64.579  1.00  0.00    -0.327 A  
HETATM   21  C   UNL     1     -10.975  16.815  65.078  1.00  0.00    -0.118 A  
HETATM   22  N   UNL     1      -9.300  14.654  65.540  1.00  0.00     0.051 NA 
HETATM   23  C   UNL     1      -9.837  17.044  65.841  1.00  0.00    -0.177 A  
BRANCH  23  24
HETATM   24  N   UNL     1      -9.596  18.286  66.383  1.00  0.00    -0.373 NA 
HETATM   25  C   UNL     1     -10.566  19.390  66.232  1.00  0.00    -0.475 C  
HETATM   26  C   UNL     1     -11.099  19.832  67.614  1.00  0.00     0.065 C  
HETATM   27  N   UNL     1     -10.029  20.193  68.562  1.00  0.00    -0.314 NA 
HETATM   28  C   UNL     1      -9.089  19.061  68.690  1.00  0.00    -0.359 C  
HETATM   29  H   UNL     1     -10.398  20.494  69.464  1.00  0.00     0.000 HD 
HETATM   30  C   UNL     1      -8.518  18.570  67.340  1.00  0.00    -0.257 C  
ENDBRANCH  23  24
ENDBRANCH  16  18
ENDBRANCH  10  16
BRANCH  15  31
HETATM   31  C   UNL     1     -11.792  10.982  68.939  1.00  0.00    -0.308 C  
HETATM   32  C   UNL     1     -12.088  10.648  70.414  1.00  0.00    -0.430 C  
HETATM   33  C   UNL     1     -11.228  12.409  68.962  1.00  0.00    -0.320 C  
HETATM   34  C   UNL     1     -12.503  11.988  71.003  1.00  0.00    -0.376 C  
HETATM   35  C   UNL     1     -11.602  13.005  70.316  1.00  0.00    -0.060 C  
ENDBRANCH  15  31
ENDBRANCH   2   4
TORSDOF 5
ENDMDL
MODEL       96
REMARK 921   NORMALIZED FREE ENERGY PREDICTED BY IDOCK:   -5.08 KCAL/MOL
REMARK 922        TOTAL FREE ENERGY PREDICTED BY IDOCK:   -7.15 KCAL/MOL
REMARK 923 INTER-LIGAND FREE ENERGY PREDICTED BY IDOCK:   -6.20 KCAL/MOL
REMARK 924 INTRA-LIGAND FREE ENERGY PREDICTED BY IDOCK:   -0.95 KCAL/MOL
REMARK 927      BINDING AFFINITY PREDICTED BY RF-SCORE:    0.00 PKD
ROOT
HETATM    1  C   UNL     1      -9.356  17.533  68.302  1.00  0.00    -0.281 C  
HETATM    2  C   UNL     1     -10.176  16.534  67.527  1.00  0.00    -0.283 C  
HETATM    3  O   UNL     1     -10.828  16.926  66.557  1.00  0.00    -0.143 OA 
ENDROOT
BRANCH   2   4
HETATM    4  C   UNL     1     -10.126  15.070  67.900  1.00  0.00    -0.226 C  
HETATM    5  C   UNL     1     -10.999  14.543  68.785  1.00  0.00    -0.262 C  
HETATM    6  C   UNL     1     -12.036  15.293  69.599  1.00  0.00    -0.342 C  
HETATM    7  C   UNL     1     -10.973  13.080  68.989  1.00  0.00    -0.242 A  
HETATM    8  C   UNL     1     -11.758  12.440  69.916  1.00  0.00    -0.266 A  
HETATM    9  N   UNL     1     -11.780  11.116  70.082  1.00  0.00    -0.331 NA 
HETATM   10  C   UNL     1     -11.023  10.344  69.300  1.00  0.00    -0.242 A  
HETATM   11  N   UNL     1     -10.199  10.870  68.382  1.00  0.00    -0.171 NA 
HETATM   12  O   UNL     1      -8.061  14.694  66.825  1.00  0.00    -0.101 OA 
HETATM   13  C   UNL     1      -9.074  14.183  67.299  1.00  0.00    -0.213 C  
HETATM   14  C   UNL     1     -10.180  12.225  68.236  1.00  0.00    -0.220 A  
HETATM   15  N   UNL     1      -9.280  12.807  67.297  1.00  0.00    -0.196 N  
BRANCH  10  16
HETATM   16  N   UNL     1     -11.125   8.961  69.420  1.00  0.00    -0.436 NA 
HETATM   17  H   UNL     1     -11.792   8.615  70.110  1.00  0.00     0.000 HD 
BRANCH  16  18
HETATM   18  C   UNL     1     -10.415   7.992  68.702  1.00  0.00    -0.167 A  
HETATM   19  C   UNL     1      -8.425   6.839  68.363  1.00  0.00    -0.122 A  
HETATM   20  C   UNL     1     -10.907   7.406  67.542  1.00  0.00    -0.257 A  
HETATM   21  C   UNL     1     -10.087   6.615  66.743  1.00  0.00    -0.240 A  
HETATM   22  N   UNL     1      -9.190   7.659  69.150  1.00  0.00    -0.142 NA 
HETATM   23  C   UNL     1      -8.779   6.329  67.111  1.00  0.00    -0.109 A  
BRANCH  23  24
HETATM   24  N   UNL     1      -7.960   5.602  66.279  1.00  0.00    -0.100 NA 
HETATM   25  C   UNL     1      -7.586   4.207  66.597  1.00  0.00    -0.089 C  
HETATM   26  C   UNL     1      -8.118   3.246  65.510  1.00  0.00    -0.090 C  
HETATM   27  N   UNL     1      -7.689   3.611  64.148  1.00  0.00    -0.079 NA 
HETATM   28  C   UNL     1      -8.088   5.006  63.869  1.00  0.00    -0.119 C  
HETATM   29  H   UNL     1      -8.038   2.960  63.445  1.00  0.00     0.000 HD 
HETATM   30  C   UNL     1      -7.586   6.020  64.921  1.00  0.00    -0.092 C  
ENDBRANCH  23  24
ENDBRANCH  16  18
ENDBRANCH  10  16
BRANCH  15  31
HETATM   31  C   UNL     1      -8.335  11.913  66.605  1.00  0.00    -0.117 C  
HETATM   32  C   UNL     1      -7.509  10.965  67.495  1.00  0.00    -0.097 C  
HETATM   33  C   UNL     1      -9.015  11.000  65.576  1.00  0.00    -0.208 C  
HETATM   34  C   UNL     1      -7.071   9.871  66.532  1.00  0.00    -0.094 C  
HETATM   35  C   UNL     1      -8.264   9.672  65.608  1.00  0.00    -0.121 C  
ENDBRANCH  15  31
ENDBRANCH   2   4
TORSDOF 5
ENDMDL
MODEL       97
REMARK 921   NORMALIZED FREE ENERGY PREDICTED BY IDOCK:   -5.07 KCAL/MOL
REMARK 922        TOTAL FREE ENERGY PREDICTED BY IDOCK:   -7.14 KCAL/MOL
REMARK 923 INTER-LIGAND FREE ENERGY PREDICTED BY IDOCK:   -7.41 KCAL/MOL
REMARK 924 INTRA-LIGAND FREE ENERGY PREDICTED BY IDOCK:    0.27 KCAL/MOL
REMARK 927      BINDING AFFINITY PREDICTED BY RF-SCORE:    0.00 PKD
ROOT
HETATM    1  C   UNL     1     -10.647  18.166  65.965  1.00  0.00    -0.278 C  
HETATM    2  C   UNL     1     -10.861  16.841  65.281  1.00  0.00    -0.138 C  
HETATM    3  O   UNL     1     -11.200  16.833  64.095  1.00  0.00    -1.155 OA 
ENDROOT
BRANCH   2   4
HETATM    4  C   UNL     1     -10.588  15.556  66.029  1.00  0.00    -0.333 C  
HETATM    5  C   UNL     1     -11.399  14.484  65.897  1.00  0.00    -0.341 C  
HETATM    6  C   UNL     1     -12.704  14.417  65.127  1.00  0.00    -0.262 C  
HETATM    7  C   UNL     1     -10.986  13.225  66.552  1.00  0.00    -0.299 A  
HETATM    8  C   UNL     1     -11.762  12.094  66.553  1.00  0.00    -0.321 A  
HETATM    9  N   UNL     1     -11.386  10.936  67.100  1.00  0.00    -0.406 NA 
HETATM   10  C   UNL     1     -10.179  10.838  67.663  1.00  0.00    -0.189 A  
HETATM   11  N   UNL     1      -9.354  11.892  67.739  1.00  0.00    -0.178 NA 
HETATM   12  O   UNL     1      -8.910  16.506  67.386  1.00  0.00    -0.188 OA 
HETATM   13  C   UNL     1      -9.410  15.469  66.954  1.00  0.00    -0.233 C  
HETATM   14  C   UNL     1      -9.761  13.069  67.188  1.00  0.00    -0.230 A  
HETATM   15  N   UNL     1      -8.918  14.213  67.296  1.00  0.00    -0.203 N  
BRANCH  10  16
HETATM   16  N   UNL     1      -9.762   9.601  68.145  1.00  0.00    -0.144 NA 
HETATM   17  H   UNL     1      -9.349   9.595  69.078  1.00  0.00     0.000 HD 
BRANCH  16  18
HETATM   18  C   UNL     1      -9.844   8.364  67.495  1.00  0.00    -0.181 A  
HETATM   19  C   UNL     1     -10.845   6.272  67.336  1.00  0.00    -0.363 A  
HETATM   20  C   UNL     1      -8.915   7.949  66.549  1.00  0.00    -0.192 A  
HETATM   21  C   UNL     1      -8.908   6.635  66.090  1.00  0.00    -0.160 A  
HETATM   22  N   UNL     1     -10.853   7.544  67.845  1.00  0.00    -0.117 NA 
HETATM   23  C   UNL     1      -9.868   5.720  66.504  1.00  0.00    -0.161 A  
BRANCH  23  24
HETATM   24  N   UNL     1      -9.808   4.409  66.093  1.00  0.00    -0.212 NA 
HETATM   25  C   UNL     1     -10.364   3.987  64.790  1.00  0.00    -0.197 C  
HETATM   26  C   UNL     1      -9.244   3.432  63.881  1.00  0.00    -0.118 C  
HETATM   27  N   UNL     1      -8.475   2.341  64.506  1.00  0.00    -0.087 NA 
HETATM   28  C   UNL     1      -7.931   2.806  65.798  1.00  0.00    -0.082 C  
HETATM   29  H   UNL     1      -7.749   1.978  63.889  1.00  0.00     0.000 HD 
HETATM   30  C   UNL     1      -9.003   3.374  66.757  1.00  0.00    -0.154 C  
ENDBRANCH  23  24
ENDBRANCH  16  18
ENDBRANCH  10  16
BRANCH  15  31
HETATM   31  C   UNL     1      -7.689  14.087  68.098  1.00  0.00    -0.143 C  
HETATM   32  C   UNL     1      -6.403  14.673  67.483  1.00  0.00    -0.042 C  
HETATM   33  C   UNL     1      -7.802  14.743  69.480  1.00  0.00    -0.042 C  
HETATM   34  C   UNL     1      -5.495  14.871  68.687  1.00  0.00    -0.093 C  
HETATM   35  C   UNL     1      -6.428  15.324  69.802  1.00  0.00    -0.169 C  
ENDBRANCH  15  31
ENDBRANCH   2   4
TORSDOF 5
ENDMDL
MODEL       98
REMARK 921   NORMALIZED FREE ENERGY PREDICTED BY IDOCK:   -5.07 KCAL/MOL
REMARK 922        TOTAL FREE ENERGY PREDICTED BY IDOCK:   -7.14 KCAL/MOL
REMARK 923 INTER-LIGAND FREE ENERGY PREDICTED BY IDOCK:   -6.96 KCAL/MOL
REMARK 924 INTRA-LIGAND FREE ENERGY PREDICTED BY IDOCK:   -0.18 KCAL/MOL
REMARK 927      BINDING AFFINITY PREDICTED BY RF-SCORE:    0.00 PKD
ROOT
HETATM    1  C   UNL     1      -7.956   1.528  71.906  1.00  0.00    -0.041 C  
HETATM    2  C   UNL     1      -9.271   2.063  71.400  1.00  0.00    -0.103 C  
HETATM    3  O   UNL     1     -10.314   1.528  71.781  1.00  0.00    -0.147 OA 
ENDROOT
BRANCH   2   4
HETATM    4  C   UNL     1      -9.294   3.280  70.504  1.00  0.00    -0.228 C  
HETATM    5  C   UNL     1      -8.872   3.214  69.224  1.00  0.00    -0.154 C  
HETATM    6  C   UNL     1      -8.230   2.025  68.536  1.00  0.00    -0.073 C  
HETATM    7  C   UNL     1      -9.057   4.411  68.376  1.00  0.00    -0.165 A  
HETATM    8  C   UNL     1      -8.600   4.490  67.085  1.00  0.00    -0.104 A  
HETATM    9  N   UNL     1      -8.797   5.544  66.291  1.00  0.00    -0.129 NA 
HETATM   10  C   UNL     1      -9.498   6.585  66.746  1.00  0.00    -0.158 A  
HETATM   11  N   UNL     1      -9.965   6.621  68.003  1.00  0.00    -0.137 NA 
HETATM   12  O   UNL     1      -9.780   4.773  72.264  1.00  0.00    -0.149 OA 
HETATM   13  C   UNL     1      -9.772   4.596  71.047  1.00  0.00    -0.188 C  
HETATM   14  C   UNL     1      -9.741   5.541  68.802  1.00  0.00    -0.143 A  
HETATM   15  N   UNL     1     -10.192   5.576  70.154  1.00  0.00    -0.240 N  
BRANCH  10  16
HETATM   16  N   UNL     1      -9.777   7.638  65.878  1.00  0.00    -0.398 NA 
HETATM   17  H   UNL     1      -9.897   7.394  64.896  1.00  0.00     0.000 HD 
BRANCH  16  18
HETATM   18  C   UNL     1      -9.911   8.993  66.203  1.00  0.00    -0.278 A  
HETATM   19  C   UNL     1      -9.743  11.215  65.541  1.00  0.00    -0.228 A  
HETATM   20  C   UNL     1     -10.128   9.437  67.502  1.00  0.00    -0.268 A  
HETATM   21  C   UNL     1     -10.037  10.790  67.814  1.00  0.00    -0.201 A  
HETATM   22  N   UNL     1      -9.779   9.887  65.205  1.00  0.00    -0.307 NA 
HETATM   23  C   UNL     1      -9.798  11.743  66.833  1.00  0.00    -0.203 A  
BRANCH  23  24
HETATM   24  N   UNL     1      -9.645  13.069  67.167  1.00  0.00    -0.223 NA 
HETATM   25  C   UNL     1     -10.792  13.883  67.622  1.00  0.00    -0.254 C  
HETATM   26  C   UNL     1     -10.564  14.373  69.070  1.00  0.00    -0.237 C  
HETATM   27  N   UNL     1      -9.295  15.102  69.245  1.00  0.00    -0.303 NA 
HETATM   28  C   UNL     1      -8.177  14.252  68.787  1.00  0.00    -0.102 C  
HETATM   29  H   UNL     1      -9.166  15.429  70.202  1.00  0.00     0.000 HD 
HETATM   30  C   UNL     1      -8.343  13.728  67.343  1.00  0.00    -0.193 C  
ENDBRANCH  23  24
ENDBRANCH  16  18
ENDBRANCH  10  16
BRANCH  15  31
HETATM   31  C   UNL     1     -10.785   6.830  70.649  1.00  0.00    -0.235 C  
HETATM   32  C   UNL     1     -12.096   6.702  71.449  1.00  0.00    -0.400 C  
HETATM   33  C   UNL     1      -9.840   7.624  71.560  1.00  0.00    -0.192 C  
HETATM   34  C   UNL     1     -12.157   8.003  72.235  1.00  0.00    -0.392 C  
HETATM   35  C   UNL     1     -10.713   8.287  72.623  1.00  0.00    -0.384 C  
ENDBRANCH  15  31
ENDBRANCH   2   4
TORSDOF 5
ENDMDL
MODEL       99
REMARK 921   NORMALIZED FREE ENERGY PREDICTED BY IDOCK:   -5.07 KCAL/MOL
REMARK 922        TOTAL FREE ENERGY PREDICTED BY IDOCK:   -7.14 KCAL/MOL
REMARK 923 INTER-LIGAND FREE ENERGY PREDICTED BY IDOCK:   -7.53 KCAL/MOL
REMARK 924 INTRA-LIGAND FREE ENERGY PREDICTED BY IDOCK:    0.39 KCAL/MOL
REMARK 927      BINDING AFFINITY PREDICTED BY RF-SCORE:    0.00 PKD
ROOT
HETATM    1  C   UNL     1     -10.593  18.086  66.078  1.00  0.00    -0.258 C  
HETATM    2  C   UNL     1     -10.777  16.802  65.311  1.00  0.00    -0.169 C  
HETATM    3  O   UNL     1     -11.202  16.858  64.154  1.00  0.00    -1.176 OA 
ENDROOT
BRANCH   2   4
HETATM    4  C   UNL     1     -10.373  15.487  65.937  1.00  0.00    -0.365 C  
HETATM    5  C   UNL     1     -11.097  14.366  65.738  1.00  0.00    -0.316 C  
HETATM    6  C   UNL     1     -12.420  14.254  65.005  1.00  0.00    -0.409 C  
HETATM    7  C   UNL     1     -10.559  13.096  66.270  1.00  0.00    -0.292 A  
HETATM    8  C   UNL     1     -11.240  11.907  66.197  1.00  0.00    -0.333 A  
HETATM    9  N   UNL     1     -10.751  10.744  66.631  1.00  0.00    -0.236 NA 
HETATM   10  C   UNL     1      -9.520  10.702  67.147  1.00  0.00    -0.156 A  
HETATM   11  N   UNL     1      -8.781  11.812  67.289  1.00  0.00    -0.157 NA 
HETATM   12  O   UNL     1      -8.729  16.460  67.320  1.00  0.00    -0.175 OA 
HETATM   13  C   UNL     1      -9.158  15.424  66.816  1.00  0.00    -0.259 C  
HETATM   14  C   UNL     1      -9.304  12.992  66.853  1.00  0.00    -0.241 A  
HETATM   15  N   UNL     1      -8.552  14.190  67.034  1.00  0.00    -0.209 N  
BRANCH  10  16
HETATM   16  N   UNL     1      -8.986   9.468  67.509  1.00  0.00    -0.125 NA 
HETATM   17  H   UNL     1      -8.579   8.914  66.756  1.00  0.00     0.000 HD 
BRANCH  16  18
HETATM   18  C   UNL     1      -8.944   8.904  68.789  1.00  0.00    -0.134 A  
HETATM   19  C   UNL     1      -9.120   7.011  70.127  1.00  0.00    -0.149 A  
HETATM   20  C   UNL     1      -8.896   9.671  69.947  1.00  0.00    -0.240 A  
HETATM   21  C   UNL     1      -9.076   9.083  71.195  1.00  0.00    -0.316 A  
HETATM   22  N   UNL     1      -8.993   7.561  68.879  1.00  0.00    -0.134 NA 
HETATM   23  C   UNL     1      -9.236   7.710  71.331  1.00  0.00    -0.136 A  
BRANCH  23  24
HETATM   24  N   UNL     1      -9.479   7.152  72.565  1.00  0.00    -0.141 NA 
HETATM   25  C   UNL     1     -10.858   6.913  73.041  1.00  0.00    -0.296 C  
HETATM   26  C   UNL     1     -11.100   5.402  73.256  1.00  0.00    -0.297 C  
HETATM   27  N   UNL     1     -10.113   4.777  74.156  1.00  0.00    -0.181 NA 
HETATM   28  C   UNL     1      -8.753   5.032  73.640  1.00  0.00    -0.106 C  
HETATM   29  H   UNL     1     -10.294   3.783  74.297  1.00  0.00     0.000 HD 
HETATM   30  C   UNL     1      -8.446   6.528  73.403  1.00  0.00    -0.119 C  
ENDBRANCH  23  24
ENDBRANCH  16  18
ENDBRANCH  10  16
BRANCH  15  31
HETATM   31  C   UNL     1      -7.289  14.102  67.785  1.00  0.00    -0.167 C  
HETATM   32  C   UNL     1      -6.161  15.057  67.349  1.00  0.00     0.071 C  
HETATM   33  C   UNL     1      -7.463  14.355  69.288  1.00  0.00    -0.060 C  
HETATM   34  C   UNL     1      -5.255  15.114  68.569  1.00  0.00    -0.100 C  
HETATM   35  C   UNL     1      -6.207  15.086  69.756  1.00  0.00    -0.143 C  
ENDBRANCH  15  31
ENDBRANCH   2   4
TORSDOF 5
ENDMDL
MODEL      100
REMARK 921   NORMALIZED FREE ENERGY PREDICTED BY IDOCK:   -5.04 KCAL/MOL
REMARK 922        TOTAL FREE ENERGY PREDICTED BY IDOCK:   -7.11 KCAL/MOL
REMARK 923 INTER-LIGAND FREE ENERGY PREDICTED BY IDOCK:   -6.84 KCAL/MOL
REMARK 924 INTRA-LIGAND FREE ENERGY PREDICTED BY IDOCK:   -0.26 KCAL/MOL
REMARK 927      BINDING AFFINITY PREDICTED BY RF-SCORE:    0.00 PKD
ROOT
HETATM    1  C   UNL     1      -6.594  18.625  69.100  1.00  0.00    -0.289 C  
HETATM    2  C   UNL     1      -7.754  18.465  68.152  1.00  0.00    -0.290 C  
HETATM    3  O   UNL     1      -7.940  19.329  67.291  1.00  0.00    -0.254 OA 
ENDROOT
BRANCH   2   4
HETATM    4  C   UNL     1      -8.617  17.227  68.221  1.00  0.00    -0.247 C  
HETATM    5  C   UNL     1      -8.314  16.122  67.509  1.00  0.00    -0.175 C  
HETATM    6  C   UNL     1      -7.202  15.972  66.489  1.00  0.00     0.164 C  
HETATM    7  C   UNL     1      -9.129  14.910  67.739  1.00  0.00    -0.185 A  
HETATM    8  C   UNL     1      -8.965  13.752  67.021  1.00  0.00    -0.238 A  
HETATM    9  N   UNL     1      -9.660  12.635  67.245  1.00  0.00    -0.198 NA 
HETATM   10  C   UNL     1     -10.555  12.607  68.235  1.00  0.00    -0.237 A  
HETATM   11  N   UNL     1     -10.811  13.693  68.980  1.00  0.00    -0.235 NA 
HETATM   12  O   UNL     1     -10.351  18.299  69.407  1.00  0.00    -0.130 OA 
HETATM   13  C   UNL     1      -9.850  17.226  69.079  1.00  0.00    -0.237 C  
HETATM   14  C   UNL     1     -10.101  14.828  68.726  1.00  0.00    -0.237 A  
HETATM   15  N   UNL     1     -10.389  16.006  69.476  1.00  0.00    -0.260 N  
BRANCH  10  16
HETATM   16  N   UNL     1     -11.205  11.409  68.520  1.00  0.00    -0.226 NA 
HETATM   17  H   UNL     1     -12.205  11.472  68.711  1.00  0.00     0.000 HD 
BRANCH  16  18
HETATM   18  C   UNL     1     -10.641  10.130  68.574  1.00  0.00    -0.216 A  
HETATM   19  C   UNL     1     -10.376   8.038  67.594  1.00  0.00    -0.246 A  
HETATM   20  C   UNL     1      -9.994   9.640  69.702  1.00  0.00    -0.239 A  
HETATM   21  C   UNL     1      -9.643   8.297  69.792  1.00  0.00    -0.171 A  
HETATM   22  N   UNL     1     -10.778   9.344  67.489  1.00  0.00    -0.268 NA 
HETATM   23  C   UNL     1      -9.860   7.421  68.736  1.00  0.00    -0.164 A  
BRANCH  23  24
HETATM   24  N   UNL     1      -9.568   6.083  68.865  1.00  0.00    -0.125 NA 
HETATM   25  C   UNL     1      -8.207   5.566  68.611  1.00  0.00    -0.102 C  
HETATM   26  C   UNL     1      -7.617   4.946  69.897  1.00  0.00    -0.056 C  
HETATM   27  N   UNL     1      -8.476   3.904  70.488  1.00  0.00    -0.068 NA 
HETATM   28  C   UNL     1      -9.822   4.463  70.733  1.00  0.00    -0.203 C  
HETATM   29  H   UNL     1      -8.067   3.496  71.328  1.00  0.00     0.000 HD 
HETATM   30  C   UNL     1     -10.469   5.100  69.483  1.00  0.00    -0.163 C  
ENDBRANCH  23  24
ENDBRANCH  16  18
ENDBRANCH  10  16
BRANCH  15  31
HETATM   31  C   UNL     1     -11.519  15.961  70.418  1.00  0.00    -0.378 C  
HETATM   32  C   UNL     1     -12.825  15.331  69.897  1.00  0.00    -0.036 C  
HETATM   33  C   UNL     1     -11.197  15.195  71.709  1.00  0.00    -0.299 C  
HETATM   34  C   UNL     1     -13.568  14.955  71.171  1.00  0.00    -0.467 C  
HETATM   35  C   UNL     1     -12.480  14.481  72.124  1.00  0.00    -0.371 C  
ENDBRANCH  15  31
ENDBRANCH   2   4
TORSDOF 5
ENDMDL
MODEL      101
REMARK 921   NORMALIZED FREE ENERGY PREDICTED BY IDOCK:   -5.02 KCAL/MOL
REMARK 922        TOTAL FREE ENERGY PREDICTED BY IDOCK:   -7.08 KCAL/MOL
REMARK 923 INTER-LIGAND FREE ENERGY PREDICTED BY IDOCK:   -6.40 KCAL/MOL
REMARK 924 INTRA-LIGAND FREE ENERGY PREDICTED BY IDOCK:   -0.68 KCAL/MOL
REMARK 927      BINDING AFFINITY PREDICTED BY RF-SCORE:    0.00 PKD
ROOT
HETATM    1  C   UNL     1     -11.293   5.075  73.312  1.00  0.00    -0.393 C  
HETATM    2  C   UNL     1     -10.407   5.022  72.094  1.00  0.00    -0.215 C  
HETATM    3  O   UNL     1     -10.215   3.933  71.548  1.00  0.00    -0.121 OA 
ENDROOT
BRANCH   2   4
HETATM    4  C   UNL     1      -9.836   6.299  71.523  1.00  0.00    -0.193 C  
HETATM    5  C   UNL     1      -8.672   6.809  71.976  1.00  0.00    -0.126 C  
HETATM    6  C   UNL     1      -7.845   6.298  73.140  1.00  0.00    -0.106 C  
HETATM    7  C   UNL     1      -8.114   7.983  71.271  1.00  0.00    -0.110 A  
HETATM    8  C   UNL     1      -6.979   8.634  71.686  1.00  0.00    -0.085 A  
HETATM    9  N   UNL     1      -6.437   9.666  71.037  1.00  0.00    -0.219 NA 
HETATM   10  C   UNL     1      -6.996  10.094  69.902  1.00  0.00    -0.133 A  
HETATM   11  N   UNL     1      -8.123   9.545  69.425  1.00  0.00    -0.106 NA 
HETATM   12  O   UNL     1     -11.787   6.823  70.306  1.00  0.00    -0.364 OA 
HETATM   13  C   UNL     1     -10.584   7.033  70.448  1.00  0.00    -0.223 C  
HETATM   14  C   UNL     1      -8.669   8.501  70.110  1.00  0.00    -0.137 A  
HETATM   15  N   UNL     1      -9.890   7.932  69.643  1.00  0.00    -0.177 N  
BRANCH  10  16
HETATM   16  N   UNL     1      -6.368  11.109  69.185  1.00  0.00    -0.057 NA 
HETATM   17  H   UNL     1      -5.373  10.983  69.000  1.00  0.00     0.000 HD 
BRANCH  16  18
HETATM   18  C   UNL     1      -6.948  12.282  68.691  1.00  0.00    -0.097 A  
HETATM   19  C   UNL     1      -7.491  14.518  69.026  1.00  0.00    -0.131 A  
HETATM   20  C   UNL     1      -7.702  12.315  67.524  1.00  0.00    -0.158 A  
HETATM   21  C   UNL     1      -8.438  13.446  67.185  1.00  0.00    -0.179 A  
HETATM   22  N   UNL     1      -6.790  13.407  69.415  1.00  0.00    -0.049 NA 
HETATM   23  C   UNL     1      -8.390  14.598  67.960  1.00  0.00    -0.146 A  
BRANCH  23  24
HETATM   24  N   UNL     1      -9.175  15.684  67.649  1.00  0.00    -0.193 NA 
HETATM   25  C   UNL     1     -10.650  15.599  67.681  1.00  0.00    -0.294 C  
HETATM   26  C   UNL     1     -11.223  16.564  68.744  1.00  0.00    -0.277 C  
HETATM   27  N   UNL     1     -10.777  17.958  68.564  1.00  0.00    -0.310 NA 
HETATM   28  C   UNL     1      -9.300  17.999  68.547  1.00  0.00    -0.304 C  
HETATM   29  H   UNL     1     -11.173  18.584  69.265  1.00  0.00     0.000 HD 
HETATM   30  C   UNL     1      -8.663  17.054  67.503  1.00  0.00    -0.210 C  
ENDBRANCH  23  24
ENDBRANCH  16  18
ENDBRANCH  10  16
BRANCH  15  31
HETATM   31  C   UNL     1     -10.556   8.576  68.499  1.00  0.00    -0.111 C  
HETATM   32  C   UNL     1     -10.719  10.106  68.569  1.00  0.00    -0.264 C  
HETATM   33  C   UNL     1      -9.844   8.314  67.164  1.00  0.00    -0.281 C  
HETATM   34  C   UNL     1     -10.920  10.507  67.116  1.00  0.00    -0.294 C  
HETATM   35  C   UNL     1      -9.999   9.584  66.331  1.00  0.00    -0.339 C  
ENDBRANCH  15  31
ENDBRANCH   2   4
TORSDOF 5
ENDMDL
MODEL      102
REMARK 921   NORMALIZED FREE ENERGY PREDICTED BY IDOCK:   -5.02 KCAL/MOL
REMARK 922        TOTAL FREE ENERGY PREDICTED BY IDOCK:   -7.08 KCAL/MOL
REMARK 923 INTER-LIGAND FREE ENERGY PREDICTED BY IDOCK:   -6.61 KCAL/MOL
REMARK 924 INTRA-LIGAND FREE ENERGY PREDICTED BY IDOCK:   -0.47 KCAL/MOL
REMARK 927      BINDING AFFINITY PREDICTED BY RF-SCORE:    0.00 PKD
ROOT
HETATM    1  C   UNL     1     -10.462  19.507  66.351  1.00  0.00    -0.597 C  
HETATM    2  C   UNL     1      -9.466  19.140  67.421  1.00  0.00    -0.305 C  
HETATM    3  O   UNL     1      -8.971  20.039  68.103  1.00  0.00    -0.291 OA 
ENDROOT
BRANCH   2   4
HETATM    4  C   UNL     1      -9.151  17.686  67.688  1.00  0.00    -0.241 C  
HETATM    5  C   UNL     1      -8.014  17.121  67.232  1.00  0.00    -0.200 C  
HETATM    6  C   UNL     1      -6.976  17.762  66.329  1.00  0.00    -0.315 C  
HETATM    7  C   UNL     1      -7.716  15.736  67.653  1.00  0.00    -0.174 A  
HETATM    8  C   UNL     1      -6.631  15.032  67.194  1.00  0.00     0.318 A  
HETATM    9  N   UNL     1      -6.322  13.798  67.598  1.00  0.00    -0.252 NA 
HETATM   10  C   UNL     1      -7.081  13.201  68.520  1.00  0.00    -0.105 A  
HETATM   11  N   UNL     1      -8.180  13.791  69.014  1.00  0.00     0.104 NA 
HETATM   12  O   UNL     1     -11.301  17.202  68.530  1.00  0.00    -0.089 OA 
HETATM   13  C   UNL     1     -10.128  16.841  68.454  1.00  0.00    -0.285 C  
HETATM   14  C   UNL     1      -8.487  15.045  68.578  1.00  0.00    -0.163 A  
HETATM   15  N   UNL     1      -9.673  15.672  69.057  1.00  0.00    -0.224 N  
BRANCH  10  16
HETATM   16  N   UNL     1      -6.696  11.953  69.002  1.00  0.00    -0.093 NA 
HETATM   17  H   UNL     1      -5.713  11.707  68.885  1.00  0.00     0.000 HD 
BRANCH  16  18
HETATM   18  C   UNL     1      -7.505  10.998  69.628  1.00  0.00     0.039 A  
HETATM   19  C   UNL     1      -7.696   9.263  71.164  1.00  0.00    -0.009 A  
HETATM   20  C   UNL     1      -8.797  10.714  69.204  1.00  0.00    -0.133 A  
HETATM   21  C   UNL     1      -9.484   9.614  69.709  1.00  0.00    -0.242 A  
HETATM   22  N   UNL     1      -6.972  10.310  70.656  1.00  0.00    -0.324 NA 
HETATM   23  C   UNL     1      -8.933   8.810  70.698  1.00  0.00    -0.186 A  
BRANCH  23  24
HETATM   24  N   UNL     1      -9.596   7.688  71.140  1.00  0.00    -0.159 NA 
HETATM   25  C   UNL     1      -9.053   6.856  72.234  1.00  0.00    -0.134 C  
HETATM   26  C   UNL     1     -10.016   6.860  73.443  1.00  0.00    -0.236 C  
HETATM   27  N   UNL     1     -11.387   6.447  73.095  1.00  0.00    -0.471 NA 
HETATM   28  C   UNL     1     -11.894   7.307  72.006  1.00  0.00    -0.296 C  
HETATM   29  H   UNL     1     -12.006   6.442  73.905  1.00  0.00     0.000 HD 
HETATM   30  C   UNL     1     -10.975   7.347  70.764  1.00  0.00    -0.255 C  
ENDBRANCH  23  24
ENDBRANCH  16  18
ENDBRANCH  10  16
BRANCH  15  31
HETATM   31  C   UNL     1     -10.567  14.883  69.922  1.00  0.00    -0.129 C  
HETATM   32  C   UNL     1     -11.162  15.611  71.143  1.00  0.00    -0.409 C  
HETATM   33  C   UNL     1     -11.779  14.312  69.172  1.00  0.00    -0.360 C  
HETATM   34  C   UNL     1     -12.380  14.771  71.495  1.00  0.00    -0.404 C  
HETATM   35  C   UNL     1     -12.949  14.336  70.152  1.00  0.00     0.012 C  
ENDBRANCH  15  31
ENDBRANCH   2   4
TORSDOF 5
ENDMDL
MODEL      103
REMARK 921   NORMALIZED FREE ENERGY PREDICTED BY IDOCK:   -4.85 KCAL/MOL
REMARK 922        TOTAL FREE ENERGY PREDICTED BY IDOCK:   -6.86 KCAL/MOL
REMARK 923 INTER-LIGAND FREE ENERGY PREDICTED BY IDOCK:   -6.26 KCAL/MOL
REMARK 924 INTRA-LIGAND FREE ENERGY PREDICTED BY IDOCK:   -0.60 KCAL/MOL
REMARK 927      BINDING AFFINITY PREDICTED BY RF-SCORE:    0.00 PKD
ROOT
HETATM    1  C   UNL     1      -9.572  19.662  67.215  1.00  0.00    -0.459 C  
HETATM    2  C   UNL     1      -9.482  18.654  68.331  1.00  0.00    -0.343 C  
HETATM    3  O   UNL     1      -9.991  18.929  69.420  1.00  0.00    -0.227 OA 
ENDROOT
BRANCH   2   4
HETATM    4  C   UNL     1      -8.841  17.308  68.080  1.00  0.00    -0.239 C  
HETATM    5  C   UNL     1      -7.613  17.018  68.557  1.00  0.00    -0.231 C  
HETATM    6  C   UNL     1      -6.668  17.961  69.276  1.00  0.00    -0.213 C  
HETATM    7  C   UNL     1      -7.118  15.636  68.387  1.00  0.00    -0.115 A  
HETATM    8  C   UNL     1      -5.858  15.242  68.762  1.00  0.00    -0.088 A  
HETATM    9  N   UNL     1      -5.410  13.989  68.657  1.00  0.00    -0.084 NA 
HETATM   10  C   UNL     1      -6.223  13.040  68.187  1.00  0.00    -0.102 A  
HETATM   11  N   UNL     1      -7.465  13.323  67.768  1.00  0.00    -0.137 NA 
HETATM   12  O   UNL     1     -10.471  16.640  66.512  1.00  0.00    -0.302 OA 
HETATM   13  C   UNL     1      -9.569  16.278  67.266  1.00  0.00    -0.230 C  
HETATM   14  C   UNL     1      -7.898  14.611  67.869  1.00  0.00    -0.136 A  
HETATM   15  N   UNL     1      -9.199  14.943  67.389  1.00  0.00    -0.189 N  
BRANCH  10  16
HETATM   16  N   UNL     1      -5.776  11.721  68.171  1.00  0.00    -0.046 NA 
HETATM   17  H   UNL     1      -4.812  11.574  67.875  1.00  0.00     0.000 HD 
BRANCH  16  18
HETATM   18  C   UNL     1      -6.502  10.575  68.515  1.00  0.00    -0.055 A  
HETATM   19  C   UNL     1      -7.125   9.039  70.147  1.00  0.00    -0.052 A  
HETATM   20  C   UNL     1      -7.117   9.762  67.571  1.00  0.00    -0.088 A  
HETATM   21  C   UNL     1      -7.639   8.524  67.932  1.00  0.00    -0.098 A  
HETATM   22  N   UNL     1      -6.559  10.244  69.820  1.00  0.00    -0.074 NA 
HETATM   23  C   UNL     1      -7.626   8.091  69.251  1.00  0.00    -0.096 A  
BRANCH  23  24
HETATM   24  N   UNL     1      -8.085   6.837  69.582  1.00  0.00    -0.124 NA 
HETATM   25  C   UNL     1      -9.046   6.638  70.688  1.00  0.00    -0.155 C  
HETATM   26  C   UNL     1     -10.371   6.050  70.152  1.00  0.00    -0.224 C  
HETATM   27  N   UNL     1     -10.186   4.807  69.381  1.00  0.00    -0.175 NA 
HETATM   28  C   UNL     1      -9.228   5.052  68.283  1.00  0.00    -0.120 C  
HETATM   29  H   UNL     1     -11.071   4.426  69.046  1.00  0.00     0.000 HD 
HETATM   30  C   UNL     1      -7.879   5.641  68.754  1.00  0.00    -0.096 C  
ENDBRANCH  23  24
ENDBRANCH  16  18
ENDBRANCH  10  16
BRANCH  15  31
HETATM   31  C   UNL     1      -9.969  13.889  66.706  1.00  0.00    -0.269 C  
HETATM   32  C   UNL     1     -11.444  13.737  67.121  1.00  0.00    -0.365 C  
HETATM   33  C   UNL     1     -10.002  14.062  65.181  1.00  0.00    -0.257 C  
HETATM   34  C   UNL     1     -12.069  13.005  65.943  1.00  0.00    -0.503 C  
HETATM   35  C   UNL     1     -11.377  13.587  64.719  1.00  0.00    -0.362 C  
ENDBRANCH  15  31
ENDBRANCH   2   4
TORSDOF 5
ENDMDL
MODEL      104
REMARK 921   NORMALIZED FREE ENERGY PREDICTED BY IDOCK:   -4.84 KCAL/MOL
REMARK 922        TOTAL FREE ENERGY PREDICTED BY IDOCK:   -6.84 KCAL/MOL
REMARK 923 INTER-LIGAND FREE ENERGY PREDICTED BY IDOCK:   -6.87 KCAL/MOL
REMARK 924 INTRA-LIGAND FREE ENERGY PREDICTED BY IDOCK:    0.03 KCAL/MOL
REMARK 927      BINDING AFFINITY PREDICTED BY RF-SCORE:    0.00 PKD
ROOT
HETATM    1  C   UNL     1      -7.133   2.008  67.948  1.00  0.00    -0.047 C  
HETATM    2  C   UNL     1      -8.602   2.342  67.918  1.00  0.00    -0.086 C  
HETATM    3  O   UNL     1      -9.384   1.531  67.416  1.00  0.00    -0.109 OA 
ENDROOT
BRANCH   2   4
HETATM    4  C   UNL     1      -9.097   3.615  68.564  1.00  0.00    -0.201 C  
HETATM    5  C   UNL     1      -9.392   4.706  67.826  1.00  0.00    -0.171 C  
HETATM    6  C   UNL     1      -9.180   4.881  66.334  1.00  0.00    -0.138 C  
HETATM    7  C   UNL     1     -10.001   5.861  68.518  1.00  0.00    -0.185 A  
HETATM    8  C   UNL     1     -10.273   7.050  67.889  1.00  0.00    -0.183 A  
HETATM    9  N   UNL     1     -10.863   8.087  68.486  1.00  0.00     0.005 NA 
HETATM   10  C   UNL     1     -11.243   7.980  69.761  1.00  0.00     0.024 A  
HETATM   11  N   UNL     1     -10.999   6.871  70.475  1.00  0.00    -0.259 NA 
HETATM   12  O   UNL     1      -8.628   2.883  70.756  1.00  0.00    -0.059 OA 
HETATM   13  C   UNL     1      -9.244   3.685  70.057  1.00  0.00    -0.153 C  
HETATM   14  C   UNL     1     -10.383   5.829  69.852  1.00  0.00    -0.262 A  
HETATM   15  N   UNL     1     -10.075   4.657  70.604  1.00  0.00    -0.217 N  
BRANCH  10  16
HETATM   16  N   UNL     1     -11.942   9.034  70.345  1.00  0.00    -0.474 NA 
HETATM   17  H   UNL     1     -12.669   8.780  71.013  1.00  0.00     0.000 HD 
BRANCH  16  18
HETATM   18  C   UNL     1     -11.758  10.403  70.118  1.00  0.00    -0.312 A  
HETATM   19  C   UNL     1     -12.345  12.593  70.631  1.00  0.00    -0.290 A  
HETATM   20  C   UNL     1     -11.000  10.894  69.062  1.00  0.00    -0.285 A  
HETATM   21  C   UNL     1     -11.021  12.249  68.743  1.00  0.00    -0.277 A  
HETATM   22  N   UNL     1     -12.385  11.260  70.946  1.00  0.00    -0.387 NA 
HETATM   23  C   UNL     1     -11.739  13.159  69.507  1.00  0.00    -0.319 A  
BRANCH  23  24
HETATM   24  N   UNL     1     -11.804  14.484  69.140  1.00  0.00    -0.309 NA 
HETATM   25  C   UNL     1     -11.798  15.561  70.152  1.00  0.00    -0.356 C  
HETATM   26  C   UNL     1     -10.550  16.457  69.978  1.00  0.00    -0.203 C  
HETATM   27  N   UNL     1     -10.414  17.007  68.617  1.00  0.00    -0.342 NA 
HETATM   28  C   UNL     1     -10.416  15.899  67.640  1.00  0.00    -0.289 C  
HETATM   29  H   UNL     1      -9.593  17.605  68.523  1.00  0.00     0.000 HD 
HETATM   30  C   UNL     1     -11.641  14.965  67.761  1.00  0.00    -0.339 C  
ENDBRANCH  23  24
ENDBRANCH  16  18
ENDBRANCH  10  16
BRANCH  15  31
HETATM   31  C   UNL     1     -10.346   4.679  72.051  1.00  0.00    -0.164 C  
HETATM   32  C   UNL     1     -10.876   3.372  72.671  1.00  0.00     0.025 C  
HETATM   33  C   UNL     1      -9.112   5.043  72.888  1.00  0.00    -0.127 C  
HETATM   34  C   UNL     1     -10.554   3.527  74.150  1.00  0.00    -0.269 C  
HETATM   35  C   UNL     1      -9.205   4.232  74.178  1.00  0.00    -0.109 C  
ENDBRANCH  15  31
ENDBRANCH   2   4
TORSDOF 5
ENDMDL
MODEL      105
REMARK 921   NORMALIZED FREE ENERGY PREDICTED BY IDOCK:   -4.83 KCAL/MOL
REMARK 922        TOTAL FREE ENERGY PREDICTED BY IDOCK:   -6.83 KCAL/MOL
REMARK 923 INTER-LIGAND FREE ENERGY PREDICTED BY IDOCK:   -6.23 KCAL/MOL
REMARK 924 INTRA-LIGAND FREE ENERGY PREDICTED BY IDOCK:   -0.60 KCAL/MOL
REMARK 927      BINDING AFFINITY PREDICTED BY RF-SCORE:    0.00 PKD
ROOT
HETATM    1  C   UNL     1     -10.138  19.828  66.233  1.00  0.00    -0.601 C  
HETATM    2  C   UNL     1      -9.110  19.435  67.262  1.00  0.00    -0.298 C  
HETATM    3  O   UNL     1      -8.477  20.324  67.836  1.00  0.00    -0.253 OA 
ENDROOT
BRANCH   2   4
HETATM    4  C   UNL     1      -8.925  17.979  67.624  1.00  0.00    -0.251 C  
HETATM    5  C   UNL     1      -7.875  17.271  67.160  1.00  0.00    -0.223 C  
HETATM    6  C   UNL     1      -6.829  17.737  66.165  1.00  0.00    -0.329 C  
HETATM    7  C   UNL     1      -7.693  15.896  67.671  1.00  0.00    -0.169 A  
HETATM    8  C   UNL     1      -6.708  15.054  67.218  1.00  0.00     0.050 A  
HETATM    9  N   UNL     1      -6.501  13.827  67.700  1.00  0.00    -0.222 NA 
HETATM   10  C   UNL     1      -7.265  13.377  68.697  1.00  0.00    -0.107 A  
HETATM   11  N   UNL     1      -8.273  14.109  69.195  1.00  0.00     0.073 NA 
HETATM   12  O   UNL     1     -11.064  17.778  68.596  1.00  0.00     0.086 OA 
HETATM   13  C   UNL     1      -9.938  17.295  68.495  1.00  0.00    -0.320 C  
HETATM   14  C   UNL     1      -8.477  15.354  68.680  1.00  0.00    -0.170 A  
HETATM   15  N   UNL     1      -9.570  16.131  69.164  1.00  0.00    -0.241 N  
BRANCH  10  16
HETATM   16  N   UNL     1      -6.979  12.133  69.254  1.00  0.00    -0.274 NA 
HETATM   17  H   UNL     1      -6.261  12.116  69.978  1.00  0.00     0.000 HD 
BRANCH  16  18
HETATM   18  C   UNL     1      -7.566  10.904  68.933  1.00  0.00    -0.128 A  
HETATM   19  C   UNL     1      -8.127   9.342  67.304  1.00  0.00    -0.113 A  
HETATM   20  C   UNL     1      -8.314  10.167  69.842  1.00  0.00    -0.110 A  
HETATM   21  C   UNL     1      -9.057   9.068  69.425  1.00  0.00    -0.146 A  
HETATM   22  N   UNL     1      -7.420  10.457  67.671  1.00  0.00    -0.088 NA 
HETATM   23  C   UNL     1      -9.022   8.630  68.107  1.00  0.00    -0.141 A  
BRANCH  23  24
HETATM   24  N   UNL     1      -9.813   7.583  67.695  1.00  0.00    -0.152 NA 
HETATM   25  C   UNL     1      -9.700   7.026  66.331  1.00  0.00    -0.068 C  
HETATM   26  C   UNL     1      -9.251   5.548  66.387  1.00  0.00    -0.150 C  
HETATM   27  N   UNL     1     -10.119   4.708  67.231  1.00  0.00    -0.156 NA 
HETATM   28  C   UNL     1     -10.198   5.293  68.585  1.00  0.00    -0.153 C  
HETATM   29  H   UNL     1      -9.816   3.734  67.247  1.00  0.00     0.000 HD 
HETATM   30  C   UNL     1     -10.643   6.773  68.598  1.00  0.00    -0.227 C  
ENDBRANCH  23  24
ENDBRANCH  16  18
ENDBRANCH  10  16
BRANCH  15  31
HETATM   31  C   UNL     1     -10.490  15.501  70.125  1.00  0.00    -0.301 C  
HETATM   32  C   UNL     1     -11.091  16.419  71.206  1.00  0.00     0.134 C  
HETATM   33  C   UNL     1     -11.699  14.836  69.453  1.00  0.00    -0.358 C  
HETATM   34  C   UNL     1     -12.328  15.662  71.664  1.00  0.00    -0.494 C  
HETATM   35  C   UNL     1     -12.883  15.030  70.396  1.00  0.00    -0.332 C  
ENDBRANCH  15  31
ENDBRANCH   2   4
TORSDOF 5
ENDMDL
MODEL      106
REMARK 921   NORMALIZED FREE ENERGY PREDICTED BY IDOCK:   -4.81 KCAL/MOL
REMARK 922        TOTAL FREE ENERGY PREDICTED BY IDOCK:   -6.81 KCAL/MOL
REMARK 923 INTER-LIGAND FREE ENERGY PREDICTED BY IDOCK:   -7.85 KCAL/MOL
REMARK 924 INTRA-LIGAND FREE ENERGY PREDICTED BY IDOCK:    1.04 KCAL/MOL
REMARK 927      BINDING AFFINITY PREDICTED BY RF-SCORE:    0.00 PKD
ROOT
HETATM    1  C   UNL     1     -12.945  14.902  70.531  1.00  0.00    -0.339 C  
HETATM    2  C   UNL     1     -12.204  14.269  69.382  1.00  0.00    -0.278 C  
HETATM    3  O   UNL     1     -11.993  14.941  68.370  1.00  0.00    -0.299 OA 
ENDROOT
BRANCH   2   4
HETATM    4  C   UNL     1     -11.671  12.860  69.514  1.00  0.00    -0.387 C  
HETATM    5  C   UNL     1     -12.153  12.015  70.450  1.00  0.00    -0.407 C  
HETATM    6  C   UNL     1     -13.158  12.338  71.539  1.00  0.00    -0.356 C  
HETATM    7  C   UNL     1     -11.678  10.616  70.423  1.00  0.00    -0.446 A  
HETATM    8  C   UNL     1     -12.038   9.686  71.366  1.00  0.00    -0.388 A  
HETATM    9  N   UNL     1     -11.655   8.408  71.332  1.00  0.00    -0.273 NA 
HETATM   10  C   UNL     1     -10.899   7.977  70.320  1.00  0.00    -0.241 A  
HETATM   11  N   UNL     1     -10.470   8.810  69.360  1.00  0.00    -0.221 NA 
HETATM   12  O   UNL     1      -9.864  13.228  68.044  1.00  0.00    -0.217 OA 
HETATM   13  C   UNL     1     -10.569  12.393  68.608  1.00  0.00    -0.218 C  
HETATM   14  C   UNL     1     -10.860  10.114  69.420  1.00  0.00    -0.241 A  
HETATM   15  N   UNL     1     -10.380  11.025  68.434  1.00  0.00    -0.175 N  
BRANCH  10  16
HETATM   16  N   UNL     1     -10.585   6.623  70.245  1.00  0.00    -0.212 NA 
HETATM   17  H   UNL     1     -10.458   6.139  71.134  1.00  0.00     0.000 HD 
BRANCH  16  18
HETATM   18  C   UNL     1     -10.424   5.851  69.089  1.00  0.00    -0.270 A  
HETATM   19  C   UNL     1      -9.300   4.138  67.990  1.00  0.00    -0.162 A  
HETATM   20  C   UNL     1     -11.053   6.157  67.888  1.00  0.00    -0.311 A  
HETATM   21  C   UNL     1     -10.699   5.499  66.714  1.00  0.00    -0.329 A  
HETATM   22  N   UNL     1      -9.589   4.796  69.156  1.00  0.00    -0.153 NA 
HETATM   23  C   UNL     1      -9.763   4.472  66.715  1.00  0.00    -0.206 A  
BRANCH  23  24
HETATM   24  N   UNL     1      -9.375   3.877  65.537  1.00  0.00    -0.151 NA 
HETATM   25  C   UNL     1      -8.632   2.599  65.532  1.00  0.00    -0.108 C  
HETATM   26  C   UNL     1      -9.456   1.499  64.824  1.00  0.00    -0.059 C  
HETATM   27  N   UNL     1      -9.876   1.873  63.462  1.00  0.00    -0.117 NA 
HETATM   28  C   UNL     1     -10.621   3.148  63.513  1.00  0.00    -0.251 C  
HETATM   29  H   UNL     1     -10.408   1.132  63.005  1.00  0.00     0.000 HD 
HETATM   30  C   UNL     1      -9.850   4.292  64.210  1.00  0.00    -0.079 C  
ENDBRANCH  23  24
ENDBRANCH  16  18
ENDBRANCH  10  16
BRANCH  15  31
HETATM   31  C   UNL     1      -9.395  10.527  67.459  1.00  0.00    -0.149 C  
HETATM   32  C   UNL     1      -8.462   9.399  67.938  1.00  0.00    -0.116 C  
HETATM   33  C   UNL     1     -10.041   9.989  66.175  1.00  0.00    -0.317 C  
HETATM   34  C   UNL     1      -7.977   8.768  66.642  1.00  0.00    -0.100 C  
HETATM   35  C   UNL     1      -9.186   8.809  65.718  1.00  0.00    -0.269 C  
ENDBRANCH  15  31
ENDBRANCH   2   4
TORSDOF 5
ENDMDL
MODEL      107
REMARK 921   NORMALIZED FREE ENERGY PREDICTED BY IDOCK:   -4.76 KCAL/MOL
REMARK 922        TOTAL FREE ENERGY PREDICTED BY IDOCK:   -6.75 KCAL/MOL
REMARK 923 INTER-LIGAND FREE ENERGY PREDICTED BY IDOCK:   -6.85 KCAL/MOL
REMARK 924 INTRA-LIGAND FREE ENERGY PREDICTED BY IDOCK:    0.11 KCAL/MOL
REMARK 927      BINDING AFFINITY PREDICTED BY RF-SCORE:    0.00 PKD
ROOT
HETATM    1  C   UNL     1     -10.625  18.753  66.909  1.00  0.00    -0.472 C  
HETATM    2  C   UNL     1      -9.537  17.911  66.293  1.00  0.00    -0.241 C  
HETATM    3  O   UNL     1      -8.595  18.476  65.734  1.00  0.00    -0.442 OA 
ENDROOT
BRANCH   2   4
HETATM    4  C   UNL     1      -9.579  16.407  66.434  1.00  0.00    -0.313 C  
HETATM    5  C   UNL     1     -10.363  15.651  65.636  1.00  0.00    -0.408 C  
HETATM    6  C   UNL     1     -11.363  16.145  64.609  1.00  0.00    -0.287 C  
HETATM    7  C   UNL     1     -10.242  14.182  65.746  1.00  0.00    -0.347 A  
HETATM    8  C   UNL     1     -11.038  13.312  65.043  1.00  0.00    -0.309 A  
HETATM    9  N   UNL     1     -10.912  11.985  65.095  1.00  0.00    -0.302 NA 
HETATM   10  C   UNL     1      -9.949  11.446  65.846  1.00  0.00    -0.234 A  
HETATM   11  N   UNL     1      -9.134  12.206  66.593  1.00  0.00    -0.205 NA 
HETATM   12  O   UNL     1      -8.362  16.395  68.454  1.00  0.00    -0.176 OA 
HETATM   13  C   UNL     1      -8.755  15.735  67.494  1.00  0.00    -0.176 C  
HETATM   14  C   UNL     1      -9.287  13.558  66.538  1.00  0.00    -0.215 A  
HETATM   15  N   UNL     1      -8.461  14.382  67.357  1.00  0.00    -0.191 N  
BRANCH  10  16
HETATM   16  N   UNL     1      -9.768  10.066  65.819  1.00  0.00    -0.238 NA 
HETATM   17  H   UNL     1      -9.560   9.655  64.909  1.00  0.00     0.000 HD 
BRANCH  16  18
HETATM   18  C   UNL     1      -9.839   9.179  66.899  1.00  0.00    -0.217 A  
HETATM   19  C   UNL     1      -9.311   8.706  69.113  1.00  0.00    -0.153 A  
HETATM   20  C   UNL     1     -10.302   7.874  66.771  1.00  0.00    -0.357 A  
HETATM   21  C   UNL     1     -10.153   6.964  67.813  1.00  0.00    -0.199 A  
HETATM   22  N   UNL     1      -9.399   9.617  68.094  1.00  0.00    -0.133 NA 
HETATM   23  C   UNL     1      -9.606   7.343  69.032  1.00  0.00    -0.148 A  
BRANCH  23  24
HETATM   24  N   UNL     1      -9.405   6.416  70.028  1.00  0.00    -0.156 NA 
HETATM   25  C   UNL     1      -8.990   5.032  69.716  1.00  0.00    -0.106 C  
HETATM   26  C   UNL     1      -7.603   4.734  70.330  1.00  0.00    -0.054 C  
HETATM   27  N   UNL     1      -7.542   4.990  71.780  1.00  0.00    -0.101 NA 
HETATM   28  C   UNL     1      -7.955   6.383  72.047  1.00  0.00    -0.108 C  
HETATM   29  H   UNL     1      -6.625   4.776  72.172  1.00  0.00     0.000 HD 
HETATM   30  C   UNL     1      -9.337   6.747  71.458  1.00  0.00    -0.153 C  
ENDBRANCH  23  24
ENDBRANCH  16  18
ENDBRANCH  10  16
BRANCH  15  31
HETATM   31  C   UNL     1      -7.553  13.716  68.306  1.00  0.00    -0.130 C  
HETATM   32  C   UNL     1      -6.078  13.595  67.876  1.00  0.00    -0.154 C  
HETATM   33  C   UNL     1      -7.511  14.401  69.679  1.00  0.00     0.104 C  
HETATM   34  C   UNL     1      -5.344  13.383  69.192  1.00  0.00    -0.073 C  
HETATM   35  C   UNL     1      -6.078  14.268  70.189  1.00  0.00    -0.160 C  
ENDBRANCH  15  31
ENDBRANCH   2   4
TORSDOF 5
ENDMDL
MODEL      108
REMARK 921   NORMALIZED FREE ENERGY PREDICTED BY IDOCK:   -4.75 KCAL/MOL
REMARK 922        TOTAL FREE ENERGY PREDICTED BY IDOCK:   -6.73 KCAL/MOL
REMARK 923 INTER-LIGAND FREE ENERGY PREDICTED BY IDOCK:   -5.94 KCAL/MOL
REMARK 924 INTRA-LIGAND FREE ENERGY PREDICTED BY IDOCK:   -0.79 KCAL/MOL
REMARK 927      BINDING AFFINITY PREDICTED BY RF-SCORE:    0.00 PKD
ROOT
HETATM    1  C   UNL     1      -6.724   3.325  64.858  1.00  0.00    -0.040 C  
HETATM    2  C   UNL     1      -6.402   4.408  65.855  1.00  0.00    -0.036 C  
HETATM    3  O   UNL     1      -5.309   4.384  66.424  1.00  0.00    -0.012 OA 
ENDROOT
BRANCH   2   4
HETATM    4  C   UNL     1      -7.383   5.535  66.085  1.00  0.00    -0.078 C  
HETATM    5  C   UNL     1      -8.299   5.474  67.074  1.00  0.00    -0.107 C  
HETATM    6  C   UNL     1      -8.573   4.299  67.992  1.00  0.00    -0.106 C  
HETATM    7  C   UNL     1      -9.127   6.674  67.319  1.00  0.00    -0.119 A  
HETATM    8  C   UNL     1     -10.140   6.707  68.243  1.00  0.00    -0.159 A  
HETATM    9  N   UNL     1     -10.867   7.794  68.510  1.00  0.00    -0.021 NA 
HETATM   10  C   UNL     1     -10.598   8.935  67.872  1.00  0.00    -0.183 A  
HETATM   11  N   UNL     1      -9.646   9.004  66.929  1.00  0.00    -0.171 NA 
HETATM   12  O   UNL     1      -6.832   6.645  64.078  1.00  0.00    -0.046 OA 
HETATM   13  C   UNL     1      -7.360   6.737  65.185  1.00  0.00    -0.085 C  
HETATM   14  C   UNL     1      -8.924   7.880  66.662  1.00  0.00    -0.151 A  
HETATM   15  N   UNL     1      -7.938   7.921  65.634  1.00  0.00    -0.109 N  
BRANCH  10  16
HETATM   16  N   UNL     1     -11.300  10.085  68.225  1.00  0.00    -0.531 NA 
HETATM   17  H   UNL     1     -12.088   9.956  68.859  1.00  0.00     0.000 HD 
BRANCH  16  18
HETATM   18  C   UNL     1     -11.046  11.396  67.808  1.00  0.00    -0.265 A  
HETATM   19  C   UNL     1     -10.022  13.443  68.220  1.00  0.00    -0.240 A  
HETATM   20  C   UNL     1     -11.702  11.984  66.734  1.00  0.00    -0.339 A  
HETATM   21  C   UNL     1     -11.583  13.348  66.490  1.00  0.00    -0.394 A  
HETATM   22  N   UNL     1     -10.153  12.112  68.518  1.00  0.00    -0.207 NA 
HETATM   23  C   UNL     1     -10.753  14.151  67.262  1.00  0.00    -0.279 A  
BRANCH  23  24
HETATM   24  N   UNL     1     -10.697  15.509  67.050  1.00  0.00    -0.319 NA 
HETATM   25  C   UNL     1     -10.948  16.468  68.146  1.00  0.00    -0.336 C  
HETATM   26  C   UNL     1      -9.687  17.318  68.419  1.00  0.00    -0.293 C  
HETATM   27  N   UNL     1      -9.179  18.007  67.220  1.00  0.00    -0.253 NA 
HETATM   28  C   UNL     1      -8.933  17.015  66.154  1.00  0.00    -0.208 C  
HETATM   29  H   UNL     1      -8.355  18.574  67.419  1.00  0.00     0.000 HD 
HETATM   30  C   UNL     1     -10.159  16.130  65.832  1.00  0.00    -0.354 C  
ENDBRANCH  23  24
ENDBRANCH  16  18
ENDBRANCH  10  16
BRANCH  15  31
HETATM   31  C   UNL     1      -7.824   9.154  64.837  1.00  0.00    -0.117 C  
HETATM   32  C   UNL     1      -6.398   9.626  64.499  1.00  0.00    -0.099 C  
HETATM   33  C   UNL     1      -8.543   9.064  63.484  1.00  0.00    -0.146 C  
HETATM   34  C   UNL     1      -6.602  10.536  63.297  1.00  0.00    -0.003 C  
HETATM   35  C   UNL     1      -7.706   9.865  62.491  1.00  0.00    -0.132 C  
ENDBRANCH  15  31
ENDBRANCH   2   4
TORSDOF 5
ENDMDL
MODEL      109
REMARK 921   NORMALIZED FREE ENERGY PREDICTED BY IDOCK:   -4.75 KCAL/MOL
REMARK 922        TOTAL FREE ENERGY PREDICTED BY IDOCK:   -6.72 KCAL/MOL
REMARK 923 INTER-LIGAND FREE ENERGY PREDICTED BY IDOCK:   -6.41 KCAL/MOL
REMARK 924 INTRA-LIGAND FREE ENERGY PREDICTED BY IDOCK:   -0.31 KCAL/MOL
REMARK 927      BINDING AFFINITY PREDICTED BY RF-SCORE:    0.00 PKD
ROOT
HETATM    1  C   UNL     1      -6.118   3.711  64.987  1.00  0.00    -0.023 C  
HETATM    2  C   UNL     1      -6.370   3.707  66.473  1.00  0.00    -0.036 C  
HETATM    3  O   UNL     1      -5.783   2.878  67.171  1.00  0.00    -0.021 OA 
ENDROOT
BRANCH   2   4
HETATM    4  C   UNL     1      -7.271   4.755  67.086  1.00  0.00    -0.077 C  
HETATM    5  C   UNL     1      -8.537   4.463  67.449  1.00  0.00    -0.105 C  
HETATM    6  C   UNL     1      -9.275   3.159  67.214  1.00  0.00    -0.219 C  
HETATM    7  C   UNL     1      -9.304   5.503  68.167  1.00  0.00    -0.123 A  
HETATM    8  C   UNL     1     -10.622   5.351  68.519  1.00  0.00    -0.082 A  
HETATM    9  N   UNL     1     -11.316   6.260  69.206  1.00  0.00    -0.407 NA 
HETATM   10  C   UNL     1     -10.711   7.380  69.608  1.00  0.00    -0.235 A  
HETATM   11  N   UNL     1      -9.433   7.639  69.294  1.00  0.00    -0.158 NA 
HETATM   12  O   UNL     1      -5.798   6.535  66.615  1.00  0.00    -0.016 OA 
HETATM   13  C   UNL     1      -6.762   6.155  67.276  1.00  0.00    -0.061 C  
HETATM   14  C   UNL     1      -8.746   6.705  68.579  1.00  0.00    -0.123 A  
HETATM   15  N   UNL     1      -7.400   6.980  68.197  1.00  0.00    -0.094 N  
BRANCH  10  16
HETATM   16  N   UNL     1     -11.419   8.277  70.404  1.00  0.00    -0.433 NA 
HETATM   17  H   UNL     1     -11.947   7.875  71.178  1.00  0.00     0.000 HD 
BRANCH  16  18
HETATM   18  C   UNL     1     -11.487   9.667  70.262  1.00  0.00    -0.233 A  
HETATM   19  C   UNL     1     -12.326  11.699  71.021  1.00  0.00    -0.301 A  
HETATM   20  C   UNL     1     -10.979  10.335  69.154  1.00  0.00    -0.280 A  
HETATM   21  C   UNL     1     -11.258  11.683  68.948  1.00  0.00    -0.306 A  
HETATM   22  N   UNL     1     -12.110  10.362  71.233  1.00  0.00    -0.370 NA 
HETATM   23  C   UNL     1     -11.989  12.418  69.872  1.00  0.00    -0.299 A  
BRANCH  23  24
HETATM   24  N   UNL     1     -12.313  13.732  69.622  1.00  0.00    -0.288 NA 
HETATM   25  C   UNL     1     -12.773  14.628  70.704  1.00  0.00    -0.357 C  
HETATM   26  C   UNL     1     -11.781  15.798  70.892  1.00  0.00    -0.406 C  
HETATM   27  N   UNL     1     -11.529  16.553  69.652  1.00  0.00    -0.303 NA 
HETATM   28  C   UNL     1     -11.064  15.624  68.601  1.00  0.00    -0.317 C  
HETATM   29  H   UNL     1     -10.883  17.329  69.796  1.00  0.00     0.000 HD 
HETATM   30  C   UNL     1     -12.014  14.428  68.363  1.00  0.00    -0.293 C  
ENDBRANCH  23  24
ENDBRANCH  16  18
ENDBRANCH  10  16
BRANCH  15  31
HETATM   31  C   UNL     1      -6.856   8.313  68.505  1.00  0.00    -0.064 C  
HETATM   32  C   UNL     1      -7.584   9.515  67.875  1.00  0.00    -0.087 C  
HETATM   33  C   UNL     1      -6.822   8.615  70.010  1.00  0.00    -0.042 C  
HETATM   34  C   UNL     1      -7.165  10.683  68.755  1.00  0.00    -0.087 C  
HETATM   35  C   UNL     1      -7.115  10.105  70.162  1.00  0.00    -0.162 C  
ENDBRANCH  15  31
ENDBRANCH   2   4
TORSDOF 5
ENDMDL
MODEL      110
REMARK 921   NORMALIZED FREE ENERGY PREDICTED BY IDOCK:   -4.63 KCAL/MOL
REMARK 922        TOTAL FREE ENERGY PREDICTED BY IDOCK:   -6.57 KCAL/MOL
REMARK 923 INTER-LIGAND FREE ENERGY PREDICTED BY IDOCK:   -6.13 KCAL/MOL
REMARK 924 INTRA-LIGAND FREE ENERGY PREDICTED BY IDOCK:   -0.44 KCAL/MOL
REMARK 927      BINDING AFFINITY PREDICTED BY RF-SCORE:    0.00 PKD
ROOT
HETATM    1  C   UNL     1     -10.913   5.219  66.417  1.00  0.00    -0.059 C  
HETATM    2  C   UNL     1      -9.675   5.631  67.170  1.00  0.00    -0.139 C  
HETATM    3  O   UNL     1      -9.065   4.779  67.820  1.00  0.00    -0.109 OA 
ENDROOT
BRANCH   2   4
HETATM    4  C   UNL     1      -9.164   7.049  67.060  1.00  0.00    -0.167 C  
HETATM    5  C   UNL     1      -9.452   7.972  68.001  1.00  0.00    -0.157 C  
HETATM    6  C   UNL     1     -10.374   7.801  69.193  1.00  0.00    -0.219 C  
HETATM    7  C   UNL     1      -8.801   9.294  67.890  1.00  0.00    -0.124 A  
HETATM    8  C   UNL     1      -9.073  10.336  68.742  1.00  0.00    -0.159 A  
HETATM    9  N   UNL     1      -8.462  11.520  68.684  1.00  0.00    -0.146 NA 
HETATM   10  C   UNL     1      -7.509  11.723  67.771  1.00  0.00    -0.117 A  
HETATM   11  N   UNL     1      -7.186  10.781  66.874  1.00  0.00    -0.108 NA 
HETATM   12  O   UNL     1      -8.397   6.777  64.846  1.00  0.00    -0.112 OA 
HETATM   13  C   UNL     1      -8.340   7.453  65.871  1.00  0.00    -0.140 C  
HETATM   14  C   UNL     1      -7.831   9.583  66.940  1.00  0.00    -0.101 A  
HETATM   15  N   UNL     1      -7.533   8.583  65.968  1.00  0.00    -0.084 N  
BRANCH  10  16
HETATM   16  N   UNL     1      -6.815  12.930  67.782  1.00  0.00    -0.121 NA 
HETATM   17  H   UNL     1      -5.814  12.874  67.972  1.00  0.00     0.000 HD 
BRANCH  16  18
HETATM   18  C   UNL     1      -7.335  14.210  67.563  1.00  0.00    -0.175 A  
HETATM   19  C   UNL     1      -8.907  15.556  66.503  1.00  0.00    -0.313 A  
HETATM   20  C   UNL     1      -6.698  15.366  68.000  1.00  0.00    -0.156 A  
HETATM   21  C   UNL     1      -7.130  16.618  67.576  1.00  0.00    -0.169 A  
HETATM   22  N   UNL     1      -8.481  14.305  66.863  1.00  0.00    -0.159 NA 
HETATM   23  C   UNL     1      -8.248  16.760  66.765  1.00  0.00    -0.235 A  
BRANCH  23  24
HETATM   24  N   UNL     1      -8.624  17.999  66.300  1.00  0.00    -0.447 NA 
HETATM   25  C   UNL     1     -10.039  18.424  66.304  1.00  0.00    -0.392 C  
HETATM   26  C   UNL     1     -10.230  19.653  67.222  1.00  0.00    -0.433 C  
HETATM   27  N   UNL     1      -9.341  20.778  66.880  1.00  0.00    -0.656 NA 
HETATM   28  C   UNL     1      -7.939  20.314  66.895  1.00  0.00    -0.304 C  
HETATM   29  H   UNL     1      -9.489  21.585  67.486  1.00  0.00     0.000 HD 
HETATM   30  C   UNL     1      -7.680  19.084  65.995  1.00  0.00    -0.229 C  
ENDBRANCH  23  24
ENDBRANCH  16  18
ENDBRANCH  10  16
BRANCH  15  31
HETATM   31  C   UNL     1      -6.616   8.940  64.873  1.00  0.00    -0.069 C  
HETATM   32  C   UNL     1      -5.821   7.783  64.237  1.00  0.00    -0.052 C  
HETATM   33  C   UNL     1      -7.322   9.630  63.698  1.00  0.00    -0.115 C  
HETATM   34  C   UNL     1      -5.416   8.339  62.880  1.00  0.00    -0.068 C  
HETATM   35  C   UNL     1      -6.613   9.164  62.429  1.00  0.00    -0.093 C  
ENDBRANCH  15  31
ENDBRANCH   2   4
TORSDOF 5
ENDMDL
MODEL      111
REMARK 921   NORMALIZED FREE ENERGY PREDICTED BY IDOCK:   -4.62 KCAL/MOL
REMARK 922        TOTAL FREE ENERGY PREDICTED BY IDOCK:   -6.56 KCAL/MOL
REMARK 923 INTER-LIGAND FREE ENERGY PREDICTED BY IDOCK:   -5.90 KCAL/MOL
REMARK 924 INTRA-LIGAND FREE ENERGY PREDICTED BY IDOCK:   -0.66 KCAL/MOL
REMARK 927      BINDING AFFINITY PREDICTED BY RF-SCORE:    0.00 PKD
ROOT
HETATM    1  C   UNL     1     -12.032   6.728  70.466  1.00  0.00    -0.385 C  
HETATM    2  C   UNL     1     -10.780   6.519  69.654  1.00  0.00    -0.269 C  
HETATM    3  O   UNL     1     -10.706   5.530  68.922  1.00  0.00    -0.219 OA 
ENDROOT
BRANCH   2   4
HETATM    4  C   UNL     1      -9.676   7.551  69.693  1.00  0.00    -0.167 C  
HETATM    5  C   UNL     1      -9.582   8.510  68.748  1.00  0.00    -0.150 C  
HETATM    6  C   UNL     1     -10.431   8.646  67.499  1.00  0.00    -0.335 C  
HETATM    7  C   UNL     1      -8.560   9.562  68.935  1.00  0.00    -0.128 A  
HETATM    8  C   UNL     1      -8.320  10.544  68.007  1.00  0.00    -0.116 A  
HETATM    9  N   UNL     1      -7.433  11.526  68.179  1.00  0.00    -0.095 NA 
HETATM   10  C   UNL     1      -6.745  11.596  69.321  1.00  0.00    -0.115 A  
HETATM   11  N   UNL     1      -6.885  10.672  70.282  1.00  0.00    -0.265 NA 
HETATM   12  O   UNL     1      -8.478   6.450  71.400  1.00  0.00    -0.125 OA 
HETATM   13  C   UNL     1      -8.648   7.501  70.786  1.00  0.00    -0.135 C  
HETATM   14  C   UNL     1      -7.785   9.668  70.082  1.00  0.00    -0.170 A  
HETATM   15  N   UNL     1      -7.917   8.651  71.071  1.00  0.00    -0.118 N  
BRANCH  10  16
HETATM   16  N   UNL     1      -5.893  12.678  69.526  1.00  0.00    -0.096 NA 
HETATM   17  H   UNL     1      -4.998  12.471  69.967  1.00  0.00     0.000 HD 
BRANCH  16  18
HETATM   18  C   UNL     1      -6.128  14.018  69.196  1.00  0.00    -0.098 A  
HETATM   19  C   UNL     1      -7.530  15.870  69.306  1.00  0.00    -0.219 A  
HETATM   20  C   UNL     1      -5.332  14.722  68.300  1.00  0.00    -0.113 A  
HETATM   21  C   UNL     1      -5.723  15.973  67.835  1.00  0.00    -0.150 A  
HETATM   22  N   UNL     1      -7.199  14.617  69.750  1.00  0.00    -0.110 NA 
HETATM   23  C   UNL     1      -6.879  16.588  68.300  1.00  0.00    -0.142 A  
BRANCH  23  24
HETATM   24  N   UNL     1      -7.287  17.795  67.781  1.00  0.00    -0.199 NA 
HETATM   25  C   UNL     1      -7.842  17.895  66.415  1.00  0.00    -0.272 C  
HETATM   26  C   UNL     1      -9.307  18.387  66.463  1.00  0.00    -0.309 C  
HETATM   27  N   UNL     1      -9.470  19.657  67.194  1.00  0.00    -0.324 NA 
HETATM   28  C   UNL     1      -8.911  19.512  68.554  1.00  0.00    -0.345 C  
HETATM   29  H   UNL     1     -10.439  19.974  67.205  1.00  0.00     0.000 HD 
HETATM   30  C   UNL     1      -7.446  19.021  68.576  1.00  0.00    -0.317 C  
ENDBRANCH  23  24
ENDBRANCH  16  18
ENDBRANCH  10  16
BRANCH  15  31
HETATM   31  C   UNL     1      -6.992   8.681  72.216  1.00  0.00    -0.025 C  
HETATM   32  C   UNL     1      -7.581   8.296  73.587  1.00  0.00    -0.193 C  
HETATM   33  C   UNL     1      -5.779   7.759  72.033  1.00  0.00    -0.036 C  
HETATM   34  C   UNL     1      -6.355   7.912  74.402  1.00  0.00    -0.108 C  
HETATM   35  C   UNL     1      -5.443   7.200  73.413  1.00  0.00    -0.045 C  
ENDBRANCH  15  31
ENDBRANCH   2   4
TORSDOF 5
ENDMDL
MODEL      112
REMARK 921   NORMALIZED FREE ENERGY PREDICTED BY IDOCK:   -4.55 KCAL/MOL
REMARK 922        TOTAL FREE ENERGY PREDICTED BY IDOCK:   -6.47 KCAL/MOL
REMARK 923 INTER-LIGAND FREE ENERGY PREDICTED BY IDOCK:   -5.71 KCAL/MOL
REMARK 924 INTRA-LIGAND FREE ENERGY PREDICTED BY IDOCK:   -0.76 KCAL/MOL
REMARK 927      BINDING AFFINITY PREDICTED BY RF-SCORE:    0.00 PKD
ROOT
HETATM    1  C   UNL     1     -10.366  19.100  66.014  1.00  0.00    -0.538 C  
HETATM    2  C   UNL     1     -10.181  18.328  67.295  1.00  0.00    -0.373 C  
HETATM    3  O   UNL     1     -10.778  18.706  68.306  1.00  0.00    -0.247 OA 
ENDROOT
BRANCH   2   4
HETATM    4  C   UNL     1      -9.336  17.075  67.303  1.00  0.00    -0.238 C  
HETATM    5  C   UNL     1      -7.993  17.137  67.420  1.00  0.00    -0.197 C  
HETATM    6  C   UNL     1      -7.137  18.389  67.441  1.00  0.00    -0.209 C  
HETATM    7  C   UNL     1      -7.255  15.864  67.559  1.00  0.00    -0.204 A  
HETATM    8  C   UNL     1      -5.886  15.796  67.609  1.00  0.00    -0.138 A  
HETATM    9  N   UNL     1      -5.205  14.661  67.779  1.00  0.00    -0.300 NA 
HETATM   10  C   UNL     1      -5.871  13.514  67.938  1.00  0.00    -0.133 A  
HETATM   11  N   UNL     1      -7.210  13.467  67.878  1.00  0.00    -0.115 NA 
HETATM   12  O   UNL     1     -11.119  15.670  66.663  1.00  0.00    -0.270 OA 
HETATM   13  C   UNL     1      -9.994  15.733  67.155  1.00  0.00    -0.242 C  
HETATM   14  C   UNL     1      -7.886  14.634  67.690  1.00  0.00    -0.181 A  
HETATM   15  N   UNL     1      -9.307  14.600  67.580  1.00  0.00    -0.192 N  
BRANCH  10  16
HETATM   16  N   UNL     1      -5.153  12.352  68.208  1.00  0.00    -0.055 NA 
HETATM   17  H   UNL     1      -4.244  12.267  67.755  1.00  0.00     0.000 HD 
BRANCH  16  18
HETATM   18  C   UNL     1      -5.538  11.289  69.033  1.00  0.00    -0.040 A  
HETATM   19  C   UNL     1      -5.878  10.471  71.182  1.00  0.00     0.057 A  
HETATM   20  C   UNL     1      -5.750  10.003  68.551  1.00  0.00    -0.041 A  
HETATM   21  C   UNL     1      -5.917   8.936  69.428  1.00  0.00    -0.037 A  
HETATM   22  N   UNL     1      -5.665  11.538  70.351  1.00  0.00    -0.143 NA 
HETATM   23  C   UNL     1      -5.949   9.128  70.803  1.00  0.00    -0.045 A  
BRANCH  23  24
HETATM   24  N   UNL     1      -6.048   8.055  71.659  1.00  0.00    -0.035 NA 
HETATM   25  C   UNL     1      -6.149   8.247  73.121  1.00  0.00    -0.082 C  
HETATM   26  C   UNL     1      -7.496   7.700  73.645  1.00  0.00    -0.113 C  
HETATM   27  N   UNL     1      -7.735   6.293  73.278  1.00  0.00    -0.099 NA 
HETATM   28  C   UNL     1      -7.634   6.147  71.811  1.00  0.00    -0.096 C  
HETATM   29  H   UNL     1      -8.622   5.944  73.641  1.00  0.00     0.000 HD 
HETATM   30  C   UNL     1      -6.306   6.676  71.222  1.00  0.00    -0.041 C  
ENDBRANCH  23  24
ENDBRANCH  16  18
ENDBRANCH  10  16
BRANCH  15  31
HETATM   31  C   UNL     1      -9.964  13.282  67.570  1.00  0.00    -0.223 C  
HETATM   32  C   UNL     1     -11.297  13.172  68.335  1.00  0.00    -0.324 C  
HETATM   33  C   UNL     1     -10.277  12.778  66.154  1.00  0.00    -0.286 C  
HETATM   34  C   UNL     1     -11.955  11.945  67.723  1.00  0.00    -0.149 C  
HETATM   35  C   UNL     1     -11.594  12.012  66.246  1.00  0.00    -0.378 C  
ENDBRANCH  15  31
ENDBRANCH   2   4
TORSDOF 5
ENDMDL
MODEL      113
REMARK 921   NORMALIZED FREE ENERGY PREDICTED BY IDOCK:   -4.44 KCAL/MOL
REMARK 922        TOTAL FREE ENERGY PREDICTED BY IDOCK:   -6.32 KCAL/MOL
REMARK 923 INTER-LIGAND FREE ENERGY PREDICTED BY IDOCK:   -5.97 KCAL/MOL
REMARK 924 INTRA-LIGAND FREE ENERGY PREDICTED BY IDOCK:   -0.35 KCAL/MOL
REMARK 927      BINDING AFFINITY PREDICTED BY RF-SCORE:    0.00 PKD
ROOT
HETATM    1  C   UNL     1      -7.443   7.616  63.270  1.00  0.00    -0.108 C  
HETATM    2  C   UNL     1      -7.350   7.747  64.768  1.00  0.00    -0.075 C  
HETATM    3  O   UNL     1      -6.956   6.780  65.424  1.00  0.00    -0.056 OA 
ENDROOT
BRANCH   2   4
HETATM    4  C   UNL     1      -7.663   9.070  65.430  1.00  0.00    -0.095 C  
HETATM    5  C   UNL     1      -6.680   9.874  65.886  1.00  0.00    -0.097 C  
HETATM    6  C   UNL     1      -5.196   9.567  65.926  1.00  0.00    -0.036 C  
HETATM    7  C   UNL     1      -7.064  11.209  66.393  1.00  0.00    -0.091 A  
HETATM    8  C   UNL     1      -6.165  12.083  66.951  1.00  0.00    -0.073 A  
HETATM    9  N   UNL     1      -6.484  13.308  67.372  1.00  0.00    -0.258 NA 
HETATM   10  C   UNL     1      -7.739  13.743  67.231  1.00  0.00    -0.076 A  
HETATM   11  N   UNL     1      -8.700  12.958  66.723  1.00  0.00    -0.157 NA 
HETATM   12  O   UNL     1      -9.978   8.639  65.571  1.00  0.00     0.183 OA 
HETATM   13  C   UNL     1      -9.093   9.492  65.608  1.00  0.00    -0.201 C  
HETATM   14  C   UNL     1      -8.357  11.706  66.312  1.00  0.00    -0.027 A  
HETATM   15  N   UNL     1      -9.372  10.840  65.809  1.00  0.00    -0.194 N  
BRANCH  10  16
HETATM   16  N   UNL     1      -8.038  15.055  67.587  1.00  0.00    -0.156 NA 
HETATM   17  H   UNL     1      -7.489  15.784  67.132  1.00  0.00     0.000 HD 
BRANCH  16  18
HETATM   18  C   UNL     1      -9.009  15.486  68.499  1.00  0.00    -0.191 A  
HETATM   19  C   UNL     1      -9.784  15.540  70.690  1.00  0.00     0.929 A  
HETATM   20  C   UNL     1     -10.202  16.077  68.103  1.00  0.00    -0.243 A  
HETATM   21  C   UNL     1     -11.227  16.291  69.020  1.00  0.00    -0.326 A  
HETATM   22  N   UNL     1      -8.771  15.273  69.807  1.00  0.00    -0.110 NA 
HETATM   23  C   UNL     1     -11.067  15.988  70.365  1.00  0.00    -0.364 A  
BRANCH  23  24
HETATM   24  N   UNL     1     -12.112  16.142  71.247  1.00  0.00    -0.376 NA 
HETATM   25  C   UNL     1     -13.449  15.583  70.958  1.00  0.00    -0.368 C  
HETATM   26  C   UNL     1     -13.830  14.522  72.016  1.00  0.00    -0.468 C  
HETATM   27  N   UNL     1     -13.756  15.028  73.399  1.00  0.00    -0.485 NA 
HETATM   28  C   UNL     1     -12.404  15.568  73.648  1.00  0.00    -0.578 C  
HETATM   29  H   UNL     1     -14.023  14.320  74.083  1.00  0.00     0.000 HD 
HETATM   30  C   UNL     1     -11.961  16.636  72.623  1.00  0.00    -0.219 C  
ENDBRANCH  23  24
ENDBRANCH  16  18
ENDBRANCH  10  16
BRANCH  15  31
HETATM   31  C   UNL     1     -10.766  11.313  65.862  1.00  0.00    -0.232 C  
HETATM   32  C   UNL     1     -11.103  12.341  66.959  1.00  0.00    -0.339 C  
HETATM   33  C   UNL     1     -11.229  11.965  64.552  1.00  0.00    -0.380 C  
HETATM   34  C   UNL     1     -12.375  13.000  66.445  1.00  0.00    -0.227 C  
HETATM   35  C   UNL     1     -12.175  13.098  64.939  1.00  0.00    -0.477 C  
ENDBRANCH  15  31
ENDBRANCH   2   4
TORSDOF 5
ENDMDL
MODEL      114
REMARK 921   NORMALIZED FREE ENERGY PREDICTED BY IDOCK:   -4.39 KCAL/MOL
REMARK 922        TOTAL FREE ENERGY PREDICTED BY IDOCK:   -6.26 KCAL/MOL
REMARK 923 INTER-LIGAND FREE ENERGY PREDICTED BY IDOCK:   -6.44 KCAL/MOL
REMARK 924 INTRA-LIGAND FREE ENERGY PREDICTED BY IDOCK:    0.18 KCAL/MOL
REMARK 927      BINDING AFFINITY PREDICTED BY RF-SCORE:    0.00 PKD
ROOT
HETATM    1  C   UNL     1      -9.959  17.295  66.201  1.00  0.00    -0.288 C  
HETATM    2  C   UNL     1     -10.331  15.969  65.588  1.00  0.00    -0.392 C  
HETATM    3  O   UNL     1     -10.790  15.953  64.444  1.00  0.00    -0.465 OA 
ENDROOT
BRANCH   2   4
HETATM    4  C   UNL     1     -10.069  14.689  66.348  1.00  0.00    -0.288 C  
HETATM    5  C   UNL     1     -11.064  13.817  66.614  1.00  0.00    -0.316 C  
HETATM    6  C   UNL     1     -12.541  14.004  66.326  1.00  0.00    -0.352 C  
HETATM    7  C   UNL     1     -10.700  12.527  67.238  1.00  0.00    -0.259 A  
HETATM    8  C   UNL     1     -11.630  11.595  67.623  1.00  0.00    -0.279 A  
HETATM    9  N   UNL     1     -11.317  10.407  68.146  1.00  0.00    -0.298 NA 
HETATM   10  C   UNL     1     -10.033  10.072  68.290  1.00  0.00    -0.153 A  
HETATM   11  N   UNL     1      -9.046  10.922  67.971  1.00  0.00    -0.148 NA 
HETATM   12  O   UNL     1      -7.878  15.307  66.963  1.00  0.00    -0.210 OA 
HETATM   13  C   UNL     1      -8.683  14.387  66.841  1.00  0.00    -0.193 C  
HETATM   14  C   UNL     1      -9.386  12.135  67.452  1.00  0.00    -0.181 A  
HETATM   15  N   UNL     1      -8.354  13.069  67.146  1.00  0.00    -0.176 N  
BRANCH  10  16
HETATM   16  N   UNL     1      -9.720   8.795  68.749  1.00  0.00    -0.162 NA 
HETATM   17  H   UNL     1      -9.535   8.706  69.748  1.00  0.00     0.000 HD 
BRANCH  16  18
HETATM   18  C   UNL     1      -9.630   7.621  67.994  1.00  0.00    -0.145 A  
HETATM   19  C   UNL     1      -8.289   6.040  66.941  1.00  0.00    -0.105 A  
HETATM   20  C   UNL     1     -10.735   7.021  67.402  1.00  0.00    -0.383 A  
HETATM   21  C   UNL     1     -10.575   5.986  66.485  1.00  0.00    -0.238 A  
HETATM   22  N   UNL     1      -8.405   7.090  67.812  1.00  0.00    -0.117 NA 
HETATM   23  C   UNL     1      -9.320   5.474  66.186  1.00  0.00    -0.157 A  
BRANCH  23  24
HETATM   24  N   UNL     1      -9.172   4.497  65.228  1.00  0.00    -0.150 NA 
HETATM   25  C   UNL     1     -10.343   3.806  64.650  1.00  0.00    -0.163 C  
HETATM   26  C   UNL     1     -10.438   4.084  63.132  1.00  0.00    -0.122 C  
HETATM   27  N   UNL     1      -9.206   3.739  62.400  1.00  0.00    -0.093 NA 
HETATM   28  C   UNL     1      -8.064   4.456  63.003  1.00  0.00    -0.084 C  
HETATM   29  H   UNL     1      -9.289   3.916  61.399  1.00  0.00     0.000 HD 
HETATM   30  C   UNL     1      -7.913   4.220  64.523  1.00  0.00    -0.090 C  
ENDBRANCH  23  24
ENDBRANCH  16  18
ENDBRANCH  10  16
BRANCH  15  31
HETATM   31  C   UNL     1      -6.972  12.712  67.510  1.00  0.00    -0.150 C  
HETATM   32  C   UNL     1      -6.729  12.314  68.978  1.00  0.00    -0.105 C  
HETATM   33  C   UNL     1      -6.417  11.543  66.685  1.00  0.00    -0.090 C  
HETATM   34  C   UNL     1      -5.429  11.527  68.919  1.00  0.00    -0.042 C  
HETATM   35  C   UNL     1      -5.513  10.741  67.618  1.00  0.00    -0.043 C  
ENDBRANCH  15  31
ENDBRANCH   2   4
TORSDOF 5
ENDMDL
MODEL      115
REMARK 921   NORMALIZED FREE ENERGY PREDICTED BY IDOCK:   -4.32 KCAL/MOL
REMARK 922        TOTAL FREE ENERGY PREDICTED BY IDOCK:   -6.18 KCAL/MOL
REMARK 923 INTER-LIGAND FREE ENERGY PREDICTED BY IDOCK:   -5.79 KCAL/MOL
REMARK 924 INTRA-LIGAND FREE ENERGY PREDICTED BY IDOCK:   -0.39 KCAL/MOL
REMARK 927      BINDING AFFINITY PREDICTED BY RF-SCORE:    0.00 PKD
ROOT
HETATM    1  C   UNL     1      -6.051   3.804  64.189  1.00  0.00    -0.018 C  
HETATM    2  C   UNL     1      -6.270   4.057  65.658  1.00  0.00    -0.031 C  
HETATM    3  O   UNL     1      -5.726   3.311  66.476  1.00  0.00    -0.021 OA 
ENDROOT
BRANCH   2   4
HETATM    4  C   UNL     1      -7.082   5.251  66.103  1.00  0.00    -0.072 C  
HETATM    5  C   UNL     1      -8.427   5.188  66.193  1.00  0.00    -0.115 C  
HETATM    6  C   UNL     1      -9.315   4.031  65.779  1.00  0.00    -0.160 C  
HETATM    7  C   UNL     1      -9.133   6.353  66.768  1.00  0.00    -0.147 A  
HETATM    8  C   UNL     1     -10.501   6.436  66.840  1.00  0.00    -0.272 A  
HETATM    9  N   UNL     1     -11.154   7.459  67.396  1.00  0.00    -0.118 NA 
HETATM   10  C   UNL     1     -10.460   8.460  67.942  1.00  0.00    -0.193 A  
HETATM   11  N   UNL     1      -9.120   8.490  67.901  1.00  0.00    -0.140 NA 
HETATM   12  O   UNL     1      -5.259   6.743  65.989  1.00  0.00    -0.017 OA 
HETATM   13  C   UNL     1      -6.389   6.543  66.430  1.00  0.00    -0.042 C  
HETATM   14  C   UNL     1      -8.472   7.443  67.317  1.00  0.00    -0.118 A  
HETATM   15  N   UNL     1      -7.050   7.475  67.223  1.00  0.00    -0.083 N  
BRANCH  10  16
HETATM   16  N   UNL     1     -11.150   9.474  68.601  1.00  0.00    -0.461 NA 
HETATM   17  H   UNL     1     -11.807   9.179  69.323  1.00  0.00     0.000 HD 
BRANCH  16  18
HETATM   18  C   UNL     1     -11.043  10.853  68.385  1.00  0.00    -0.262 A  
HETATM   19  C   UNL     1     -11.892  12.987  68.747  1.00  0.00    -0.317 A  
HETATM   20  C   UNL     1     -10.153  11.404  67.471  1.00  0.00    -0.205 A  
HETATM   21  C   UNL     1     -10.230  12.750  67.129  1.00  0.00    -0.235 A  
HETATM   22  N   UNL     1     -11.876  11.657  69.074  1.00  0.00    -0.320 NA 
HETATM   23  C   UNL     1     -11.145  13.599  67.737  1.00  0.00    -0.272 A  
BRANCH  23  24
HETATM   24  N   UNL     1     -11.254  14.912  67.340  1.00  0.00    -0.329 NA 
HETATM   25  C   UNL     1     -11.382  16.004  68.328  1.00  0.00    -0.326 C  
HETATM   26  C   UNL     1     -10.175  16.964  68.231  1.00  0.00    -0.318 C  
HETATM   27  N   UNL     1      -9.966  17.500  66.874  1.00  0.00    -0.300 NA 
HETATM   28  C   UNL     1      -9.834  16.379  65.921  1.00  0.00    -0.315 C  
HETATM   29  H   UNL     1      -9.174  18.141  66.829  1.00  0.00     0.000 HD 
HETATM   30  C   UNL     1     -11.012  15.380  65.968  1.00  0.00    -0.286 C  
ENDBRANCH  23  24
ENDBRANCH  16  18
ENDBRANCH  10  16
BRANCH  15  31
HETATM   31  C   UNL     1      -6.359   8.696  67.671  1.00  0.00    -0.053 C  
HETATM   32  C   UNL     1      -6.766  10.010  66.978  1.00  0.00    -0.078 C  
HETATM   33  C   UNL     1      -6.532   8.969  69.171  1.00  0.00    -0.043 C  
HETATM   34  C   UNL     1      -6.320  11.081  67.962  1.00  0.00    -0.057 C  
HETATM   35  C   UNL     1      -6.604  10.486  69.333  1.00  0.00    -0.069 C  
ENDBRANCH  15  31
ENDBRANCH   2   4
TORSDOF 5
ENDMDL
MODEL      116
REMARK 921   NORMALIZED FREE ENERGY PREDICTED BY IDOCK:   -4.14 KCAL/MOL
REMARK 922        TOTAL FREE ENERGY PREDICTED BY IDOCK:   -5.94 KCAL/MOL
REMARK 923 INTER-LIGAND FREE ENERGY PREDICTED BY IDOCK:   -6.10 KCAL/MOL
REMARK 924 INTRA-LIGAND FREE ENERGY PREDICTED BY IDOCK:    0.16 KCAL/MOL
REMARK 927      BINDING AFFINITY PREDICTED BY RF-SCORE:    0.00 PKD
ROOT
HETATM    1  C   UNL     1      -8.180  19.960  67.104  1.00  0.00    -0.351 C  
HETATM    2  C   UNL     1      -9.071  18.926  67.741  1.00  0.00    -0.290 C  
HETATM    3  O   UNL     1      -9.999  19.304  68.460  1.00  0.00    -0.384 OA 
ENDROOT
BRANCH   2   4
HETATM    4  C   UNL     1      -8.862  17.461  67.434  1.00  0.00    -0.230 C  
HETATM    5  C   UNL     1      -7.722  16.828  67.783  1.00  0.00    -0.180 C  
HETATM    6  C   UNL     1      -6.483  17.453  68.394  1.00  0.00    -0.177 C  
HETATM    7  C   UNL     1      -7.654  15.366  67.571  1.00  0.00    -0.207 A  
HETATM    8  C   UNL     1      -6.524  14.628  67.816  1.00  0.00    -0.164 A  
HETATM    9  N   UNL     1      -6.458  13.303  67.674  1.00  0.00    -0.158 NA 
HETATM   10  C   UNL     1      -7.548  12.629  67.297  1.00  0.00    -0.120 A  
HETATM   11  N   UNL     1      -8.696  13.258  67.006  1.00  0.00    -0.208 NA 
HETATM   12  O   UNL     1     -10.764  17.310  66.047  1.00  0.00    -0.249 OA 
HETATM   13  C   UNL     1      -9.928  16.694  66.706  1.00  0.00    -0.279 C  
HETATM   14  C   UNL     1      -8.739  14.613  67.144  1.00  0.00    -0.222 A  
HETATM   15  N   UNL     1      -9.936  15.305  66.799  1.00  0.00    -0.237 N  
BRANCH  10  16
HETATM   16  N   UNL     1      -7.492  11.239  67.243  1.00  0.00    -0.119 NA 
HETATM   17  H   UNL     1      -7.663  10.814  66.331  1.00  0.00     0.000 HD 
BRANCH  16  18
HETATM   18  C   UNL     1      -7.230  10.358  68.299  1.00  0.00    -0.083 A  
HETATM   19  C   UNL     1      -7.133   8.169  69.076  1.00  0.00    -0.062 A  
HETATM   20  C   UNL     1      -7.021  10.790  69.603  1.00  0.00    -0.134 A  
HETATM   21  C   UNL     1      -6.982   9.879  70.654  1.00  0.00    -0.073 A  
HETATM   22  N   UNL     1      -7.224   9.040  68.022  1.00  0.00    -0.079 NA 
HETATM   23  C   UNL     1      -7.077   8.512  70.429  1.00  0.00    -0.038 A  
BRANCH  23  24
HETATM   24  N   UNL     1      -7.103   7.628  71.484  1.00  0.00    -0.060 NA 
HETATM   25  C   UNL     1      -8.135   6.575  71.577  1.00  0.00    -0.112 C  
HETATM   26  C   UNL     1      -7.483   5.175  71.528  1.00  0.00    -0.095 C  
HETATM   27  N   UNL     1      -6.438   4.984  72.550  1.00  0.00    -0.041 NA 
HETATM   28  C   UNL     1      -5.424   6.050  72.417  1.00  0.00    -0.031 C  
HETATM   29  H   UNL     1      -6.027   4.051  72.513  1.00  0.00     0.000 HD 
HETATM   30  C   UNL     1      -6.013   7.478  72.458  1.00  0.00    -0.040 C  
ENDBRANCH  23  24
ENDBRANCH  16  18
ENDBRANCH  10  16
BRANCH  15  31
HETATM   31  C   UNL     1     -11.035  14.525  66.206  1.00  0.00    -0.323 C  
HETATM   32  C   UNL     1     -10.690  13.688  64.959  1.00  0.00    -0.374 C  
HETATM   33  C   UNL     1     -11.665  13.529  67.190  1.00  0.00    -0.419 C  
HETATM   34  C   UNL     1     -11.798  12.646  64.916  1.00  0.00    -0.436 C  
HETATM   35  C   UNL     1     -12.057  12.300  66.375  1.00  0.00    -0.123 C  
ENDBRANCH  15  31
ENDBRANCH   2   4
TORSDOF 5
ENDMDL
MODEL      117
REMARK 921   NORMALIZED FREE ENERGY PREDICTED BY IDOCK:   -4.09 KCAL/MOL
REMARK 922        TOTAL FREE ENERGY PREDICTED BY IDOCK:   -5.88 KCAL/MOL
REMARK 923 INTER-LIGAND FREE ENERGY PREDICTED BY IDOCK:   -5.64 KCAL/MOL
REMARK 924 INTRA-LIGAND FREE ENERGY PREDICTED BY IDOCK:   -0.24 KCAL/MOL
REMARK 927      BINDING AFFINITY PREDICTED BY RF-SCORE:    0.00 PKD
ROOT
HETATM    1  C   UNL     1     -11.123  15.832  64.745  1.00  0.00    -0.413 C  
HETATM    2  C   UNL     1     -11.738  14.498  65.078  1.00  0.00    -0.392 C  
HETATM    3  O   UNL     1     -12.964  14.381  65.028  1.00  0.00    -0.643 OA 
ENDROOT
BRANCH   2   4
HETATM    4  C   UNL     1     -10.849  13.316  65.391  1.00  0.00    -0.304 C  
HETATM    5  C   UNL     1     -10.730  12.282  64.532  1.00  0.00    -0.358 C  
HETATM    6  C   UNL     1     -11.504  12.074  63.245  1.00  0.00    -0.398 C  
HETATM    7  C   UNL     1      -9.736  11.235  64.849  1.00  0.00    -0.297 A  
HETATM    8  C   UNL     1      -9.579  10.101  64.093  1.00  0.00    -0.272 A  
HETATM    9  N   UNL     1      -8.658   9.167  64.338  1.00  0.00    -0.192 NA 
HETATM   10  C   UNL     1      -7.811   9.334  65.356  1.00  0.00    -0.100 A  
HETATM   11  N   UNL     1      -7.896  10.394  66.174  1.00  0.00    -0.130 NA 
HETATM   12  O   UNL     1     -10.482  13.973  67.627  1.00  0.00    -0.243 OA 
HETATM   13  C   UNL     1     -10.098  13.273  66.691  1.00  0.00    -0.266 C  
HETATM   14  C   UNL     1      -8.853  11.328  65.915  1.00  0.00    -0.169 A  
HETATM   15  N   UNL     1      -8.989  12.440  66.797  1.00  0.00    -0.211 N  
BRANCH  10  16
HETATM   16  N   UNL     1      -6.794   8.400  65.544  1.00  0.00    -0.069 NA 
HETATM   17  H   UNL     1      -6.040   8.409  64.858  1.00  0.00     0.000 HD 
BRANCH  16  18
HETATM   18  C   UNL     1      -6.692   7.452  66.568  1.00  0.00    -0.061 A  
HETATM   19  C   UNL     1      -7.671   5.715  67.765  1.00  0.00    -0.096 A  
HETATM   20  C   UNL     1      -5.651   7.448  67.488  1.00  0.00    -0.033 A  
HETATM   21  C   UNL     1      -5.701   6.630  68.613  1.00  0.00    -0.017 A  
HETATM   22  N   UNL     1      -7.677   6.539  66.670  1.00  0.00    -0.098 NA 
HETATM   23  C   UNL     1      -6.752   5.745  68.817  1.00  0.00    -0.064 A  
BRANCH  23  24
HETATM   24  N   UNL     1      -6.821   4.992  69.966  1.00  0.00    -0.046 NA 
HETATM   25  C   UNL     1      -8.032   4.216  70.304  1.00  0.00    -0.051 C  
HETATM   26  C   UNL     1      -7.710   2.706  70.350  1.00  0.00    -0.043 C  
HETATM   27  N   UNL     1      -6.599   2.375  71.261  1.00  0.00    -0.023 NA 
HETATM   28  C   UNL     1      -5.408   3.164  70.884  1.00  0.00    -0.008 C  
HETATM   29  H   UNL     1      -6.408   1.374  71.289  1.00  0.00     0.000 HD 
HETATM   30  C   UNL     1      -5.664   4.687  70.820  1.00  0.00    -0.016 C  
ENDBRANCH  23  24
ENDBRANCH  16  18
ENDBRANCH  10  16
BRANCH  15  31
HETATM   31  C   UNL     1      -8.152  12.463  68.009  1.00  0.00    -0.162 C  
HETATM   32  C   UNL     1      -7.846  11.101  68.659  1.00  0.00    -0.138 C  
HETATM   33  C   UNL     1      -6.779  13.110  67.779  1.00  0.00    -0.149 C  
HETATM   34  C   UNL     1      -6.605  11.379  69.495  1.00  0.00    -0.129 C  
HETATM   35  C   UNL     1      -5.787  12.350  68.655  1.00  0.00    -0.054 C  
ENDBRANCH  15  31
ENDBRANCH   2   4
TORSDOF 5
ENDMDL
MODEL      118
REMARK 921   NORMALIZED FREE ENERGY PREDICTED BY IDOCK:   -4.05 KCAL/MOL
REMARK 922        TOTAL FREE ENERGY PREDICTED BY IDOCK:   -5.83 KCAL/MOL
REMARK 923 INTER-LIGAND FREE ENERGY PREDICTED BY IDOCK:   -6.55 KCAL/MOL
REMARK 924 INTRA-LIGAND FREE ENERGY PREDICTED BY IDOCK:    0.72 KCAL/MOL
REMARK 927      BINDING AFFINITY PREDICTED BY RF-SCORE:    0.00 PKD
ROOT
HETATM    1  C   UNL     1      -8.035  16.574  66.764  1.00  0.00    -0.290 C  
HETATM    2  C   UNL     1      -8.038  15.824  68.071  1.00  0.00    -0.140 C  
HETATM    3  O   UNL     1      -7.444  16.312  69.035  1.00  0.00    -0.197 OA 
ENDROOT
BRANCH   2   4
HETATM    4  C   UNL     1      -8.822  14.539  68.199  1.00  0.00    -0.177 C  
HETATM    5  C   UNL     1      -8.292  13.356  67.824  1.00  0.00    -0.178 C  
HETATM    6  C   UNL     1      -6.956  13.130  67.142  1.00  0.00     0.141 C  
HETATM    7  C   UNL     1      -9.070  12.132  68.110  1.00  0.00    -0.196 A  
HETATM    8  C   UNL     1      -8.670  10.881  67.709  1.00  0.00    -0.129 A  
HETATM    9  N   UNL     1      -9.336   9.762  67.998  1.00  0.00    -0.128 NA 
HETATM   10  C   UNL     1     -10.445   9.831  68.739  1.00  0.00    -0.218 A  
HETATM   11  N   UNL     1     -10.936  11.006  69.159  1.00  0.00    -0.221 NA 
HETATM   12  O   UNL     1     -10.851  15.631  68.701  1.00  0.00    -0.249 OA 
HETATM   13  C   UNL     1     -10.226  14.573  68.730  1.00  0.00    -0.244 C  
HETATM   14  C   UNL     1     -10.250  12.139  68.842  1.00  0.00    -0.036 A  
HETATM   15  N   UNL     1     -10.778  13.402  69.241  1.00  0.00    -0.059 N  
BRANCH  10  16
HETATM   16  N   UNL     1     -11.078   8.648  69.112  1.00  0.00    -0.426 NA 
HETATM   17  H   UNL     1     -11.764   8.720  69.863  1.00  0.00     0.000 HD 
BRANCH  16  18
HETATM   18  C   UNL     1     -10.879   7.372  68.573  1.00  0.00    -0.026 A  
HETATM   19  C   UNL     1     -10.005   5.231  68.818  1.00  0.00    -0.174 A  
HETATM   20  C   UNL     1     -11.157   7.065  67.247  1.00  0.00    -0.302 A  
HETATM   21  C   UNL     1     -10.744   5.855  66.697  1.00  0.00    -0.323 A  
HETATM   22  N   UNL     1     -10.356   6.430  69.381  1.00  0.00    -0.193 NA 
HETATM   23  C   UNL     1     -10.105   4.892  67.467  1.00  0.00    -0.132 A  
BRANCH  23  24
HETATM   24  N   UNL     1      -9.643   3.730  66.893  1.00  0.00    -0.206 NA 
HETATM   25  C   UNL     1      -9.274   3.674  65.463  1.00  0.00    -0.155 C  
HETATM   26  C   UNL     1      -7.773   3.344  65.306  1.00  0.00    -0.081 C  
HETATM   27  N   UNL     1      -7.373   2.109  66.004  1.00  0.00    -0.064 NA 
HETATM   28  C   UNL     1      -7.750   2.210  67.429  1.00  0.00    -0.061 C  
HETATM   29  H   UNL     1      -6.382   1.899  65.880  1.00  0.00     0.000 HD 
HETATM   30  C   UNL     1      -9.243   2.539  67.655  1.00  0.00    -0.184 C  
ENDBRANCH  23  24
ENDBRANCH  16  18
ENDBRANCH  10  16
BRANCH  15  31
HETATM   31  C   UNL     1     -12.101  13.421  69.885  1.00  0.00    -0.322 C  
HETATM   32  C   UNL     1     -12.386  12.301  70.904  1.00  0.00    -0.363 C  
HETATM   33  C   UNL     1     -12.383  14.726  70.642  1.00  0.00    -0.401 C  
HETATM   34  C   UNL     1     -13.524  12.867  71.741  1.00  0.00    -0.369 C  
HETATM   35  C   UNL     1     -13.205  14.349  71.872  1.00  0.00    -0.444 C  
ENDBRANCH  15  31
ENDBRANCH   2   4
TORSDOF 5
ENDMDL
MODEL      119
REMARK 921   NORMALIZED FREE ENERGY PREDICTED BY IDOCK:   -3.96 KCAL/MOL
REMARK 922        TOTAL FREE ENERGY PREDICTED BY IDOCK:   -5.71 KCAL/MOL
REMARK 923 INTER-LIGAND FREE ENERGY PREDICTED BY IDOCK:   -5.48 KCAL/MOL
REMARK 924 INTRA-LIGAND FREE ENERGY PREDICTED BY IDOCK:   -0.23 KCAL/MOL
REMARK 927      BINDING AFFINITY PREDICTED BY RF-SCORE:    0.00 PKD
ROOT
HETATM    1  C   UNL     1      -9.260  19.004  68.691  1.00  0.00    -0.414 C  
HETATM    2  C   UNL     1      -9.915  17.698  69.058  1.00  0.00    -0.264 C  
HETATM    3  O   UNL     1     -10.723  17.680  69.989  1.00  0.00     0.380 OA 
ENDROOT
BRANCH   2   4
HETATM    4  C   UNL     1      -9.631  16.458  68.241  1.00  0.00    -0.221 C  
HETATM    5  C   UNL     1      -8.518  15.723  68.448  1.00  0.00    -0.170 C  
HETATM    6  C   UNL     1      -7.372  16.049  69.387  1.00  0.00    -0.212 C  
HETATM    7  C   UNL     1      -8.384  14.453  67.704  1.00  0.00    -0.186 A  
HETATM    8  C   UNL     1      -7.266  13.660  67.775  1.00  0.00    -0.164 A  
HETATM    9  N   UNL     1      -7.147  12.489  67.146  1.00  0.00    -0.105 NA 
HETATM   10  C   UNL     1      -8.168  12.027  66.421  1.00  0.00     0.104 A  
HETATM   11  N   UNL     1      -9.295  12.736  66.264  1.00  0.00    -0.199 NA 
HETATM   12  O   UNL     1     -11.364  16.877  66.697  1.00  0.00     0.375 OA 
HETATM   13  C   UNL     1     -10.587  16.044  67.160  1.00  0.00    -0.305 C  
HETATM   14  C   UNL     1      -9.393  13.936  66.903  1.00  0.00    -0.258 A  
HETATM   15  N   UNL     1     -10.565  14.726  66.715  1.00  0.00    -0.296 N  
BRANCH  10  16
HETATM   16  N   UNL     1      -8.066  10.762  65.847  1.00  0.00    -0.172 NA 
HETATM   17  H   UNL     1      -7.976  10.732  64.832  1.00  0.00     0.000 HD 
BRANCH  16  18
HETATM   18  C   UNL     1      -8.075   9.528  66.507  1.00  0.00    -0.112 A  
HETATM   19  C   UNL     1      -9.271   7.917  67.682  1.00  0.00    -0.136 A  
HETATM   20  C   UNL     1      -6.913   8.828  66.807  1.00  0.00    -0.080 A  
HETATM   21  C   UNL     1      -6.948   7.722  67.651  1.00  0.00    -0.081 A  
HETATM   22  N   UNL     1      -9.268   9.037  66.893  1.00  0.00    -0.137 NA 
HETATM   23  C   UNL     1      -8.147   7.240  68.160  1.00  0.00    -0.124 A  
BRANCH  23  24
HETATM   24  N   UNL     1      -8.159   6.187  69.045  1.00  0.00    -0.111 NA 
HETATM   25  C   UNL     1      -8.360   6.403  70.493  1.00  0.00    -0.129 C  
HETATM   26  C   UNL     1      -9.656   5.708  70.967  1.00  0.00    -0.169 C  
HETATM   27  N   UNL     1      -9.700   4.272  70.636  1.00  0.00    -0.193 NA 
HETATM   28  C   UNL     1      -9.504   4.101  69.182  1.00  0.00    -0.178 C  
HETATM   29  H   UNL     1     -10.556   3.825  70.967  1.00  0.00     0.000 HD 
HETATM   30  C   UNL     1      -8.222   4.775  68.643  1.00  0.00    -0.083 C  
ENDBRANCH  23  24
ENDBRANCH  16  18
ENDBRANCH  10  16
BRANCH  15  31
HETATM   31  C   UNL     1     -11.569  14.247  65.750  1.00  0.00    -0.346 C  
HETATM   32  C   UNL     1     -11.118  14.152  64.280  1.00  0.00    -0.146 C  
HETATM   33  C   UNL     1     -12.113  12.853  66.089  1.00  0.00    -0.458 C  
HETATM   34  C   UNL     1     -12.115  13.179  63.668  1.00  0.00    -0.583 C  
HETATM   35  C   UNL     1     -12.365  12.148  64.759  1.00  0.00    -0.310 C  
ENDBRANCH  15  31
ENDBRANCH   2   4
TORSDOF 5
ENDMDL
MODEL      120
REMARK 921   NORMALIZED FREE ENERGY PREDICTED BY IDOCK:   -3.94 KCAL/MOL
REMARK 922        TOTAL FREE ENERGY PREDICTED BY IDOCK:   -5.69 KCAL/MOL
REMARK 923 INTER-LIGAND FREE ENERGY PREDICTED BY IDOCK:   -7.03 KCAL/MOL
REMARK 924 INTRA-LIGAND FREE ENERGY PREDICTED BY IDOCK:    1.34 KCAL/MOL
REMARK 927      BINDING AFFINITY PREDICTED BY RF-SCORE:    0.00 PKD
ROOT
HETATM    1  C   UNL     1     -10.270  17.568  68.118  1.00  0.00    -0.359 C  
HETATM    2  C   UNL     1      -9.754  16.604  67.081  1.00  0.00    -0.250 C  
HETATM    3  O   UNL     1      -9.349  17.051  66.006  1.00  0.00    -0.449 OA 
ENDROOT
BRANCH   2   4
HETATM    4  C   UNL     1      -9.671  15.129  67.400  1.00  0.00    -0.209 C  
HETATM    5  C   UNL     1     -10.674  14.286  67.076  1.00  0.00    -0.290 C  
HETATM    6  C   UNL     1     -12.021  14.656  66.486  1.00  0.00    -0.284 C  
HETATM    7  C   UNL     1     -10.456  12.841  67.297  1.00  0.00    -0.238 A  
HETATM    8  C   UNL     1     -11.427  11.896  67.078  1.00  0.00    -0.316 A  
HETATM    9  N   UNL     1     -11.234  10.584  67.228  1.00  0.00    -0.333 NA 
HETATM   10  C   UNL     1     -10.029  10.136  67.588  1.00  0.00    -0.181 A  
HETATM   11  N   UNL     1      -9.018  10.977  67.853  1.00  0.00    -0.140 NA 
HETATM   12  O   UNL     1      -7.752  15.359  68.751  1.00  0.00    -0.131 OA 
HETATM   13  C   UNL     1      -8.465  14.588  68.112  1.00  0.00    -0.157 C  
HETATM   14  C   UNL     1      -9.239  12.313  67.707  1.00  0.00    -0.191 A  
HETATM   15  N   UNL     1      -8.191  13.226  68.026  1.00  0.00    -0.150 N  
BRANCH  10  16
HETATM   16  N   UNL     1      -9.814   8.762  67.650  1.00  0.00    -0.169 NA 
HETATM   17  H   UNL     1      -9.348   8.340  66.847  1.00  0.00     0.000 HD 
BRANCH  16  18
HETATM   18  C   UNL     1     -10.166   7.894  68.690  1.00  0.00    -0.205 A  
HETATM   19  C   UNL     1     -10.106   7.396  70.960  1.00  0.00    -0.190 A  
HETATM   20  C   UNL     1     -10.712   6.636  68.468  1.00  0.00    -0.308 A  
HETATM   21  C   UNL     1     -10.843   5.725  69.511  1.00  0.00    -0.410 A  
HETATM   22  N   UNL     1      -9.919   8.302  69.950  1.00  0.00    -0.187 NA 
HETATM   23  C   UNL     1     -10.502   6.064  70.814  1.00  0.00    -0.239 A  
BRANCH  23  24
HETATM   24  N   UNL     1     -10.575   5.131  71.823  1.00  0.00    -0.199 NA 
HETATM   25  C   UNL     1      -9.950   3.799  71.683  1.00  0.00    -0.141 C  
HETATM   26  C   UNL     1      -8.843   3.609  72.744  1.00  0.00    -0.093 C  
HETATM   27  N   UNL     1      -9.315   3.829  74.123  1.00  0.00    -0.092 NA 
HETATM   28  C   UNL     1      -9.923   5.172  74.221  1.00  0.00    -0.213 C  
HETATM   29  H   UNL     1      -8.576   3.687  74.812  1.00  0.00     0.000 HD 
HETATM   30  C   UNL     1     -11.041   5.427  73.185  1.00  0.00    -0.308 C  
ENDBRANCH  23  24
ENDBRANCH  16  18
ENDBRANCH  10  16
BRANCH  15  31
HETATM   31  C   UNL     1      -6.952  12.677  68.602  1.00  0.00    -0.091 C  
HETATM   32  C   UNL     1      -6.356  13.436  69.803  1.00  0.00    -0.083 C  
HETATM   33  C   UNL     1      -7.105  11.228  69.085  1.00  0.00    -0.122 C  
HETATM   34  C   UNL     1      -5.467  12.398  70.471  1.00  0.00    -0.159 C  
HETATM   35  C   UNL     1      -6.232  11.089  70.330  1.00  0.00    -0.139 C  
ENDBRANCH  15  31
ENDBRANCH   2   4
TORSDOF 5
ENDMDL
MODEL      121
REMARK 921   NORMALIZED FREE ENERGY PREDICTED BY IDOCK:   -3.85 KCAL/MOL
REMARK 922        TOTAL FREE ENERGY PREDICTED BY IDOCK:   -5.57 KCAL/MOL
REMARK 923 INTER-LIGAND FREE ENERGY PREDICTED BY IDOCK:   -6.19 KCAL/MOL
REMARK 924 INTRA-LIGAND FREE ENERGY PREDICTED BY IDOCK:    0.62 KCAL/MOL
REMARK 927      BINDING AFFINITY PREDICTED BY RF-SCORE:    0.00 PKD
ROOT
HETATM    1  C   UNL     1     -11.902  14.016  70.175  1.00  0.00    -0.377 C  
HETATM    2  C   UNL     1     -12.504  12.763  70.755  1.00  0.00    -0.271 C  
HETATM    3  O   UNL     1     -13.508  12.861  71.464  1.00  0.00    -0.259 OA 
ENDROOT
BRANCH   2   4
HETATM    4  C   UNL     1     -11.922  11.414  70.400  1.00  0.00    -0.465 C  
HETATM    5  C   UNL     1     -12.272  10.300  71.078  1.00  0.00    -0.487 C  
HETATM    6  C   UNL     1     -13.156  10.222  72.307  1.00  0.00    -0.315 C  
HETATM    7  C   UNL     1     -11.764   9.004  70.580  1.00  0.00    -0.237 A  
HETATM    8  C   UNL     1     -11.990   7.815  71.228  1.00  0.00    -0.302 A  
HETATM    9  N   UNL     1     -11.578   6.632  70.770  1.00  0.00    -0.356 NA 
HETATM   10  C   UNL     1     -10.929   6.569  69.605  1.00  0.00    -0.336 A  
HETATM   11  N   UNL     1     -10.634   7.675  68.906  1.00  0.00    -0.194 NA 
HETATM   12  O   UNL     1     -10.302  12.312  68.940  1.00  0.00    -0.172 OA 
HETATM   13  C   UNL     1     -10.916  11.306  69.291  1.00  0.00    -0.243 C  
HETATM   14  C   UNL     1     -11.050   8.875  69.397  1.00  0.00     0.045 A  
HETATM   15  N   UNL     1     -10.709  10.066  68.692  1.00  0.00    -0.217 N  
BRANCH  10  16
HETATM   16  N   UNL     1     -10.588   5.320  69.092  1.00  0.00    -0.164 NA 
HETATM   17  H   UNL     1     -11.172   4.536  69.384  1.00  0.00     0.000 HD 
BRANCH  16  18
HETATM   18  C   UNL     1      -9.534   5.019  68.222  1.00  0.00    -0.133 A  
HETATM   19  C   UNL     1      -7.299   5.299  67.645  1.00  0.00    -0.076 A  
HETATM   20  C   UNL     1      -9.720   4.347  67.020  1.00  0.00    -0.232 A  
HETATM   21  C   UNL     1      -8.691   4.261  66.088  1.00  0.00    -0.114 A  
HETATM   22  N   UNL     1      -8.303   5.443  68.566  1.00  0.00    -0.097 NA 
HETATM   23  C   UNL     1      -7.429   4.778  66.355  1.00  0.00    -0.086 A  
BRANCH  23  24
HETATM   24  N   UNL     1      -6.442   4.744  65.398  1.00  0.00    -0.035 NA 
HETATM   25  C   UNL     1      -6.605   3.963  64.154  1.00  0.00    -0.042 C  
HETATM   26  C   UNL     1      -6.582   4.899  62.924  1.00  0.00    -0.026 C  
HETATM   27  N   UNL     1      -5.379   5.748  62.861  1.00  0.00    -0.013 NA 
HETATM   28  C   UNL     1      -5.258   6.516  64.117  1.00  0.00    -0.026 C  
HETATM   29  H   UNL     1      -5.374   6.350  62.037  1.00  0.00     0.000 HD 
HETATM   30  C   UNL     1      -5.274   5.637  65.389  1.00  0.00    -0.009 C  
ENDBRANCH  23  24
ENDBRANCH  16  18
ENDBRANCH  10  16
BRANCH  15  31
HETATM   31  C   UNL     1      -9.827   9.943  67.520  1.00  0.00    -0.169 C  
HETATM   32  C   UNL     1     -10.291  10.651  66.232  1.00  0.00    -0.296 C  
HETATM   33  C   UNL     1      -8.410  10.473  67.775  1.00  0.00    -0.111 C  
HETATM   34  C   UNL     1      -9.008  10.798  65.429  1.00  0.00    -0.211 C  
HETATM   35  C   UNL     1      -7.936  11.100  66.467  1.00  0.00    -0.158 C  
ENDBRANCH  15  31
ENDBRANCH   2   4
TORSDOF 5
ENDMDL
MODEL      122
REMARK 921   NORMALIZED FREE ENERGY PREDICTED BY IDOCK:   -3.82 KCAL/MOL
REMARK 922        TOTAL FREE ENERGY PREDICTED BY IDOCK:   -5.52 KCAL/MOL
REMARK 923 INTER-LIGAND FREE ENERGY PREDICTED BY IDOCK:   -6.18 KCAL/MOL
REMARK 924 INTRA-LIGAND FREE ENERGY PREDICTED BY IDOCK:    0.66 KCAL/MOL
REMARK 927      BINDING AFFINITY PREDICTED BY RF-SCORE:    0.00 PKD
ROOT
HETATM    1  C   UNL     1      -5.897  17.507  70.092  1.00  0.00    -0.189 C  
HETATM    2  C   UNL     1      -6.667  17.380  68.803  1.00  0.00    -0.219 C  
HETATM    3  O   UNL     1      -6.497  18.228  67.924  1.00  0.00    -0.190 OA 
ENDROOT
BRANCH   2   4
HETATM    4  C   UNL     1      -7.569  16.188  68.580  1.00  0.00    -0.183 C  
HETATM    5  C   UNL     1      -7.075  15.006  68.156  1.00  0.00    -0.126 C  
HETATM    6  C   UNL     1      -5.647  14.713  67.738  1.00  0.00    -0.059 C  
HETATM    7  C   UNL     1      -8.000  13.855  68.096  1.00  0.00    -0.148 A  
HETATM    8  C   UNL     1      -7.633  12.625  67.610  1.00  0.00    -0.152 A  
HETATM    9  N   UNL     1      -8.441  11.564  67.590  1.00  0.00    -0.131 NA 
HETATM   10  C   UNL     1      -9.675  11.670  68.089  1.00  0.00    -0.189 A  
HETATM   11  N   UNL     1     -10.142  12.834  68.564  1.00  0.00    -0.216 NA 
HETATM   12  O   UNL     1      -9.556  17.439  68.806  1.00  0.00    -0.276 OA 
HETATM   13  C   UNL     1      -9.047  16.320  68.810  1.00  0.00    -0.245 C  
HETATM   14  C   UNL     1      -9.307  13.910  68.562  1.00  0.00    -0.164 A  
HETATM   15  N   UNL     1      -9.797  15.167  69.022  1.00  0.00    -0.229 N  
BRANCH  10  16
HETATM   16  N   UNL     1     -10.475  10.532  68.149  1.00  0.00    -0.174 NA 
HETATM   17  H   UNL     1     -11.467  10.685  68.331  1.00  0.00     0.000 HD 
BRANCH  16  18
HETATM   18  C   UNL     1     -10.072   9.201  67.988  1.00  0.00    -0.196 A  
HETATM   19  C   UNL     1      -8.883   7.378  68.807  1.00  0.00    -0.130 A  
HETATM   20  C   UNL     1     -10.276   8.491  66.812  1.00  0.00    -0.370 A  
HETATM   21  C   UNL     1      -9.671   7.253  66.616  1.00  0.00    -0.249 A  
HETATM   22  N   UNL     1      -9.425   8.619  69.016  1.00  0.00    -0.152 NA 
HETATM   23  C   UNL     1      -8.906   6.658  67.610  1.00  0.00    -0.116 A  
BRANCH  23  24
HETATM   24  N   UNL     1      -8.260   5.466  67.377  1.00  0.00    -0.101 NA 
HETATM   25  C   UNL     1      -8.974   4.305  66.805  1.00  0.00    -0.122 C  
HETATM   26  C   UNL     1      -8.368   3.921  65.436  1.00  0.00    -0.105 C  
HETATM   27  N   UNL     1      -6.916   3.674  65.491  1.00  0.00    -0.059 NA 
HETATM   28  C   UNL     1      -6.241   4.859  66.060  1.00  0.00    -0.031 C  
HETATM   29  H   UNL     1      -6.534   3.410  64.583  1.00  0.00     0.000 HD 
HETATM   30  C   UNL     1      -6.801   5.296  67.432  1.00  0.00    -0.060 C  
ENDBRANCH  23  24
ENDBRANCH  16  18
ENDBRANCH  10  16
BRANCH  15  31
HETATM   31  C   UNL     1     -11.223  15.260  69.376  1.00  0.00    -0.285 C  
HETATM   32  C   UNL     1     -11.855  14.013  70.023  1.00  0.00    -0.388 C  
HETATM   33  C   UNL     1     -11.527  16.408  70.349  1.00  0.00    -0.150 C  
HETATM   34  C   UNL     1     -13.085  14.565  70.727  1.00  0.00    -0.363 C  
HETATM   35  C   UNL     1     -12.646  15.919  71.265  1.00  0.00    -0.411 C  
ENDBRANCH  15  31
ENDBRANCH   2   4
TORSDOF 5
ENDMDL
MODEL      123
REMARK 921   NORMALIZED FREE ENERGY PREDICTED BY IDOCK:   -3.77 KCAL/MOL
REMARK 922        TOTAL FREE ENERGY PREDICTED BY IDOCK:   -5.46 KCAL/MOL
REMARK 923 INTER-LIGAND FREE ENERGY PREDICTED BY IDOCK:   -6.19 KCAL/MOL
REMARK 924 INTRA-LIGAND FREE ENERGY PREDICTED BY IDOCK:    0.73 KCAL/MOL
REMARK 927      BINDING AFFINITY PREDICTED BY RF-SCORE:    0.00 PKD
ROOT
HETATM    1  C   UNL     1     -10.585  19.864  67.331  1.00  0.00    -0.505 C  
HETATM    2  C   UNL     1      -9.144  19.489  67.100  1.00  0.00    -0.309 C  
HETATM    3  O   UNL     1      -8.369  20.349  66.675  1.00  0.00    -0.257 OA 
ENDROOT
BRANCH   2   4
HETATM    4  C   UNL     1      -8.659  18.103  67.459  1.00  0.00    -0.249 C  
HETATM    5  C   UNL     1      -7.395  17.713  67.192  1.00  0.00    -0.213 C  
HETATM    6  C   UNL     1      -6.342  18.493  66.430  1.00  0.00    -0.223 C  
HETATM    7  C   UNL     1      -6.961  16.394  67.699  1.00  0.00    -0.157 A  
HETATM    8  C   UNL     1      -5.728  15.858  67.427  1.00  0.00    -0.056 A  
HETATM    9  N   UNL     1      -5.303  14.690  67.913  1.00  0.00    -0.247 NA 
HETATM   10  C   UNL     1      -6.094  13.994  68.733  1.00  0.00    -0.086 A  
HETATM   11  N   UNL     1      -7.329  14.416  69.042  1.00  0.00    -0.128 NA 
HETATM   12  O   UNL     1     -10.814  17.308  67.994  1.00  0.00    -0.381 OA 
HETATM   13  C   UNL     1      -9.603  17.128  68.102  1.00  0.00    -0.270 C  
HETATM   14  C   UNL     1      -7.750  15.604  68.524  1.00  0.00    -0.131 A  
HETATM   15  N   UNL     1      -9.075  16.049  68.804  1.00  0.00    -0.210 N  
BRANCH  10  16
HETATM   16  N   UNL     1      -5.603  12.825  69.308  1.00  0.00    -0.073 NA 
HETATM   17  H   UNL     1      -4.687  12.889  69.752  1.00  0.00     0.000 HD 
BRANCH  16  18
HETATM   18  C   UNL     1      -6.224  11.572  69.344  1.00  0.00    -0.094 A  
HETATM   19  C   UNL     1      -6.940   9.750  70.600  1.00  0.00    -0.094 A  
HETATM   20  C   UNL     1      -6.537  10.854  68.197  1.00  0.00    -0.062 A  
HETATM   21  C   UNL     1      -6.951   9.528  68.279  1.00  0.00    -0.070 A  
HETATM   22  N   UNL     1      -6.485  11.042  70.555  1.00  0.00    -0.307 NA 
HETATM   23  C   UNL     1      -7.133   8.903  69.506  1.00  0.00    -0.059 A  
BRANCH  23  24
HETATM   24  N   UNL     1      -7.479   7.573  69.571  1.00  0.00    -0.091 NA 
HETATM   25  C   UNL     1      -8.220   6.919  68.472  1.00  0.00    -0.121 C  
HETATM   26  C   UNL     1      -7.371   5.790  67.846  1.00  0.00    -0.077 C  
HETATM   27  N   UNL     1      -6.902   4.799  68.832  1.00  0.00    -0.050 NA 
HETATM   28  C   UNL     1      -6.160   5.492  69.905  1.00  0.00    -0.022 C  
HETATM   29  H   UNL     1      -6.354   4.055  68.401  1.00  0.00     0.000 HD 
HETATM   30  C   UNL     1      -6.957   6.635  70.574  1.00  0.00    -0.064 C  
ENDBRANCH  23  24
ENDBRANCH  16  18
ENDBRANCH  10  16
BRANCH  15  31
HETATM   31  C   UNL     1      -9.960  15.143  69.555  1.00  0.00    -0.201 C  
HETATM   32  C   UNL     1     -10.975  15.805  70.507  1.00  0.00    -0.361 C  
HETATM   33  C   UNL     1     -10.802  14.236  68.647  1.00  0.00    -0.265 C  
HETATM   34  C   UNL     1     -12.032  14.729  70.699  1.00  0.00    -0.371 C  
HETATM   35  C   UNL     1     -12.152  14.059  69.338  1.00  0.00    -0.386 C  
ENDBRANCH  15  31
ENDBRANCH   2   4
TORSDOF 5
ENDMDL
MODEL      124
REMARK 921   NORMALIZED FREE ENERGY PREDICTED BY IDOCK:   -3.72 KCAL/MOL
REMARK 922        TOTAL FREE ENERGY PREDICTED BY IDOCK:   -5.40 KCAL/MOL
REMARK 923 INTER-LIGAND FREE ENERGY PREDICTED BY IDOCK:   -5.89 KCAL/MOL
REMARK 924 INTRA-LIGAND FREE ENERGY PREDICTED BY IDOCK:    0.50 KCAL/MOL
REMARK 927      BINDING AFFINITY PREDICTED BY RF-SCORE:    0.00 PKD
ROOT
HETATM    1  C   UNL     1     -11.519  16.381  64.335  1.00  0.00    -0.000 C  
HETATM    2  C   UNL     1     -12.132  15.023  64.556  1.00  0.00    -0.363 C  
HETATM    3  O   UNL     1     -13.271  14.811  64.134  1.00  0.00     0.009 OA 
ENDROOT
BRANCH   2   4
HETATM    4  C   UNL     1     -11.323  13.930  65.217  1.00  0.00    -0.316 C  
HETATM    5  C   UNL     1     -11.327  12.669  64.738  1.00  0.00    -0.350 C  
HETATM    6  C   UNL     1     -12.176  12.128  63.603  1.00  0.00    -0.663 C  
HETATM    7  C   UNL     1     -10.404  11.695  65.357  1.00  0.00    -0.313 A  
HETATM    8  C   UNL     1     -10.372  10.368  65.006  1.00  0.00    -0.179 A  
HETATM    9  N   UNL     1      -9.515   9.485  65.522  1.00  0.00    -0.255 NA 
HETATM   10  C   UNL     1      -8.609   9.894  66.414  1.00  0.00    -0.128 A  
HETATM   11  N   UNL     1      -8.572  11.163  66.845  1.00  0.00    -0.143 NA 
HETATM   12  O   UNL     1     -10.800  15.235  67.111  1.00  0.00    -0.311 OA 
HETATM   13  C   UNL     1     -10.517  14.241  66.445  1.00  0.00    -0.282 C  
HETATM   14  C   UNL     1      -9.465  12.047  66.317  1.00  0.00    -0.229 A  
HETATM   15  N   UNL     1      -9.471  13.391  66.793  1.00  0.00    -0.255 N  
BRANCH  10  16
HETATM   16  N   UNL     1      -7.661   8.984  66.874  1.00  0.00    -0.093 NA 
HETATM   17  H   UNL     1      -6.900   8.761  66.232  1.00  0.00     0.000 HD 
BRANCH  16  18
HETATM   18  C   UNL     1      -7.635   8.341  68.116  1.00  0.00    -0.098 A  
HETATM   19  C   UNL     1      -6.524   6.932  69.595  1.00  0.00    -0.044 A  
HETATM   20  C   UNL     1      -8.732   8.307  68.968  1.00  0.00    -0.143 A  
HETATM   21  C   UNL     1      -8.737   7.479  70.087  1.00  0.00    -0.142 A  
HETATM   22  N   UNL     1      -6.501   7.700  68.461  1.00  0.00    -0.047 NA 
HETATM   23  C   UNL     1      -7.626   6.717  70.426  1.00  0.00    -0.096 A  
BRANCH  23  24
HETATM   24  N   UNL     1      -7.670   5.853  71.496  1.00  0.00    -0.099 NA 
HETATM   25  C   UNL     1      -6.437   5.434  72.195  1.00  0.00    -0.055 C  
HETATM   26  C   UNL     1      -6.465   5.906  73.667  1.00  0.00    -0.073 C  
HETATM   27  N   UNL     1      -7.665   5.461  74.398  1.00  0.00    -0.095 NA 
HETATM   28  C   UNL     1      -8.872   5.906  73.672  1.00  0.00    -0.124 C  
HETATM   29  H   UNL     1      -7.662   5.769  75.370  1.00  0.00     0.000 HD 
HETATM   30  C   UNL     1      -8.906   5.466  72.191  1.00  0.00    -0.130 C  
ENDBRANCH  23  24
ENDBRANCH  16  18
ENDBRANCH  10  16
BRANCH  15  31
HETATM   31  C   UNL     1      -8.578  13.727  67.914  1.00  0.00    -0.183 C  
HETATM   32  C   UNL     1      -7.233  14.383  67.549  1.00  0.00    -0.202 C  
HETATM   33  C   UNL     1      -9.222  14.681  68.930  1.00  0.00    -0.151 C  
HETATM   34  C   UNL     1      -6.810  15.065  68.841  1.00  0.00    -0.103 C  
HETATM   35  C   UNL     1      -8.107  15.591  69.440  1.00  0.00    -0.241 C  
ENDBRANCH  15  31
ENDBRANCH   2   4
TORSDOF 5
ENDMDL
MODEL      125
REMARK 921   NORMALIZED FREE ENERGY PREDICTED BY IDOCK:   -3.68 KCAL/MOL
REMARK 922        TOTAL FREE ENERGY PREDICTED BY IDOCK:   -5.34 KCAL/MOL
REMARK 923 INTER-LIGAND FREE ENERGY PREDICTED BY IDOCK:   -5.79 KCAL/MOL
REMARK 924 INTRA-LIGAND FREE ENERGY PREDICTED BY IDOCK:    0.45 KCAL/MOL
REMARK 927      BINDING AFFINITY PREDICTED BY RF-SCORE:    0.00 PKD
ROOT
HETATM    1  C   UNL     1     -10.760  18.825  67.128  1.00  0.00    -0.469 C  
HETATM    2  C   UNL     1     -10.122  18.302  68.388  1.00  0.00    -0.391 C  
HETATM    3  O   UNL     1      -9.854  19.098  69.291  1.00  0.00    -0.343 OA 
ENDROOT
BRANCH   2   4
HETATM    4  C   UNL     1      -9.890  16.817  68.555  1.00  0.00    -0.257 C  
HETATM    5  C   UNL     1     -10.923  15.952  68.626  1.00  0.00    -0.320 C  
HETATM    6  C   UNL     1     -12.399  16.296  68.669  1.00  0.00     0.889 C  
HETATM    7  C   UNL     1     -10.610  14.507  68.649  1.00  0.00    -0.255 A  
HETATM    8  C   UNL     1     -11.569  13.537  68.796  1.00  0.00    -0.325 A  
HETATM    9  N   UNL     1     -11.310  12.228  68.773  1.00  0.00    -0.265 NA 
HETATM   10  C   UNL     1     -10.057  11.811  68.574  1.00  0.00    -0.207 A  
HETATM   11  N   UNL     1      -9.041  12.677  68.447  1.00  0.00    -0.168 NA 
HETATM   12  O   UNL     1      -7.587  17.058  69.000  1.00  0.00    -0.239 OA 
HETATM   13  C   UNL     1      -8.489  16.291  68.669  1.00  0.00    -0.221 C  
HETATM   14  C   UNL     1      -9.324  14.010  68.486  1.00  0.00    -0.182 A  
HETATM   15  N   UNL     1      -8.254  14.947  68.396  1.00  0.00    -0.144 N  
BRANCH  10  16
HETATM   16  N   UNL     1      -9.815  10.445  68.459  1.00  0.00    -0.161 NA 
HETATM   17  H   UNL     1      -9.486  10.119  67.551  1.00  0.00     0.000 HD 
BRANCH  16  18
HETATM   18  C   UNL     1      -9.971   9.469  69.450  1.00  0.00    -0.191 A  
HETATM   19  C   UNL     1     -10.941   8.828  71.464  1.00  0.00    -0.307 A  
HETATM   20  C   UNL     1      -9.191   8.321  69.505  1.00  0.00    -0.158 A  
HETATM   21  C   UNL     1      -9.228   7.489  70.620  1.00  0.00    -0.159 A  
HETATM   22  N   UNL     1     -10.896   9.694  70.403  1.00  0.00    -0.271 NA 
HETATM   23  C   UNL     1     -10.093   7.738  71.678  1.00  0.00    -0.185 A  
BRANCH  23  24
HETATM   24  N   UNL     1     -10.070   6.946  72.802  1.00  0.00    -0.170 NA 
HETATM   25  C   UNL     1     -10.616   5.572  72.783  1.00  0.00    -0.225 C  
HETATM   26  C   UNL     1      -9.499   4.544  73.076  1.00  0.00    -0.129 C  
HETATM   27  N   UNL     1      -8.779   4.810  74.334  1.00  0.00    -0.112 NA 
HETATM   28  C   UNL     1      -8.244   6.187  74.308  1.00  0.00    -0.112 C  
HETATM   29  H   UNL     1      -8.054   4.117  74.518  1.00  0.00     0.000 HD 
HETATM   30  C   UNL     1      -9.312   7.266  74.020  1.00  0.00    -0.257 C  
ENDBRANCH  23  24
ENDBRANCH  16  18
ENDBRANCH  10  16
BRANCH  15  31
HETATM   31  C   UNL     1      -6.879  14.420  68.373  1.00  0.00    -0.106 C  
HETATM   32  C   UNL     1      -6.316  13.907  69.712  1.00  0.00    -0.125 C  
HETATM   33  C   UNL     1      -6.699  13.251  67.394  1.00  0.00    -0.086 C  
HETATM   34  C   UNL     1      -5.180  12.989  69.289  1.00  0.00    -0.074 C  
HETATM   35  C   UNL     1      -5.690  12.300  68.031  1.00  0.00    -0.064 C  
ENDBRANCH  15  31
ENDBRANCH   2   4
TORSDOF 5
ENDMDL
MODEL      126
REMARK 921   NORMALIZED FREE ENERGY PREDICTED BY IDOCK:   -3.67 KCAL/MOL
REMARK 922        TOTAL FREE ENERGY PREDICTED BY IDOCK:   -5.34 KCAL/MOL
REMARK 923 INTER-LIGAND FREE ENERGY PREDICTED BY IDOCK:   -4.91 KCAL/MOL
REMARK 924 INTRA-LIGAND FREE ENERGY PREDICTED BY IDOCK:   -0.43 KCAL/MOL
REMARK 927      BINDING AFFINITY PREDICTED BY RF-SCORE:    0.00 PKD
ROOT
HETATM    1  C   UNL     1      -7.999   1.826  67.685  1.00  0.00    -0.060 C  
HETATM    2  C   UNL     1      -8.765   3.016  67.166  1.00  0.00    -0.125 C  
HETATM    3  O   UNL     1      -9.758   2.820  66.463  1.00  0.00     0.104 OA 
ENDROOT
BRANCH   2   4
HETATM    4  C   UNL     1      -8.352   4.412  67.573  1.00  0.00    -0.099 C  
HETATM    5  C   UNL     1      -7.366   5.066  66.925  1.00  0.00    -0.086 C  
HETATM    6  C   UNL     1      -6.473   4.516  65.829  1.00  0.00    -0.040 C  
HETATM    7  C   UNL     1      -7.118   6.476  67.293  1.00  0.00    -0.077 A  
HETATM    8  C   UNL     1      -6.096   7.220  66.759  1.00  0.00    -0.042 A  
HETATM    9  N   UNL     1      -5.885   8.506  67.046  1.00  0.00    -0.042 NA 
HETATM   10  C   UNL     1      -6.717   9.137  67.878  1.00  0.00    -0.068 A  
HETATM   11  N   UNL     1      -7.732   8.495  68.475  1.00  0.00    -0.102 NA 
HETATM   12  O   UNL     1      -9.624   4.389  69.559  1.00  0.00    -0.169 OA 
HETATM   13  C   UNL     1      -9.031   5.081  68.733  1.00  0.00    -0.102 C  
HETATM   14  C   UNL     1      -7.922   7.179  68.181  1.00  0.00    -0.119 A  
HETATM   15  N   UNL     1      -8.968   6.467  68.837  1.00  0.00    -0.124 N  
BRANCH  10  16
HETATM   16  N   UNL     1      -6.543  10.501  68.096  1.00  0.00    -0.063 NA 
HETATM   17  H   UNL     1      -5.580  10.825  68.185  1.00  0.00     0.000 HD 
BRANCH  16  18
HETATM   18  C   UNL     1      -7.540  11.477  68.205  1.00  0.00    -0.115 A  
HETATM   19  C   UNL     1      -9.672  12.205  67.631  1.00  0.00    -0.188 A  
HETATM   20  C   UNL     1      -7.318  12.715  68.796  1.00  0.00    -0.066 A  
HETATM   21  C   UNL     1      -8.263  13.731  68.691  1.00  0.00    -0.077 A  
HETATM   22  N   UNL     1      -8.746  11.197  67.674  1.00  0.00    -0.128 NA 
HETATM   23  C   UNL     1      -9.482  13.521  68.058  1.00  0.00    -0.220 A  
BRANCH  23  24
HETATM   24  N   UNL     1     -10.378  14.554  67.904  1.00  0.00    -0.229 NA 
HETATM   25  C   UNL     1     -10.797  15.384  69.053  1.00  0.00    -0.244 C  
HETATM   26  C   UNL     1     -10.370  16.854  68.840  1.00  0.00    -0.333 C  
HETATM   27  N   UNL     1     -10.857  17.423  67.570  1.00  0.00    -0.269 NA 
HETATM   28  C   UNL     1     -10.410  16.570  66.450  1.00  0.00    -0.311 C  
HETATM   29  H   UNL     1     -10.577  18.397  67.451  1.00  0.00     0.000 HD 
HETATM   30  C   UNL     1     -10.806  15.084  66.602  1.00  0.00    -0.318 C  
ENDBRANCH  23  24
ENDBRANCH  16  18
ENDBRANCH  10  16
BRANCH  15  31
HETATM   31  C   UNL     1      -9.725   7.170  69.887  1.00  0.00    -0.170 C  
HETATM   32  C   UNL     1     -11.232   6.862  69.972  1.00  0.00    -0.347 C  
HETATM   33  C   UNL     1      -9.185   6.904  71.298  1.00  0.00    -0.157 C  
HETATM   34  C   UNL     1     -11.597   7.279  71.389  1.00  0.00    -0.305 C  
HETATM   35  C   UNL     1     -10.394   6.878  72.230  1.00  0.00    -0.219 C  
ENDBRANCH  15  31
ENDBRANCH   2   4
TORSDOF 5
ENDMDL
MODEL      127
REMARK 921   NORMALIZED FREE ENERGY PREDICTED BY IDOCK:   -3.45 KCAL/MOL
REMARK 922        TOTAL FREE ENERGY PREDICTED BY IDOCK:   -5.05 KCAL/MOL
REMARK 923 INTER-LIGAND FREE ENERGY PREDICTED BY IDOCK:   -4.73 KCAL/MOL
REMARK 924 INTRA-LIGAND FREE ENERGY PREDICTED BY IDOCK:   -0.32 KCAL/MOL
REMARK 927      BINDING AFFINITY PREDICTED BY RF-SCORE:    0.00 PKD
ROOT
HETATM    1  C   UNL     1     -12.552  14.206  71.385  1.00  0.00    -0.445 C  
HETATM    2  C   UNL     1     -13.086  12.798  71.407  1.00  0.00    -0.227 C  
HETATM    3  O   UNL     1     -14.140  12.572  72.007  1.00  0.00     0.033 OA 
ENDROOT
BRANCH   2   4
HETATM    4  C   UNL     1     -12.371  11.709  70.640  1.00  0.00    -0.437 C  
HETATM    5  C   UNL     1     -12.130  11.828  69.318  1.00  0.00    -0.292 C  
HETATM    6  C   UNL     1     -12.604  12.940  68.401  1.00  0.00     0.830 C  
HETATM    7  C   UNL     1     -11.305  10.785  68.672  1.00  0.00    -0.356 A  
HETATM    8  C   UNL     1     -11.056  10.758  67.323  1.00  0.00    -0.270 A  
HETATM    9  N   UNL     1     -10.277   9.851  66.730  1.00  0.00    -0.233 NA 
HETATM   10  C   UNL     1      -9.674   8.920  67.473  1.00  0.00    -0.170 A  
HETATM   11  N   UNL     1      -9.872   8.841  68.797  1.00  0.00    -0.167 NA 
HETATM   12  O   UNL     1     -12.478  10.159  72.414  1.00  0.00    -0.044 OA 
HETATM   13  C   UNL     1     -11.939  10.459  71.350  1.00  0.00    -0.285 C  
HETATM   14  C   UNL     1     -10.681   9.768  69.381  1.00  0.00    -0.228 A  
HETATM   15  N   UNL     1     -10.940   9.676  70.780  1.00  0.00    -0.301 N  
BRANCH  10  16
HETATM   16  N   UNL     1      -8.790   8.037  66.856  1.00  0.00    -0.128 NA 
HETATM   17  H   UNL     1      -8.378   8.351  65.977  1.00  0.00     0.000 HD 
BRANCH  16  18
HETATM   18  C   UNL     1      -8.405   6.769  67.306  1.00  0.00    -0.121 A  
HETATM   19  C   UNL     1      -9.014   4.596  67.866  1.00  0.00    -0.114 A  
HETATM   20  C   UNL     1      -7.138   6.503  67.810  1.00  0.00    -0.088 A  
HETATM   21  C   UNL     1      -6.866   5.295  68.445  1.00  0.00    -0.056 A  
HETATM   22  N   UNL     1      -9.331   5.791  67.276  1.00  0.00    -0.112 NA 
HETATM   23  C   UNL     1      -7.824   4.293  68.532  1.00  0.00    -0.074 A  
BRANCH  23  24
HETATM   24  N   UNL     1      -7.561   3.131  69.220  1.00  0.00    -0.048 NA 
HETATM   25  C   UNL     1      -6.234   2.877  69.818  1.00  0.00    -0.028 C  
HETATM   26  C   UNL     1      -6.348   2.756  71.355  1.00  0.00    -0.018 C  
HETATM   27  N   UNL     1      -7.326   1.741  71.787  1.00  0.00    -0.035 NA 
HETATM   28  C   UNL     1      -8.638   2.037  71.176  1.00  0.00    -0.058 C  
HETATM   29  H   UNL     1      -7.381   1.665  72.803  1.00  0.00     0.000 HD 
HETATM   30  C   UNL     1      -8.593   2.171  69.637  1.00  0.00    -0.056 C  
ENDBRANCH  23  24
ENDBRANCH  16  18
ENDBRANCH  10  16
BRANCH  15  31
HETATM   31  C   UNL     1     -10.400   8.513  71.504  1.00  0.00    -0.250 C  
HETATM   32  C   UNL     1      -9.397   8.812  72.635  1.00  0.00     0.019 C  
HETATM   33  C   UNL     1     -11.490   7.653  72.158  1.00  0.00    -0.345 C  
HETATM   34  C   UNL     1      -9.443   7.554  73.489  1.00  0.00    -0.326 C  
HETATM   35  C   UNL     1     -10.904   7.128  73.467  1.00  0.00    -0.296 C  
ENDBRANCH  15  31
ENDBRANCH   2   4
TORSDOF 5
ENDMDL
MODEL      128
REMARK 921   NORMALIZED FREE ENERGY PREDICTED BY IDOCK:   -3.25 KCAL/MOL
REMARK 922        TOTAL FREE ENERGY PREDICTED BY IDOCK:   -4.79 KCAL/MOL
REMARK 923 INTER-LIGAND FREE ENERGY PREDICTED BY IDOCK:   -5.80 KCAL/MOL
REMARK 924 INTRA-LIGAND FREE ENERGY PREDICTED BY IDOCK:    1.02 KCAL/MOL
REMARK 927      BINDING AFFINITY PREDICTED BY RF-SCORE:    0.00 PKD
ROOT
HETATM    1  C   UNL     1     -10.520  19.456  67.090  1.00  0.00    -0.577 C  
HETATM    2  C   UNL     1      -9.192  18.864  66.693  1.00  0.00    -0.330 C  
HETATM    3  O   UNL     1      -8.368  19.584  66.125  1.00  0.00    -0.334 OA 
ENDROOT
BRANCH   2   4
HETATM    4  C   UNL     1      -8.866  17.434  67.059  1.00  0.00    -0.248 C  
HETATM    5  C   UNL     1      -9.468  16.398  66.439  1.00  0.00    -0.320 C  
HETATM    6  C   UNL     1     -10.589  16.472  65.419  1.00  0.00    -0.293 C  
HETATM    7  C   UNL     1      -8.993  15.035  66.758  1.00  0.00    -0.293 A  
HETATM    8  C   UNL     1      -9.577  13.902  66.249  1.00  0.00    -0.256 A  
HETATM    9  N   UNL     1      -9.134  12.667  66.490  1.00  0.00    -0.201 NA 
HETATM   10  C   UNL     1      -8.047  12.496  67.246  1.00  0.00    -0.179 A  
HETATM   11  N   UNL     1      -7.417  13.535  67.814  1.00  0.00    -0.149 NA 
HETATM   12  O   UNL     1      -7.622  18.033  68.971  1.00  0.00    -0.239 OA 
HETATM   13  C   UNL     1      -7.873  17.153  68.150  1.00  0.00    -0.206 C  
HETATM   14  C   UNL     1      -7.893  14.787  67.568  1.00  0.00    -0.188 A  
HETATM   15  N   UNL     1      -7.266  15.902  68.196  1.00  0.00    -0.124 N  
BRANCH  10  16
HETATM   16  N   UNL     1      -7.540  11.210  67.413  1.00  0.00    -0.108 NA 
HETATM   17  H   UNL     1      -6.942  10.859  66.665  1.00  0.00     0.000 HD 
BRANCH  16  18
HETATM   18  C   UNL     1      -7.758  10.345  68.491  1.00  0.00    -0.101 A  
HETATM   19  C   UNL     1      -7.155   9.647  70.625  1.00  0.00    -0.109 A  
HETATM   20  C   UNL     1      -8.610   9.249  68.415  1.00  0.00    -0.124 A  
HETATM   21  C   UNL     1      -8.632   8.296  69.428  1.00  0.00    -0.134 A  
HETATM   22  N   UNL     1      -7.073  10.581  69.626  1.00  0.00    -0.127 NA 
HETATM   23  C   UNL     1      -7.862   8.443  70.575  1.00  0.00    -0.089 A  
BRANCH  23  24
HETATM   24  N   UNL     1      -7.844   7.459  71.537  1.00  0.00    -0.086 NA 
HETATM   25  C   UNL     1      -9.077   7.056  72.245  1.00  0.00    -0.133 C  
HETATM   26  C   UNL     1      -9.407   5.575  71.951  1.00  0.00    -0.144 C  
HETATM   27  N   UNL     1      -8.295   4.659  72.262  1.00  0.00    -0.113 NA 
HETATM   28  C   UNL     1      -7.087   5.091  71.530  1.00  0.00    -0.054 C  
HETATM   29  H   UNL     1      -8.533   3.685  72.075  1.00  0.00     0.000 HD 
HETATM   30  C   UNL     1      -6.702   6.567  71.781  1.00  0.00    -0.063 C  
ENDBRANCH  23  24
ENDBRANCH  16  18
ENDBRANCH  10  16
BRANCH  15  31
HETATM   31  C   UNL     1      -6.195  15.629  69.170  1.00  0.00    -0.119 C  
HETATM   32  C   UNL     1      -5.878  16.751  70.177  1.00  0.00    -0.178 C  
HETATM   33  C   UNL     1      -6.469  14.389  70.032  1.00  0.00    -0.146 C  
HETATM   34  C   UNL     1      -5.175  16.020  71.311  1.00  0.00    -0.045 C  
HETATM   35  C   UNL     1      -5.902  14.687  71.418  1.00  0.00     0.003 C  
ENDBRANCH  15  31
ENDBRANCH   2   4
TORSDOF 5
ENDMDL
MODEL      129
REMARK 921   NORMALIZED FREE ENERGY PREDICTED BY IDOCK:   -2.98 KCAL/MOL
REMARK 922        TOTAL FREE ENERGY PREDICTED BY IDOCK:   -4.44 KCAL/MOL
REMARK 923 INTER-LIGAND FREE ENERGY PREDICTED BY IDOCK:   -5.67 KCAL/MOL
REMARK 924 INTRA-LIGAND FREE ENERGY PREDICTED BY IDOCK:    1.22 KCAL/MOL
REMARK 927      BINDING AFFINITY PREDICTED BY RF-SCORE:    0.00 PKD
ROOT
HETATM    1  C   UNL     1     -10.520  19.456  67.090  1.00  0.00    -0.577 C  
HETATM    2  C   UNL     1      -9.192  18.864  66.693  1.00  0.00    -0.330 C  
HETATM    3  O   UNL     1      -8.368  19.584  66.125  1.00  0.00    -0.334 OA 
ENDROOT
BRANCH   2   4
HETATM    4  C   UNL     1      -8.866  17.434  67.059  1.00  0.00    -0.248 C  
HETATM    5  C   UNL     1      -9.468  16.398  66.439  1.00  0.00    -0.320 C  
HETATM    6  C   UNL     1     -10.589  16.472  65.419  1.00  0.00    -0.293 C  
HETATM    7  C   UNL     1      -8.993  15.035  66.758  1.00  0.00    -0.293 A  
HETATM    8  C   UNL     1      -9.577  13.902  66.249  1.00  0.00    -0.256 A  
HETATM    9  N   UNL     1      -9.134  12.667  66.490  1.00  0.00    -0.201 NA 
HETATM   10  C   UNL     1      -8.047  12.496  67.246  1.00  0.00    -0.179 A  
HETATM   11  N   UNL     1      -7.417  13.535  67.814  1.00  0.00    -0.149 NA 
HETATM   12  O   UNL     1      -7.622  18.033  68.971  1.00  0.00    -0.239 OA 
HETATM   13  C   UNL     1      -7.873  17.153  68.150  1.00  0.00    -0.206 C  
HETATM   14  C   UNL     1      -7.893  14.787  67.568  1.00  0.00    -0.188 A  
HETATM   15  N   UNL     1      -7.266  15.902  68.196  1.00  0.00    -0.124 N  
BRANCH  10  16
HETATM   16  N   UNL     1      -7.540  11.210  67.413  1.00  0.00    -0.108 NA 
HETATM   17  H   UNL     1      -6.959  11.056  68.237  1.00  0.00     0.000 HD 
BRANCH  16  18
HETATM   18  C   UNL     1      -7.737  10.105  66.576  1.00  0.00    -0.108 A  
HETATM   19  C   UNL     1      -9.059   8.293  65.966  1.00  0.00    -0.176 A  
HETATM   20  C   UNL     1      -6.755   9.631  65.714  1.00  0.00    -0.089 A  
HETATM   21  C   UNL     1      -6.911   8.409  65.066  1.00  0.00    -0.067 A  
HETATM   22  N   UNL     1      -8.920   9.468  66.656  1.00  0.00    -0.143 NA 
HETATM   23  C   UNL     1      -8.074   7.663  65.201  1.00  0.00    -0.134 A  
BRANCH  23  24
HETATM   24  N   UNL     1      -8.186   6.427  64.607  1.00  0.00    -0.108 NA 
HETATM   25  C   UNL     1      -8.084   6.268  63.141  1.00  0.00    -0.060 C  
HETATM   26  C   UNL     1      -6.867   5.387  62.777  1.00  0.00    -0.033 C  
HETATM   27  N   UNL     1      -6.875   4.077  63.452  1.00  0.00    -0.042 NA 
HETATM   28  C   UNL     1      -6.968   4.281  64.912  1.00  0.00    -0.054 C  
HETATM   29  H   UNL     1      -6.072   3.504  63.191  1.00  0.00     0.000 HD 
HETATM   30  C   UNL     1      -8.168   5.155  65.343  1.00  0.00    -0.124 C  
ENDBRANCH  23  24
ENDBRANCH  16  18
ENDBRANCH  10  16
BRANCH  15  31
HETATM   31  C   UNL     1      -6.195  15.629  69.170  1.00  0.00    -0.119 C  
HETATM   32  C   UNL     1      -5.878  16.751  70.177  1.00  0.00    -0.178 C  
HETATM   33  C   UNL     1      -6.469  14.389  70.032  1.00  0.00    -0.146 C  
HETATM   34  C   UNL     1      -5.175  16.020  71.311  1.00  0.00    -0.045 C  
HETATM   35  C   UNL     1      -5.902  14.687  71.418  1.00  0.00     0.003 C  
ENDBRANCH  15  31
ENDBRANCH   2   4
TORSDOF 5
ENDMDL
MODEL      130
REMARK 921   NORMALIZED FREE ENERGY PREDICTED BY IDOCK:   -2.90 KCAL/MOL
REMARK 922        TOTAL FREE ENERGY PREDICTED BY IDOCK:   -4.33 KCAL/MOL
REMARK 923 INTER-LIGAND FREE ENERGY PREDICTED BY IDOCK:   -4.23 KCAL/MOL
REMARK 924 INTRA-LIGAND FREE ENERGY PREDICTED BY IDOCK:   -0.11 KCAL/MOL
REMARK 927      BINDING AFFINITY PREDICTED BY RF-SCORE:    0.00 PKD
ROOT
HETATM    1  C   UNL     1     -10.451  16.913  67.868  1.00  0.00    -0.344 C  
HETATM    2  C   UNL     1     -10.666  15.545  68.461  1.00  0.00    -0.259 C  
HETATM    3  O   UNL     1     -11.659  15.356  69.168  1.00  0.00    -0.298 OA 
ENDROOT
BRANCH   2   4
HETATM    4  C   UNL     1      -9.715  14.420  68.124  1.00  0.00    -0.223 C  
HETATM    5  C   UNL     1      -8.498  14.337  68.701  1.00  0.00    -0.142 C  
HETATM    6  C   UNL     1      -7.859  15.349  69.632  1.00  0.00    -0.149 C  
HETATM    7  C   UNL     1      -7.686  13.134  68.422  1.00  0.00    -0.138 A  
HETATM    8  C   UNL     1      -6.405  12.972  68.888  1.00  0.00    -0.093 A  
HETATM    9  N   UNL     1      -5.675  11.874  68.684  1.00  0.00    -0.052 NA 
HETATM   10  C   UNL     1      -6.205  10.849  68.012  1.00  0.00    -0.053 A  
HETATM   11  N   UNL     1      -7.438  10.915  67.490  1.00  0.00    -0.095 NA 
HETATM   12  O   UNL     1     -11.009  13.648  66.310  1.00  0.00    -0.297 OA 
HETATM   13  C   UNL     1     -10.115  13.386  67.112  1.00  0.00    -0.240 C  
HETATM   14  C   UNL     1      -8.163  12.050  67.697  1.00  0.00    -0.155 A  
HETATM   15  N   UNL     1      -9.460  12.158  67.115  1.00  0.00    -0.186 N  
BRANCH  10  16
HETATM   16  N   UNL     1      -5.467   9.674  67.888  1.00  0.00    -0.040 NA 
HETATM   17  H   UNL     1      -4.535   9.767  67.486  1.00  0.00     0.000 HD 
BRANCH  16  18
HETATM   18  C   UNL     1      -5.863   8.382  68.251  1.00  0.00    -0.042 A  
HETATM   19  C   UNL     1      -7.276   7.018  69.495  1.00  0.00    -0.080 A  
HETATM   20  C   UNL     1      -5.135   7.249  67.907  1.00  0.00    -0.020 A  
HETATM   21  C   UNL     1      -5.440   6.012  68.468  1.00  0.00    -0.008 A  
HETATM   22  N   UNL     1      -6.976   8.259  68.999  1.00  0.00    -0.060 NA 
HETATM   23  C   UNL     1      -6.518   5.856  69.330  1.00  0.00    -0.042 A  
BRANCH  23  24
HETATM   24  N   UNL     1      -6.766   4.642  69.928  1.00  0.00    -0.036 NA 
HETATM   25  C   UNL     1      -7.861   4.479  70.907  1.00  0.00    -0.068 C  
HETATM   26  C   UNL     1      -8.908   3.471  70.381  1.00  0.00    -0.082 C  
HETATM   27  N   UNL     1      -8.328   2.167  70.015  1.00  0.00    -0.044 NA 
HETATM   28  C   UNL     1      -7.246   2.374  69.030  1.00  0.00    -0.044 C  
HETATM   29  H   UNL     1      -9.033   1.510  69.682  1.00  0.00     0.000 HD 
HETATM   30  C   UNL     1      -6.163   3.374  69.496  1.00  0.00    -0.028 C  
ENDBRANCH  23  24
ENDBRANCH  16  18
ENDBRANCH  10  16
BRANCH  15  31
HETATM   31  C   UNL     1      -9.906  11.073  66.225  1.00  0.00    -0.215 C  
HETATM   32  C   UNL     1      -8.891  10.583  65.175  1.00  0.00    -0.206 C  
HETATM   33  C   UNL     1     -10.332   9.809  66.985  1.00  0.00    -0.305 C  
HETATM   34  C   UNL     1      -9.402   9.197  64.810  1.00  0.00     0.021 C  
HETATM   35  C   UNL     1      -9.919   8.621  66.120  1.00  0.00    -0.204 C  
ENDBRANCH  15  31
ENDBRANCH   2   4
TORSDOF 5
ENDMDL
MODEL      131
REMARK 921   NORMALIZED FREE ENERGY PREDICTED BY IDOCK:   -2.80 KCAL/MOL
REMARK 922        TOTAL FREE ENERGY PREDICTED BY IDOCK:   -4.21 KCAL/MOL
REMARK 923 INTER-LIGAND FREE ENERGY PREDICTED BY IDOCK:   -3.84 KCAL/MOL
REMARK 924 INTRA-LIGAND FREE ENERGY PREDICTED BY IDOCK:   -0.37 KCAL/MOL
REMARK 927      BINDING AFFINITY PREDICTED BY RF-SCORE:    0.00 PKD
ROOT
HETATM    1  C   UNL     1      -9.857   7.840  69.989  1.00  0.00    -0.181 C  
HETATM    2  C   UNL     1     -10.069   8.566  68.686  1.00  0.00    -0.190 C  
HETATM    3  O   UNL     1     -10.532   7.942  67.728  1.00  0.00    -0.220 OA 
ENDROOT
BRANCH   2   4
HETATM    4  C   UNL     1      -9.786  10.048  68.595  1.00  0.00    -0.165 C  
HETATM    5  C   UNL     1     -10.787  10.948  68.519  1.00  0.00    -0.262 C  
HETATM    6  C   UNL     1     -12.270  10.654  68.397  1.00  0.00     0.592 C  
HETATM    7  C   UNL     1     -10.430  12.382  68.573  1.00  0.00    -0.244 A  
HETATM    8  C   UNL     1     -11.351  13.388  68.429  1.00  0.00    -0.294 A  
HETATM    9  N   UNL     1     -11.054  14.685  68.520  1.00  0.00    -0.249 NA 
HETATM   10  C   UNL     1      -9.799  15.053  68.791  1.00  0.00    -0.233 A  
HETATM   11  N   UNL     1      -8.817  14.149  68.923  1.00  0.00    -0.051 NA 
HETATM   12  O   UNL     1      -7.473   9.752  68.238  1.00  0.00    -0.079 OA 
HETATM   13  C   UNL     1      -8.365  10.533  68.564  1.00  0.00    -0.129 C  
HETATM   14  C   UNL     1      -9.138  12.830  68.812  1.00  0.00     0.177 A  
HETATM   15  N   UNL     1      -8.102  11.856  68.906  1.00  0.00    -0.007 N  
BRANCH  10  16
HETATM   16  N   UNL     1      -9.520  16.404  68.976  1.00  0.00    -0.258 NA 
HETATM   17  H   UNL     1     -10.016  16.868  69.737  1.00  0.00     0.000 HD 
BRANCH  16  18
HETATM   18  C   UNL     1      -8.636  17.197  68.237  1.00  0.00    -0.241 A  
HETATM   19  C   UNL     1      -8.154  18.301  66.248  1.00  0.00    -0.223 A  
HETATM   20  C   UNL     1      -7.342  17.476  68.660  1.00  0.00    -0.256 A  
HETATM   21  C   UNL     1      -6.429  18.080  67.801  1.00  0.00    -0.185 A  
HETATM   22  N   UNL     1      -9.065  17.666  67.049  1.00  0.00    -0.244 NA 
HETATM   23  C   UNL     1      -6.797  18.488  66.525  1.00  0.00    -0.202 A  
BRANCH  23  24
HETATM   24  N   UNL     1      -5.867  19.023  65.665  1.00  0.00    -0.166 NA 
HETATM   25  C   UNL     1      -5.190  18.187  64.651  1.00  0.00     0.065 C  
HETATM   26  C   UNL     1      -5.535  18.682  63.227  1.00  0.00     0.269 C  
HETATM   27  N   UNL     1      -5.238  20.110  63.020  1.00  0.00    -0.200 NA 
HETATM   28  C   UNL     1      -5.939  20.909  64.047  1.00  0.00    -0.306 C  
HETATM   29  H   UNL     1      -5.459  20.417  62.073  1.00  0.00     0.000 HD 
HETATM   30  C   UNL     1      -5.636  20.464  65.495  1.00  0.00    -0.182 C  
ENDBRANCH  23  24
ENDBRANCH  16  18
ENDBRANCH  10  16
BRANCH  15  31
HETATM   31  C   UNL     1      -6.714  12.336  69.011  1.00  0.00    -0.105 C  
HETATM   32  C   UNL     1      -6.392  13.668  68.307  1.00  0.00    -0.107 C  
HETATM   33  C   UNL     1      -6.255  12.534  70.463  1.00  0.00     0.230 C  
HETATM   34  C   UNL     1      -5.127  14.141  69.008  1.00  0.00    -0.075 C  
HETATM   35  C   UNL     1      -5.323  13.744  70.464  1.00  0.00    -0.122 C  
ENDBRANCH  15  31
ENDBRANCH   2   4
TORSDOF 5
ENDMDL
MODEL      132
REMARK 921   NORMALIZED FREE ENERGY PREDICTED BY IDOCK:   -2.35 KCAL/MOL
REMARK 922        TOTAL FREE ENERGY PREDICTED BY IDOCK:   -3.62 KCAL/MOL
REMARK 923 INTER-LIGAND FREE ENERGY PREDICTED BY IDOCK:   -4.95 KCAL/MOL
REMARK 924 INTRA-LIGAND FREE ENERGY PREDICTED BY IDOCK:    1.33 KCAL/MOL
REMARK 927      BINDING AFFINITY PREDICTED BY RF-SCORE:    0.00 PKD
ROOT
HETATM    1  C   UNL     1     -10.646  19.471  67.922  1.00  0.00    -0.503 C  
HETATM    2  C   UNL     1      -9.360  18.853  67.437  1.00  0.00    -0.289 C  
HETATM    3  O   UNL     1      -8.554  19.562  66.829  1.00  0.00    -0.289 OA 
ENDROOT
BRANCH   2   4
HETATM    4  C   UNL     1      -9.047  17.411  67.765  1.00  0.00    -0.243 C  
HETATM    5  C   UNL     1      -9.729  16.399  67.189  1.00  0.00    -0.241 C  
HETATM    6  C   UNL     1     -10.928  16.516  66.267  1.00  0.00     0.085 C  
HETATM    7  C   UNL     1      -9.270  15.020  67.457  1.00  0.00    -0.189 A  
HETATM    8  C   UNL     1      -9.928  13.909  66.990  1.00  0.00    -0.258 A  
HETATM    9  N   UNL     1      -9.503  12.659  67.185  1.00  0.00    -0.207 NA 
HETATM   10  C   UNL     1      -8.363  12.450  67.847  1.00  0.00    -0.165 A  
HETATM   11  N   UNL     1      -7.658  13.465  68.368  1.00  0.00    -0.127 NA 
HETATM   12  O   UNL     1      -7.632  17.955  69.571  1.00  0.00     0.103 OA 
HETATM   13  C   UNL     1      -7.976  17.091  68.767  1.00  0.00    -0.248 C  
HETATM   14  C   UNL     1      -8.115  14.733  68.171  1.00  0.00    -0.134 A  
HETATM   15  N   UNL     1      -7.404  15.822  68.754  1.00  0.00    -0.131 N  
BRANCH  10  16
HETATM   16  N   UNL     1      -7.882  11.148  67.961  1.00  0.00    -0.109 NA 
HETATM   17  H   UNL     1      -6.890  11.050  68.173  1.00  0.00     0.000 HD 
BRANCH  16  18
HETATM   18  C   UNL     1      -8.608   9.960  67.818  1.00  0.00    -0.121 A  
HETATM   19  C   UNL     1      -9.957   8.333  68.788  1.00  0.00    -0.183 A  
HETATM   20  C   UNL     1      -8.530   9.163  66.683  1.00  0.00    -0.126 A  
HETATM   21  C   UNL     1      -9.092   7.890  66.669  1.00  0.00    -0.199 A  
HETATM   22  N   UNL     1      -9.377   9.573  68.854  1.00  0.00    -0.146 NA 
HETATM   23  C   UNL     1      -9.806   7.404  67.756  1.00  0.00    -0.152 A  
BRANCH  23  24
HETATM   24  N   UNL     1     -10.299   6.119  67.752  1.00  0.00    -0.172 NA 
HETATM   25  C   UNL     1     -10.324   5.310  66.516  1.00  0.00    -0.285 C  
HETATM   26  C   UNL     1      -9.431   4.059  66.672  1.00  0.00    -0.197 C  
HETATM   27  N   UNL     1      -9.779   3.240  67.847  1.00  0.00    -0.184 NA 
HETATM   28  C   UNL     1      -9.734   4.082  69.060  1.00  0.00    -0.091 C  
HETATM   29  H   UNL     1      -9.189   2.411  67.929  1.00  0.00     0.000 HD 
HETATM   30  C   UNL     1     -10.608   5.353  68.968  1.00  0.00    -0.146 C  
ENDBRANCH  23  24
ENDBRANCH  16  18
ENDBRANCH  10  16
BRANCH  15  31
HETATM   31  C   UNL     1      -6.266  15.509  69.633  1.00  0.00    -0.156 C  
HETATM   32  C   UNL     1      -5.971  16.515  70.762  1.00  0.00     0.436 C  
HETATM   33  C   UNL     1      -6.406  14.152  70.338  1.00  0.00    -0.103 C  
HETATM   34  C   UNL     1      -5.157  15.701  71.757  1.00  0.00    -0.026 C  
HETATM   35  C   UNL     1      -5.785  14.314  71.723  1.00  0.00    -0.149 C  
ENDBRANCH  15  31
ENDBRANCH   2   4
TORSDOF 5
ENDMDL
MODEL      133
REMARK 921   NORMALIZED FREE ENERGY PREDICTED BY IDOCK:   -1.74 KCAL/MOL
REMARK 922        TOTAL FREE ENERGY PREDICTED BY IDOCK:   -2.84 KCAL/MOL
REMARK 923 INTER-LIGAND FREE ENERGY PREDICTED BY IDOCK:   -3.89 KCAL/MOL
REMARK 924 INTRA-LIGAND FREE ENERGY PREDICTED BY IDOCK:    1.06 KCAL/MOL
REMARK 927      BINDING AFFINITY PREDICTED BY RF-SCORE:    0.00 PKD
ROOT
HETATM    1  C   UNL     1      -9.941   5.565  70.764  1.00  0.00    -0.263 C  
HETATM    2  C   UNL     1      -9.365   5.894  69.411  1.00  0.00    -0.130 C  
HETATM    3  O   UNL     1      -9.437   5.051  68.515  1.00  0.00    -0.123 OA 
ENDROOT
BRANCH   2   4
HETATM    4  C   UNL     1      -8.783   7.266  69.155  1.00  0.00    -0.136 C  
HETATM    5  C   UNL     1      -7.648   7.669  69.763  1.00  0.00    -0.093 C  
HETATM    6  C   UNL     1      -6.871   6.922  70.830  1.00  0.00    -0.055 C  
HETATM    7  C   UNL     1      -7.071   8.967  69.354  1.00  0.00    -0.057 A  
HETATM    8  C   UNL     1      -5.966   9.516  69.953  1.00  0.00    -0.036 A  
HETATM    9  N   UNL     1      -5.405  10.664  69.567  1.00  0.00    -0.038 NA 
HETATM   10  C   UNL     1      -5.915  11.324  68.524  1.00  0.00    -0.042 A  
HETATM   11  N   UNL     1      -7.011  10.888  67.885  1.00  0.00    -0.072 NA 
HETATM   12  O   UNL     1     -10.680   8.034  67.983  1.00  0.00    -0.158 OA 
HETATM   13  C   UNL     1      -9.487   8.212  68.226  1.00  0.00    -0.141 C  
HETATM   14  C   UNL     1      -7.577   9.721  68.304  1.00  0.00    -0.081 A  
HETATM   15  N   UNL     1      -8.767   9.263  67.667  1.00  0.00    -0.116 N  
BRANCH  10  16
HETATM   16  N   UNL     1      -5.266  12.470  68.072  1.00  0.00    -0.070 NA 
HETATM   17  H   UNL     1      -4.591  12.340  67.319  1.00  0.00     0.000 HD 
BRANCH  16  18
HETATM   18  C   UNL     1      -5.436  13.779  68.536  1.00  0.00    -0.093 A  
HETATM   19  C   UNL     1      -6.238  15.210  70.184  1.00  0.00    -0.140 A  
HETATM   20  C   UNL     1      -5.172  14.895  67.750  1.00  0.00    -0.029 A  
HETATM   21  C   UNL     1      -5.558  16.165  68.168  1.00  0.00    -0.111 A  
HETATM   22  N   UNL     1      -5.914  13.940  69.785  1.00  0.00    -0.116 NA 
HETATM   23  C   UNL     1      -6.152  16.368  69.407  1.00  0.00    -0.177 A  
BRANCH  23  24
HETATM   24  N   UNL     1      -6.589  17.619  69.778  1.00  0.00    -0.085 NA 
HETATM   25  C   UNL     1      -5.659  18.621  70.340  1.00  0.00    -0.215 C  
HETATM   26  C   UNL     1      -5.576  19.857  69.416  1.00  0.00    -0.235 C  
HETATM   27  N   UNL     1      -6.891  20.458  69.130  1.00  0.00    -0.115 NA 
HETATM   28  C   UNL     1      -7.785  19.428  68.563  1.00  0.00    -0.345 C  
HETATM   29  H   UNL     1      -6.818  21.280  68.530  1.00  0.00     0.000 HD 
HETATM   30  C   UNL     1      -7.912  18.162  69.441  1.00  0.00     0.357 C  
ENDBRANCH  23  24
ENDBRANCH  16  18
ENDBRANCH  10  16
BRANCH  15  31
HETATM   31  C   UNL     1      -9.385  10.136  66.655  1.00  0.00    -0.162 C  
HETATM   32  C   UNL     1     -10.660  10.888  67.082  1.00  0.00    -0.302 C  
HETATM   33  C   UNL     1      -8.435  11.225  66.140  1.00  0.00    -0.135 C  
HETATM   34  C   UNL     1     -10.738  12.040  66.092  1.00  0.00    -0.312 C  
HETATM   35  C   UNL     1      -9.291  12.462  65.877  1.00  0.00    -0.066 C  
ENDBRANCH  15  31
ENDBRANCH   2   4
TORSDOF 5
ENDMDL
MODEL      134
REMARK 921   NORMALIZED FREE ENERGY PREDICTED BY IDOCK:   -1.64 KCAL/MOL
REMARK 922        TOTAL FREE ENERGY PREDICTED BY IDOCK:   -2.71 KCAL/MOL
REMARK 923 INTER-LIGAND FREE ENERGY PREDICTED BY IDOCK:   -5.12 KCAL/MOL
REMARK 924 INTRA-LIGAND FREE ENERGY PREDICTED BY IDOCK:    2.41 KCAL/MOL
REMARK 927      BINDING AFFINITY PREDICTED BY RF-SCORE:    0.00 PKD
ROOT
HETATM    1  C   UNL     1     -11.359  19.880  65.268  1.00  0.00     0.809 C  
HETATM    2  C   UNL     1     -10.359  19.815  66.393  1.00  0.00    -0.508 C  
HETATM    3  O   UNL     1     -10.035  20.862  66.959  1.00  0.00    -0.324 OA 
ENDROOT
BRANCH   2   4
HETATM    4  C   UNL     1      -9.832  18.476  66.855  1.00  0.00    -0.350 C  
HETATM    5  C   UNL     1     -10.092  17.346  66.166  1.00  0.00    -0.309 C  
HETATM    6  C   UNL     1     -10.997  17.204  64.957  1.00  0.00     0.097 C  
HETATM    7  C   UNL     1      -9.426  16.102  66.607  1.00  0.00    -0.269 A  
HETATM    8  C   UNL     1      -9.671  14.880  66.034  1.00  0.00    -0.328 A  
HETATM    9  N   UNL     1      -9.045  13.756  66.388  1.00  0.00    -0.130 NA 
HETATM   10  C   UNL     1      -8.105  13.799  67.336  1.00  0.00    -0.177 A  
HETATM   11  N   UNL     1      -7.809  14.938  67.978  1.00  0.00    -0.119 NA 
HETATM   12  O   UNL     1      -9.106  19.297  68.944  1.00  0.00    -0.368 OA 
HETATM   13  C   UNL     1      -9.022  18.391  68.117  1.00  0.00    -0.309 C  
HETATM   14  C   UNL     1      -8.468  16.073  67.612  1.00  0.00    -0.158 A  
HETATM   15  N   UNL     1      -8.200  17.285  68.312  1.00  0.00    -0.229 N  
BRANCH  10  16
HETATM   16  N   UNL     1      -7.395  12.638  67.631  1.00  0.00    -0.125 NA 
HETATM   17  H   UNL     1      -6.514  12.762  68.129  1.00  0.00     0.000 HD 
BRANCH  16  18
HETATM   18  C   UNL     1      -7.754  11.322  67.320  1.00  0.00    -0.138 A  
HETATM   19  C   UNL     1      -8.332   9.755  65.702  1.00  0.00    -0.134 A  
HETATM   20  C   UNL     1      -8.074  10.381  68.291  1.00  0.00    -0.113 A  
HETATM   21  C   UNL     1      -8.633   9.157  67.936  1.00  0.00    -0.121 A  
HETATM   22  N   UNL     1      -7.823  10.987  66.017  1.00  0.00    -0.122 NA 
HETATM   23  C   UNL     1      -8.823   8.808  66.605  1.00  0.00    -0.131 A  
BRANCH  23  24
HETATM   24  N   UNL     1      -9.437   7.623  66.272  1.00  0.00    -0.151 NA 
HETATM   25  C   UNL     1      -8.781   6.641  65.383  1.00  0.00     0.007 C  
HETATM   26  C   UNL     1      -8.531   5.315  66.136  1.00  0.00    -0.117 C  
HETATM   27  N   UNL     1      -9.752   4.749  66.739  1.00  0.00    -0.171 NA 
HETATM   28  C   UNL     1     -10.370   5.757  67.624  1.00  0.00    -0.217 C  
HETATM   29  H   UNL     1      -9.572   3.868  67.220  1.00  0.00     0.000 HD 
HETATM   30  C   UNL     1     -10.647   7.110  66.931  1.00  0.00    -0.301 C  
ENDBRANCH  23  24
ENDBRANCH  16  18
ENDBRANCH  10  16
BRANCH  15  31
HETATM   31  C   UNL     1      -7.296  17.223  69.473  1.00  0.00     0.192 C  
HETATM   32  C   UNL     1      -6.232  16.109  69.457  1.00  0.00    -0.181 C  
HETATM   33  C   UNL     1      -6.508  18.522  69.691  1.00  0.00    -0.175 C  
HETATM   34  C   UNL     1      -5.183  16.610  70.439  1.00  0.00    -0.213 C  
HETATM   35  C   UNL     1      -5.133  18.115  70.213  1.00  0.00    -0.233 C  
ENDBRANCH  15  31
ENDBRANCH   2   4
TORSDOF 5
ENDMDL
MODEL      135
REMARK 921   NORMALIZED FREE ENERGY PREDICTED BY IDOCK:   -1.57 KCAL/MOL
REMARK 922        TOTAL FREE ENERGY PREDICTED BY IDOCK:   -2.62 KCAL/MOL
REMARK 923 INTER-LIGAND FREE ENERGY PREDICTED BY IDOCK:   -2.18 KCAL/MOL
REMARK 924 INTRA-LIGAND FREE ENERGY PREDICTED BY IDOCK:   -0.44 KCAL/MOL
REMARK 927      BINDING AFFINITY PREDICTED BY RF-SCORE:    0.00 PKD
ROOT
HETATM    1  C   UNL     1     -13.100  13.150  63.454  1.00  0.00     0.920 C  
HETATM    2  C   UNL     1     -11.812  13.624  64.075  1.00  0.00    -0.400 C  
HETATM    3  O   UNL     1     -11.284  14.648  63.636  1.00  0.00     0.702 OA 
ENDROOT
BRANCH   2   4
HETATM    4  C   UNL     1     -11.233  12.889  65.262  1.00  0.00    -0.319 C  
HETATM    5  C   UNL     1     -11.369  13.368  66.516  1.00  0.00    -0.346 C  
HETATM    6  C   UNL     1     -11.977  14.697  66.923  1.00  0.00    -0.294 C  
HETATM    7  C   UNL     1     -10.897  12.521  67.632  1.00  0.00    -0.255 A  
HETATM    8  C   UNL     1     -10.912  12.933  68.941  1.00  0.00    -0.228 A  
HETATM    9  N   UNL     1     -10.532  12.165  69.964  1.00  0.00     1.159 NA 
HETATM   10  C   UNL     1     -10.132  10.913  69.731  1.00  0.00     0.211 A  
HETATM   11  N   UNL     1     -10.054  10.421  68.486  1.00  0.00    -0.164 NA 
HETATM   12  O   UNL     1     -10.004  11.375  63.936  1.00  0.00    -0.259 OA 
HETATM   13  C   UNL     1     -10.471  11.613  65.048  1.00  0.00    -0.285 C  
HETATM   14  C   UNL     1     -10.433  11.225  67.453  1.00  0.00    -0.212 A  
HETATM   15  N   UNL     1     -10.317  10.738  66.119  1.00  0.00    -0.248 N  
BRANCH  10  16
HETATM   16  N   UNL     1      -9.828  10.092  70.814  1.00  0.00    -0.143 NA 
HETATM   17  H   UNL     1     -10.184  10.392  71.722  1.00  0.00     0.000 HD 
BRANCH  16  18
HETATM   18  C   UNL     1      -9.089   8.904  70.798  1.00  0.00    -0.213 A  
HETATM   19  C   UNL     1      -9.040   6.597  71.085  1.00  0.00    -0.152 A  
HETATM   20  C   UNL     1      -7.704   8.881  70.689  1.00  0.00    -0.112 A  
HETATM   21  C   UNL     1      -6.995   7.702  70.895  1.00  0.00    -0.053 A  
HETATM   22  N   UNL     1      -9.767   7.748  70.934  1.00  0.00    -0.168 NA 
HETATM   23  C   UNL     1      -7.647   6.501  71.144  1.00  0.00    -0.090 A  
BRANCH  23  24
HETATM   24  N   UNL     1      -6.931   5.357  71.411  1.00  0.00    -0.063 NA 
HETATM   25  C   UNL     1      -5.798   5.365  72.360  1.00  0.00    -0.026 C  
HETATM   26  C   UNL     1      -6.094   4.439  73.561  1.00  0.00    -0.028 C  
HETATM   27  N   UNL     1      -6.441   3.063  73.163  1.00  0.00    -0.020 NA 
HETATM   28  C   UNL     1      -7.580   3.099  72.224  1.00  0.00    -0.054 C  
HETATM   29  H   UNL     1      -6.621   2.462  73.968  1.00  0.00     0.000 HD 
HETATM   30  C   UNL     1      -7.348   4.010  70.997  1.00  0.00    -0.040 C  
ENDBRANCH  23  24
ENDBRANCH  16  18
ENDBRANCH  10  16
BRANCH  15  31
HETATM   31  C   UNL     1      -9.687   9.421  65.920  1.00  0.00    -0.285 C  
HETATM   32  C   UNL     1      -8.152   9.369  66.033  1.00  0.00    -0.111 C  
HETATM   33  C   UNL     1     -10.194   8.358  66.905  1.00  0.00    -0.383 C  
HETATM   34  C   UNL     1      -7.868   7.900  66.311  1.00  0.00    -0.094 C  
HETATM   35  C   UNL     1      -9.004   7.455  67.221  1.00  0.00    -0.128 C  
ENDBRANCH  15  31
ENDBRANCH   2   4
TORSDOF 5
ENDMDL
MODEL      136
REMARK 921   NORMALIZED FREE ENERGY PREDICTED BY IDOCK:   -1.49 KCAL/MOL
REMARK 922        TOTAL FREE ENERGY PREDICTED BY IDOCK:   -2.52 KCAL/MOL
REMARK 923 INTER-LIGAND FREE ENERGY PREDICTED BY IDOCK:   -4.32 KCAL/MOL
REMARK 924 INTRA-LIGAND FREE ENERGY PREDICTED BY IDOCK:    1.81 KCAL/MOL
REMARK 927      BINDING AFFINITY PREDICTED BY RF-SCORE:    0.00 PKD
ROOT
HETATM    1  C   UNL     1      -6.904   3.701  71.658  1.00  0.00    -0.027 C  
HETATM    2  C   UNL     1      -7.445   3.558  70.259  1.00  0.00    -0.041 C  
HETATM    3  O   UNL     1      -7.744   2.434  69.850  1.00  0.00    -0.043 OA 
ENDROOT
BRANCH   2   4
HETATM    4  C   UNL     1      -7.681   4.789  69.414  1.00  0.00    -0.063 C  
HETATM    5  C   UNL     1      -8.190   5.918  69.950  1.00  0.00    -0.117 C  
HETATM    6  C   UNL     1      -8.696   6.107  71.367  1.00  0.00    -0.135 C  
HETATM    7  C   UNL     1      -8.260   7.118  69.089  1.00  0.00    -0.122 A  
HETATM    8  C   UNL     1      -8.827   8.299  69.497  1.00  0.00    -0.149 A  
HETATM    9  N   UNL     1      -8.858   9.404  68.750  1.00  0.00    -0.131 NA 
HETATM   10  C   UNL     1      -8.291   9.395  67.542  1.00  0.00    -0.122 A  
HETATM   11  N   UNL     1      -7.734   8.285  67.037  1.00  0.00    -0.095 NA 
HETATM   12  O   UNL     1      -7.288   3.670  67.376  1.00  0.00    -0.065 OA 
HETATM   13  C   UNL     1      -7.368   4.756  67.946  1.00  0.00    -0.070 C  
HETATM   14  C   UNL     1      -7.724   7.162  67.809  1.00  0.00    -0.112 A  
HETATM   15  N   UNL     1      -7.177   5.960  67.275  1.00  0.00    -0.074 N  
BRANCH  10  16
HETATM   16  N   UNL     1      -8.247  10.580  66.811  1.00  0.00    -0.123 NA 
HETATM   17  H   UNL     1      -8.149  10.484  65.801  1.00  0.00     0.000 HD 
BRANCH  16  18
HETATM   18  C   UNL     1      -8.323  11.886  67.308  1.00  0.00    -0.169 A  
HETATM   19  C   UNL     1      -9.628  13.602  68.179  1.00  0.00    -0.221 A  
HETATM   20  C   UNL     1      -7.265  12.783  67.229  1.00  0.00    -0.088 A  
HETATM   21  C   UNL     1      -7.450  14.128  67.533  1.00  0.00    -0.192 A  
HETATM   22  N   UNL     1      -9.494  12.281  67.844  1.00  0.00    -0.193 NA 
HETATM   23  C   UNL     1      -8.672  14.604  67.990  1.00  0.00    -0.167 A  
BRANCH  23  24
HETATM   24  N   UNL     1      -8.858  15.947  68.223  1.00  0.00    -0.176 NA 
HETATM   25  C   UNL     1      -8.171  16.969  67.407  1.00  0.00    -0.183 C  
HETATM   26  C   UNL     1      -9.201  17.829  66.640  1.00  0.00    -0.269 C  
HETATM   27  N   UNL     1     -10.213  18.444  67.517  1.00  0.00    -0.355 NA 
HETATM   28  C   UNL     1     -10.881  17.390  68.307  1.00  0.00    -0.256 C  
HETATM   29  H   UNL     1     -10.878  19.018  66.998  1.00  0.00     0.000 HD 
HETATM   30  C   UNL     1      -9.903  16.493  69.100  1.00  0.00    -0.254 C  
ENDBRANCH  23  24
ENDBRANCH  16  18
ENDBRANCH  10  16
BRANCH  15  31
HETATM   31  C   UNL     1      -6.744   5.967  65.867  1.00  0.00    -0.052 C  
HETATM   32  C   UNL     1      -6.406   4.600  65.244  1.00  0.00    -0.035 C  
HETATM   33  C   UNL     1      -7.782   6.588  64.922  1.00  0.00    -0.105 C  
HETATM   34  C   UNL     1      -6.522   4.855  63.748  1.00  0.00    -0.026 C  
HETATM   35  C   UNL     1      -7.700   5.810  63.612  1.00  0.00    -0.094 C  
ENDBRANCH  15  31
ENDBRANCH   2   4
TORSDOF 5
ENDMDL
MODEL      137
REMARK 921   NORMALIZED FREE ENERGY PREDICTED BY IDOCK:   -1.16 KCAL/MOL
REMARK 922        TOTAL FREE ENERGY PREDICTED BY IDOCK:   -2.08 KCAL/MOL
REMARK 923 INTER-LIGAND FREE ENERGY PREDICTED BY IDOCK:   -3.26 KCAL/MOL
REMARK 924 INTRA-LIGAND FREE ENERGY PREDICTED BY IDOCK:    1.17 KCAL/MOL
REMARK 927      BINDING AFFINITY PREDICTED BY RF-SCORE:    0.00 PKD
ROOT
HETATM    1  C   UNL     1      -7.123  20.428  69.349  1.00  0.00     0.177 C  
HETATM    2  C   UNL     1      -6.921  19.085  70.002  1.00  0.00     0.316 C  
HETATM    3  O   UNL     1      -6.619  19.047  71.197  1.00  0.00     0.782 OA 
ENDROOT
BRANCH   2   4
HETATM    4  C   UNL     1      -7.163  17.820  69.211  1.00  0.00    -0.067 C  
HETATM    5  C   UNL     1      -6.393  16.727  69.388  1.00  0.00    -0.222 C  
HETATM    6  C   UNL     1      -5.157  16.614  70.260  1.00  0.00    -0.195 C  
HETATM    7  C   UNL     1      -6.781  15.489  68.679  1.00  0.00    -0.107 A  
HETATM    8  C   UNL     1      -6.035  14.338  68.720  1.00  0.00    -0.085 A  
HETATM    9  N   UNL     1      -6.393  13.200  68.124  1.00  0.00    -0.092 NA 
HETATM   10  C   UNL     1      -7.552  13.142  67.463  1.00  0.00    -0.163 A  
HETATM   11  N   UNL     1      -8.343  14.218  67.339  1.00  0.00    -0.187 NA 
HETATM   12  O   UNL     1      -8.702  18.836  67.740  1.00  0.00    -0.280 OA 
HETATM   13  C   UNL     1      -8.265  17.779  68.192  1.00  0.00    -0.260 C  
HETATM   14  C   UNL     1      -7.953  15.375  67.943  1.00  0.00    -0.135 A  
HETATM   15  N   UNL     1      -8.757  16.542  67.788  1.00  0.00    -0.194 N  
BRANCH  10  16
HETATM   16  N   UNL     1      -7.959  11.924  66.925  1.00  0.00    -0.246 NA 
HETATM   17  H   UNL     1      -8.247  11.935  65.947  1.00  0.00     0.000 HD 
BRANCH  16  18
HETATM   18  C   UNL     1      -8.017  10.686  67.576  1.00  0.00    -0.110 A  
HETATM   19  C   UNL     1      -7.320   9.340  69.339  1.00  0.00    -0.077 A  
HETATM   20  C   UNL     1      -8.630   9.572  67.018  1.00  0.00    -0.131 A  
HETATM   21  C   UNL     1      -8.477   8.314  67.594  1.00  0.00    -0.130 A  
HETATM   22  N   UNL     1      -7.411  10.585  68.775  1.00  0.00    -0.085 NA 
HETATM   23  C   UNL     1      -7.770   8.143  68.777  1.00  0.00    -0.107 A  
BRANCH  23  24
HETATM   24  N   UNL     1      -7.571   6.885  69.299  1.00  0.00    -0.094 NA 
HETATM   25  C   UNL     1      -8.597   5.829  69.168  1.00  0.00    -0.110 C  
HETATM   26  C   UNL     1      -8.048   4.644  68.341  1.00  0.00    -0.083 C  
HETATM   27  N   UNL     1      -6.789   4.096  68.876  1.00  0.00    -0.046 NA 
HETATM   28  C   UNL     1      -5.791   5.179  68.982  1.00  0.00    -0.020 C  
HETATM   29  H   UNL     1      -6.447   3.307  68.326  1.00  0.00     0.000 HD 
HETATM   30  C   UNL     1      -6.279   6.397  69.799  1.00  0.00    -0.034 C  
ENDBRANCH  23  24
ENDBRANCH  16  18
ENDBRANCH  10  16
BRANCH  15  31
HETATM   31  C   UNL     1      -9.920  16.460  66.887  1.00  0.00    -0.271 C  
HETATM   32  C   UNL     1      -9.635  16.038  65.433  1.00  0.00     0.051 C  
HETATM   33  C   UNL     1     -10.995  15.482  67.381  1.00  0.00    -0.306 C  
HETATM   34  C   UNL     1     -10.986  15.545  64.938  1.00  0.00    -0.452 C  
HETATM   35  C   UNL     1     -11.599  14.834  66.137  1.00  0.00    -0.292 C  
ENDBRANCH  15  31
ENDBRANCH   2   4
TORSDOF 5
ENDMDL
MODEL      138
REMARK 921   NORMALIZED FREE ENERGY PREDICTED BY IDOCK:    0.51 KCAL/MOL
REMARK 922        TOTAL FREE ENERGY PREDICTED BY IDOCK:    0.07 KCAL/MOL
REMARK 923 INTER-LIGAND FREE ENERGY PREDICTED BY IDOCK:   -1.75 KCAL/MOL
REMARK 924 INTRA-LIGAND FREE ENERGY PREDICTED BY IDOCK:    1.81 KCAL/MOL
REMARK 927      BINDING AFFINITY PREDICTED BY RF-SCORE:    0.00 PKD
ROOT
HETATM    1  C   UNL     1      -6.285  20.727  70.127  1.00  0.00     0.325 C  
HETATM    2  C   UNL     1      -6.436  19.397  70.818  1.00  0.00     0.296 C  
HETATM    3  O   UNL     1      -6.500  19.374  72.050  1.00  0.00     0.546 OA 
ENDROOT
BRANCH   2   4
HETATM    4  C   UNL     1      -6.582  18.135  70.000  1.00  0.00     0.262 C  
HETATM    5  C   UNL     1      -6.099  16.955  70.441  1.00  0.00     0.226 C  
HETATM    6  C   UNL     1      -5.275  16.718  71.693  1.00  0.00     0.269 C  
HETATM    7  C   UNL     1      -6.404  15.746  69.647  1.00  0.00    -0.178 A  
HETATM    8  C   UNL     1      -5.905  14.505  69.954  1.00  0.00    -0.122 A  
HETATM    9  N   UNL     1      -6.205  13.396  69.275  1.00  0.00    -0.098 NA 
HETATM   10  C   UNL     1      -7.057  13.466  68.250  1.00  0.00    -0.109 A  
HETATM   11  N   UNL     1      -7.580  14.634  67.850  1.00  0.00    -0.127 NA 
HETATM   12  O   UNL     1      -7.338  19.272  68.076  1.00  0.00    -0.249 OA 
HETATM   13  C   UNL     1      -7.253  18.191  68.658  1.00  0.00    -0.281 C  
HETATM   14  C   UNL     1      -7.250  15.758  68.547  1.00  0.00    -0.122 A  
HETATM   15  N   UNL     1      -7.760  17.016  68.113  1.00  0.00    -0.190 N  
BRANCH  10  16
HETATM   16  N   UNL     1      -7.436  12.289  67.609  1.00  0.00    -0.122 NA 
HETATM   17  H   UNL     1      -7.443  12.311  66.590  1.00  0.00     0.000 HD 
BRANCH  16  18
HETATM   18  C   UNL     1      -7.807  11.079  68.208  1.00  0.00    -0.121 A  
HETATM   19  C   UNL     1      -9.396   9.402  68.467  1.00  0.00    -0.138 A  
HETATM   20  C   UNL     1      -7.081  10.497  69.239  1.00  0.00    -0.097 A  
HETATM   21  C   UNL     1      -7.597   9.417  69.949  1.00  0.00    -0.109 A  
HETATM   22  N   UNL     1      -8.941  10.494  67.776  1.00  0.00    -0.132 NA 
HETATM   23  C   UNL     1      -8.815   8.844  69.608  1.00  0.00    -0.142 A  
BRANCH  23  24
HETATM   24  N   UNL     1      -9.344   7.821  70.360  1.00  0.00    -0.160 NA 
HETATM   25  C   UNL     1      -8.475   6.808  70.995  1.00  0.00    -0.132 C  
HETATM   26  C   UNL     1      -8.611   6.868  72.534  1.00  0.00    -0.121 C  
HETATM   27  N   UNL     1     -10.004   6.738  72.999  1.00  0.00    -0.169 NA 
HETATM   28  C   UNL     1     -10.835   7.772  72.349  1.00  0.00    -0.303 C  
HETATM   29  H   UNL     1     -10.075   6.767  74.017  1.00  0.00     0.000 HD 
HETATM   30  C   UNL     1     -10.743   7.765  70.806  1.00  0.00    -0.226 C  
ENDBRANCH  23  24
ENDBRANCH  16  18
ENDBRANCH  10  16
BRANCH  15  31
HETATM   31  C   UNL     1      -8.536  17.048  66.862  1.00  0.00    -0.225 C  
HETATM   32  C   UNL     1      -8.523  15.764  66.011  1.00  0.00     0.082 C  
HETATM   33  C   UNL     1     -10.022  17.361  67.084  1.00  0.00    -0.291 C  
HETATM   34  C   UNL     1      -9.762  15.906  65.139  1.00  0.00     0.278 C  
HETATM   35  C   UNL     1     -10.798  16.554  66.046  1.00  0.00    -0.069 C  
ENDBRANCH  15  31
ENDBRANCH   2   4
TORSDOF 5
ENDMDL
MODEL      139
REMARK 921   NORMALIZED FREE ENERGY PREDICTED BY IDOCK:    1.49 KCAL/MOL
REMARK 922        TOTAL FREE ENERGY PREDICTED BY IDOCK:    1.33 KCAL/MOL
REMARK 923 INTER-LIGAND FREE ENERGY PREDICTED BY IDOCK:    0.52 KCAL/MOL
REMARK 924 INTRA-LIGAND FREE ENERGY PREDICTED BY IDOCK:    0.81 KCAL/MOL
REMARK 927      BINDING AFFINITY PREDICTED BY RF-SCORE:    0.00 PKD
ROOT
HETATM    1  C   UNL     1      -7.633  17.146  65.559  1.00  0.00     1.061 C  
HETATM    2  C   UNL     1      -6.862  16.293  66.532  1.00  0.00     0.224 C  
HETATM    3  O   UNL     1      -5.746  16.670  66.895  1.00  0.00    -0.239 OA 
ENDROOT
BRANCH   2   4
HETATM    4  C   UNL     1      -7.492  15.041  67.098  1.00  0.00    -0.145 C  
HETATM    5  C   UNL     1      -6.787  13.896  67.218  1.00  0.00     0.162 C  
HETATM    6  C   UNL     1      -5.374  13.640  66.730  1.00  0.00     1.866 C  
HETATM    7  C   UNL     1      -7.433  12.760  67.907  1.00  0.00    -0.127 A  
HETATM    8  C   UNL     1      -6.847  11.524  68.023  1.00  0.00    -0.064 A  
HETATM    9  N   UNL     1      -7.396  10.501  68.680  1.00  0.00    -0.086 NA 
HETATM   10  C   UNL     1      -8.570  10.669  69.292  1.00  0.00    -0.085 A  
HETATM   11  N   UNL     1      -9.240  11.828  69.218  1.00  0.00     0.422 NA 
HETATM   12  O   UNL     1      -9.678  15.925  67.063  1.00  0.00    -0.223 OA 
HETATM   13  C   UNL     1      -8.934  15.056  67.515  1.00  0.00    -0.183 C  
HETATM   14  C   UNL     1      -8.670  12.857  68.530  1.00  0.00    -0.038 A  
HETATM   15  N   UNL     1      -9.385  14.084  68.402  1.00  0.00    -0.211 N  
BRANCH  10  16
HETATM   16  N   UNL     1      -9.087   9.624  70.053  1.00  0.00    -0.225 NA 
HETATM   17  H   UNL     1      -9.618   9.888  70.883  1.00  0.00     0.000 HD 
BRANCH  16  18
HETATM   18  C   UNL     1      -8.960   8.252  69.807  1.00  0.00    -0.146 A  
HETATM   19  C   UNL     1      -8.467   6.130  70.620  1.00  0.00    -0.134 A  
HETATM   20  C   UNL     1      -8.995   7.711  68.527  1.00  0.00    -0.129 A  
HETATM   21  C   UNL     1      -8.649   6.381  68.309  1.00  0.00    -0.114 A  
HETATM   22  N   UNL     1      -8.757   7.446  70.867  1.00  0.00    -0.142 NA 
HETATM   23  C   UNL     1      -8.328   5.536  69.363  1.00  0.00    -0.101 A  
BRANCH  23  24
HETATM   24  N   UNL     1      -7.924   4.242  69.126  1.00  0.00    -0.061 NA 
HETATM   25  C   UNL     1      -8.104   3.183  70.141  1.00  0.00    -0.045 C  
HETATM   26  C   UNL     1      -9.050   2.082  69.610  1.00  0.00    -0.105 C  
HETATM   27  N   UNL     1      -8.613   1.512  68.323  1.00  0.00    -0.060 NA 
HETATM   28  C   UNL     1      -8.454   2.600  67.336  1.00  0.00    -0.095 C  
HETATM   29  H   UNL     1      -9.240   0.779  67.993  1.00  0.00     0.000 HD 
HETATM   30  C   UNL     1      -7.518   3.736  67.808  1.00  0.00    -0.067 C  
ENDBRANCH  23  24
ENDBRANCH  16  18
ENDBRANCH  10  16
BRANCH  15  31
HETATM   31  C   UNL     1     -10.757  14.138  68.934  1.00  0.00    -0.256 C  
HETATM   32  C   UNL     1     -10.949  14.890  70.265  1.00  0.00    -0.186 C  
HETATM   33  C   UNL     1     -11.752  14.790  67.964  1.00  0.00    -0.360 C  
HETATM   34  C   UNL     1     -12.433  15.226  70.269  1.00  0.00    -0.405 C  
HETATM   35  C   UNL     1     -12.756  15.558  68.819  1.00  0.00     0.818 C  
ENDBRANCH  15  31
ENDBRANCH   2   4
TORSDOF 5
ENDMDL
MODEL      140
REMARK 921   NORMALIZED FREE ENERGY PREDICTED BY IDOCK:    2.10 KCAL/MOL
REMARK 922        TOTAL FREE ENERGY PREDICTED BY IDOCK:    2.13 KCAL/MOL
REMARK 923 INTER-LIGAND FREE ENERGY PREDICTED BY IDOCK:    0.29 KCAL/MOL
REMARK 924 INTRA-LIGAND FREE ENERGY PREDICTED BY IDOCK:    1.84 KCAL/MOL
REMARK 927      BINDING AFFINITY PREDICTED BY RF-SCORE:    0.00 PKD
ROOT
HETATM    1  C   UNL     1     -12.961  15.275  64.033  1.00  0.00     1.133 C  
HETATM    2  C   UNL     1     -11.961  14.166  64.226  1.00  0.00    -0.435 C  
HETATM    3  O   UNL     1     -11.123  13.962  63.344  1.00  0.00     0.669 OA 
ENDROOT
BRANCH   2   4
HETATM    4  C   UNL     1     -11.951  13.377  65.516  1.00  0.00    -0.433 C  
HETATM    5  C   UNL     1     -11.618  12.070  65.535  1.00  0.00    -0.352 C  
HETATM    6  C   UNL     1     -11.330  11.185  64.337  1.00  0.00     0.055 C  
HETATM    7  C   UNL     1     -11.499  11.409  66.851  1.00  0.00    -0.198 A  
HETATM    8  C   UNL     1     -11.241  10.068  66.994  1.00  0.00     0.266 A  
HETATM    9  N   UNL     1     -11.086   9.464  68.174  1.00  0.00    -0.034 NA 
HETATM   10  C   UNL     1     -11.156  10.186  69.294  1.00  0.00    -0.225 A  
HETATM   11  N   UNL     1     -11.430  11.499  69.267  1.00  0.00    -0.277 NA 
HETATM   12  O   UNL     1     -13.009  15.080  66.759  1.00  0.00     1.109 OA 
HETATM   13  C   UNL     1     -12.342  14.048  66.801  1.00  0.00    -0.332 C  
HETATM   14  C   UNL     1     -11.600  12.095  68.054  1.00  0.00    -0.348 A  
HETATM   15  N   UNL     1     -11.935  13.479  68.004  1.00  0.00    -0.356 N  
BRANCH  10  16
HETATM   16  N   UNL     1     -10.899   9.563  70.513  1.00  0.00    -0.266 NA 
HETATM   17  H   UNL     1     -11.203  10.061  71.349  1.00  0.00     0.000 HD 
BRANCH  16  18
HETATM   18  C   UNL     1     -10.271   8.329  70.718  1.00  0.00    -0.192 A  
HETATM   19  C   UNL     1      -9.761   6.582  72.165  1.00  0.00    -0.151 A  
HETATM   20  C   UNL     1      -9.405   7.762  69.791  1.00  0.00    -0.153 A  
HETATM   21  C   UNL     1      -8.637   6.651  70.123  1.00  0.00    -0.140 A  
HETATM   22  N   UNL     1     -10.499   7.703  71.889  1.00  0.00    -0.211 NA 
HETATM   23  C   UNL     1      -8.761   6.031  71.360  1.00  0.00    -0.132 A  
BRANCH  23  24
HETATM   24  N   UNL     1      -7.947   4.975  71.699  1.00  0.00    -0.110 NA 
HETATM   25  C   UNL     1      -7.232   4.195  70.667  1.00  0.00    -0.041 C  
HETATM   26  C   UNL     1      -5.703   4.327  70.855  1.00  0.00    -0.013 C  
HETATM   27  N   UNL     1      -5.250   3.955  72.207  1.00  0.00     0.000 NA 
HETATM   28  C   UNL     1      -5.982   4.761  73.206  1.00  0.00    -0.021 C  
HETATM   29  H   UNL     1      -4.238   4.035  72.311  1.00  0.00     0.000 HD 
HETATM   30  C   UNL     1      -7.519   4.673  73.072  1.00  0.00    -0.086 C  
ENDBRANCH  23  24
ENDBRANCH  16  18
ENDBRANCH  10  16
BRANCH  15  31
HETATM   31  C   UNL     1     -12.188  14.171  69.279  1.00  0.00    -0.269 C  
HETATM   32  C   UNL     1     -13.611  14.051  69.857  1.00  0.00     1.806 C  
HETATM   33  C   UNL     1     -11.261  13.706  70.410  1.00  0.00     0.369 C  
HETATM   34  C   UNL     1     -13.422  14.376  71.331  1.00  0.00    -0.422 C  
HETATM   35  C   UNL     1     -12.085  13.747  71.695  1.00  0.00     0.082 C  
ENDBRANCH  15  31
ENDBRANCH   2   4
TORSDOF 5
ENDMDL
MODEL      141
REMARK 921   NORMALIZED FREE ENERGY PREDICTED BY IDOCK:    6.46 KCAL/MOL
REMARK 922        TOTAL FREE ENERGY PREDICTED BY IDOCK:    7.76 KCAL/MOL
REMARK 923 INTER-LIGAND FREE ENERGY PREDICTED BY IDOCK:    6.55 KCAL/MOL
REMARK 924 INTRA-LIGAND FREE ENERGY PREDICTED BY IDOCK:    1.21 KCAL/MOL
REMARK 927      BINDING AFFINITY PREDICTED BY RF-SCORE:    0.00 PKD
ROOT
HETATM    1  C   UNL     1      -7.602  19.073  65.794  1.00  0.00    -0.127 C  
HETATM    2  C   UNL     1      -7.038  18.413  67.025  1.00  0.00    -0.194 C  
HETATM    3  O   UNL     1      -6.296  19.067  67.761  1.00  0.00    -0.205 OA 
ENDROOT
BRANCH   2   4
HETATM    4  C   UNL     1      -7.444  16.999  67.374  1.00  0.00    -0.184 C  
HETATM    5  C   UNL     1      -8.371  16.339  66.649  1.00  0.00    -0.315 C  
HETATM    6  C   UNL     1      -9.202  16.894  65.508  1.00  0.00     0.526 C  
HETATM    7  C   UNL     1      -8.610  14.916  66.971  1.00  0.00    -0.265 A  
HETATM    8  C   UNL     1      -9.578  14.163  66.356  1.00  0.00    -0.293 A  
HETATM    9  N   UNL     1      -9.778  12.867  66.601  1.00  0.00    -0.248 NA 
HETATM   10  C   UNL     1      -8.989  12.236  67.474  1.00  0.00    -0.180 A  
HETATM   11  N   UNL     1      -8.030  12.885  68.150  1.00  0.00    -0.144 NA 
HETATM   12  O   UNL     1      -6.307  17.006  69.440  1.00  0.00    -0.215 OA 
HETATM   13  C   UNL     1      -6.829  16.320  68.563  1.00  0.00    -0.137 C  
HETATM   14  C   UNL     1      -7.851  14.212  67.896  1.00  0.00    -0.155 A  
HETATM   15  N   UNL     1      -6.867  14.931  68.635  1.00  0.00    -0.101 N  
BRANCH  10  16
HETATM   16  N   UNL     1      -9.146  10.863  67.652  1.00  0.00    -0.147 NA 
HETATM   17  H   UNL     1      -8.624  10.262  67.015  1.00  0.00     0.000 HD 
BRANCH  16  18
HETATM   18  C   UNL     1      -9.940  10.217  68.606  1.00  0.00    -0.173 A  
HETATM   19  C   UNL     1     -11.906   9.082  69.108  1.00  0.00     1.219 A  
HETATM   20  C   UNL     1      -9.659  10.253  69.967  1.00  0.00     0.008 A  
HETATM   21  C   UNL     1     -10.584   9.787  70.895  1.00  0.00    -0.344 A  
HETATM   22  N   UNL     1     -11.039   9.573  68.168  1.00  0.00    -0.078 NA 
HETATM   23  C   UNL     1     -11.782   9.209  70.494  1.00  0.00    -0.152 A  
BRANCH  23  24
HETATM   24  N   UNL     1     -12.715   8.814  71.424  1.00  0.00    -0.306 NA 
HETATM   25  C   UNL     1     -13.842   7.932  71.054  1.00  0.00     0.057 C  
HETATM   26  C   UNL     1     -13.759   6.596  71.826  1.00  0.00     0.080 C  
HETATM   27  N   UNL     1     -13.683   6.773  73.287  1.00  0.00     1.846 NA 
HETATM   28  C   UNL     1     -12.541   7.651  73.614  1.00  0.00     3.448 C  
HETATM   29  H   UNL     1     -13.641   5.882  73.782  1.00  0.00     0.000 HD 
HETATM   30  C   UNL     1     -12.566   9.007  72.873  1.00  0.00     0.260 C  
ENDBRANCH  23  24
ENDBRANCH  16  18
ENDBRANCH  10  16
BRANCH  15  31
HETATM   31  C   UNL     1      -6.166  14.221  69.718  1.00  0.00    -0.139 C  
HETATM   32  C   UNL     1      -7.001  13.866  70.962  1.00  0.00     1.569 C  
HETATM   33  C   UNL     1      -5.548  12.892  69.263  1.00  0.00    -0.076 C  
HETATM   34  C   UNL     1      -6.209  12.740  71.610  1.00  0.00     1.876 C  
HETATM   35  C   UNL     1      -5.669  11.929  70.441  1.00  0.00    -0.163 C  
ENDBRANCH  15  31
ENDBRANCH   2   4
TORSDOF 5
ENDMDL
MODEL      142
REMARK 921   NORMALIZED FREE ENERGY PREDICTED BY IDOCK:   10.39 KCAL/MOL
REMARK 922        TOTAL FREE ENERGY PREDICTED BY IDOCK:   12.84 KCAL/MOL
REMARK 923 INTER-LIGAND FREE ENERGY PREDICTED BY IDOCK:   10.23 KCAL/MOL
REMARK 924 INTRA-LIGAND FREE ENERGY PREDICTED BY IDOCK:    2.61 KCAL/MOL
REMARK 927      BINDING AFFINITY PREDICTED BY RF-SCORE:    0.00 PKD
ROOT
HETATM    1  C   UNL     1      -8.618  16.772  71.657  1.00  0.00     9.823 C  
HETATM    2  C   UNL     1      -7.899  16.594  70.345  1.00  0.00     2.578 C  
HETATM    3  O   UNL     1      -6.855  17.221  70.150  1.00  0.00     0.403 OA 
ENDROOT
BRANCH   2   4
HETATM    4  C   UNL     1      -8.422  15.605  69.328  1.00  0.00    -0.265 C  
HETATM    5  C   UNL     1      -9.247  15.993  68.334  1.00  0.00    -0.196 C  
HETATM    6  C   UNL     1      -9.855  17.369  68.139  1.00  0.00    -0.301 C  
HETATM    7  C   UNL     1      -9.601  14.994  67.304  1.00  0.00    -0.208 A  
HETATM    8  C   UNL     1     -10.489  15.248  66.289  1.00  0.00    -0.307 A  
HETATM    9  N   UNL     1     -10.786  14.374  65.326  1.00  0.00    -0.349 NA 
HETATM   10  C   UNL     1     -10.178  13.186  65.309  1.00  0.00    -0.286 A  
HETATM   11  N   UNL     1      -9.314  12.826  66.270  1.00  0.00    -0.199 NA 
HETATM   12  O   UNL     1      -7.637  13.722  70.512  1.00  0.00     1.490 OA 
HETATM   13  C   UNL     1      -8.039  14.157  69.435  1.00  0.00     0.346 C  
HETATM   14  C   UNL     1      -9.035  13.727  67.253  1.00  0.00    -0.224 A  
HETATM   15  N   UNL     1      -8.153  13.349  68.307  1.00  0.00    -0.147 N  
BRANCH  10  16
HETATM   16  N   UNL     1     -10.425  12.320  64.247  1.00  0.00    -0.321 NA 
HETATM   17  H   UNL     1     -11.006  12.684  63.492  1.00  0.00     0.000 HD 
BRANCH  16  18
HETATM   18  C   UNL     1      -9.967  11.006  64.099  1.00  0.00    -0.329 A  
HETATM   19  C   UNL     1      -9.337   9.002  65.098  1.00  0.00    -0.029 A  
HETATM   20  C   UNL     1      -9.511  10.500  62.888  1.00  0.00    -0.360 A  
HETATM   21  C   UNL     1      -8.865   9.270  62.830  1.00  0.00    -0.185 A  
HETATM   22  N   UNL     1      -9.938  10.230  65.200  1.00  0.00    -0.319 NA 
HETATM   23  C   UNL     1      -8.716   8.478  63.962  1.00  0.00     0.163 A  
BRANCH  23  24
HETATM   24  N   UNL     1      -8.016   7.295  63.902  1.00  0.00    -0.113 NA 
HETATM   25  C   UNL     1      -7.615   6.705  62.608  1.00  0.00    -0.090 C  
HETATM   26  C   UNL     1      -6.075   6.635  62.501  1.00  0.00    -0.035 C  
HETATM   27  N   UNL     1      -5.447   5.919  63.626  1.00  0.00    -0.017 NA 
HETATM   28  C   UNL     1      -5.865   6.544  64.897  1.00  0.00    -0.030 C  
HETATM   29  H   UNL     1      -4.432   5.870  63.535  1.00  0.00     0.000 HD 
HETATM   30  C   UNL     1      -7.398   6.645  65.066  1.00  0.00    -0.082 C  
ENDBRANCH  23  24
ENDBRANCH  16  18
ENDBRANCH  10  16
BRANCH  15  31
HETATM   31  C   UNL     1      -7.670  11.959  68.334  1.00  0.00    -0.131 C  
HETATM   32  C   UNL     1      -7.533  11.305  69.722  1.00  0.00     0.306 C  
HETATM   33  C   UNL     1      -8.556  10.999  67.528  1.00  0.00    -0.128 C  
HETATM   34  C   UNL     1      -7.548   9.815  69.413  1.00  0.00    -0.104 C  
HETATM   35  C   UNL     1      -8.549   9.668  68.276  1.00  0.00    -0.119 C  
ENDBRANCH  15  31
ENDBRANCH   2   4
TORSDOF 5
ENDMDL
MODEL      143
REMARK 921   NORMALIZED FREE ENERGY PREDICTED BY IDOCK:   11.11 KCAL/MOL
REMARK 922        TOTAL FREE ENERGY PREDICTED BY IDOCK:   13.77 KCAL/MOL
REMARK 923 INTER-LIGAND FREE ENERGY PREDICTED BY IDOCK:   11.98 KCAL/MOL
REMARK 924 INTRA-LIGAND FREE ENERGY PREDICTED BY IDOCK:    1.79 KCAL/MOL
REMARK 927      BINDING AFFINITY PREDICTED BY RF-SCORE:    0.00 PKD
ROOT
HETATM    1  C   UNL     1      -7.988  16.549  71.094  1.00  0.00     5.749 C  
HETATM    2  C   UNL     1      -7.352  15.282  71.604  1.00  0.00     3.235 C  
HETATM    3  O   UNL     1      -7.115  15.182  72.810  1.00  0.00     3.154 OA 
ENDROOT
BRANCH   2   4
HETATM    4  C   UNL     1      -7.086  14.138  70.654  1.00  0.00     0.887 C  
HETATM    5  C   UNL     1      -6.207  13.161  70.963  1.00  0.00     0.593 C  
HETATM    6  C   UNL     1      -5.301  13.101  72.178  1.00  0.00     0.059 C  
HETATM    7  C   UNL     1      -6.108  12.009  70.043  1.00  0.00    -0.146 A  
HETATM    8  C   UNL     1      -5.198  10.994  70.211  1.00  0.00    -0.069 A  
HETATM    9  N   UNL     1      -5.125   9.925  69.417  1.00  0.00    -0.035 NA 
HETATM   10  C   UNL     1      -5.990   9.797  68.408  1.00  0.00    -0.046 A  
HETATM   11  N   UNL     1      -6.901  10.744  68.140  1.00  0.00    -0.067 NA 
HETATM   12  O   UNL     1      -8.267  15.127  68.869  1.00  0.00    -0.156 OA 
HETATM   13  C   UNL     1      -7.790  14.092  69.329  1.00  0.00     0.202 C  
HETATM   14  C   UNL     1      -6.951  11.835  68.954  1.00  0.00    -0.109 A  
HETATM   15  N   UNL     1      -7.882  12.874  68.661  1.00  0.00    -0.090 N  
BRANCH  10  16
HETATM   16  N   UNL     1      -5.965   8.632  67.645  1.00  0.00    -0.047 NA 
HETATM   17  H   UNL     1      -5.346   8.636  66.834  1.00  0.00     0.000 HD 
BRANCH  16  18
HETATM   18  C   UNL     1      -6.692   7.457  67.865  1.00  0.00    -0.062 A  
HETATM   19  C   UNL     1      -8.127   5.829  67.031  1.00  0.00    -0.102 A  
HETATM   20  C   UNL     1      -6.857   6.901  69.127  1.00  0.00    -0.068 A  
HETATM   21  C   UNL     1      -7.762   5.864  69.333  1.00  0.00    -0.093 A  
HETATM   22  N   UNL     1      -7.281   6.881  66.799  1.00  0.00    -0.075 NA 
HETATM   23  C   UNL     1      -8.473   5.305  68.279  1.00  0.00    -0.096 A  
BRANCH  23  24
HETATM   24  N   UNL     1      -9.412   4.326  68.508  1.00  0.00    -0.151 NA 
HETATM   25  C   UNL     1     -10.020   3.571  67.392  1.00  0.00     0.387 C  
HETATM   26  C   UNL     1      -9.671   2.069  67.504  1.00  0.00     0.310 C  
HETATM   27  N   UNL     1     -10.040   1.482  68.805  1.00  0.00     0.163 NA 
HETATM   28  C   UNL     1      -9.406   2.259  69.889  1.00  0.00    -0.100 C  
HETATM   29  H   UNL     1      -9.815   0.488  68.858  1.00  0.00     0.000 HD 
HETATM   30  C   UNL     1      -9.717   3.772  69.834  1.00  0.00    -0.130 C  
ENDBRANCH  23  24
ENDBRANCH  16  18
ENDBRANCH  10  16
BRANCH  15  31
HETATM   31  C   UNL     1      -8.672  12.761  67.423  1.00  0.00    -0.196 C  
HETATM   32  C   UNL     1      -8.381  11.539  66.532  1.00  0.00    -0.147 C  
HETATM   33  C   UNL     1     -10.185  12.715  67.678  1.00  0.00    -0.217 C  
HETATM   34  C   UNL     1      -9.639  11.413  65.684  1.00  0.00    -0.258 C  
HETATM   35  C   UNL     1     -10.776  11.779  66.627  1.00  0.00    -0.300 C  
ENDBRANCH  15  31
ENDBRANCH   2   4
TORSDOF 5
ENDMDL
MODEL      144
REMARK 921   NORMALIZED FREE ENERGY PREDICTED BY IDOCK:   25.73 KCAL/MOL
REMARK 922        TOTAL FREE ENERGY PREDICTED BY IDOCK:   32.66 KCAL/MOL
REMARK 923 INTER-LIGAND FREE ENERGY PREDICTED BY IDOCK:   31.50 KCAL/MOL
REMARK 924 INTRA-LIGAND FREE ENERGY PREDICTED BY IDOCK:    1.15 KCAL/MOL
REMARK 927      BINDING AFFINITY PREDICTED BY RF-SCORE:    0.00 PKD
ROOT
HETATM    1  C   UNL     1      -7.988  16.549  71.094  1.00  0.00     5.749 C  
HETATM    2  C   UNL     1      -7.363  15.284  71.622  1.00  0.00     3.235 C  
HETATM    3  O   UNL     1      -7.137  15.194  72.831  1.00  0.00     3.323 OA 
ENDROOT
BRANCH   2   4
HETATM    4  C   UNL     1      -7.095  14.129  70.684  1.00  0.00     0.887 C  
HETATM    5  C   UNL     1      -6.225  13.151  71.010  1.00  0.00     0.593 C  
HETATM    6  C   UNL     1      -5.329  13.097  72.233  1.00  0.00     0.096 C  
HETATM    7  C   UNL     1      -6.124  11.989  70.101  1.00  0.00    -0.131 A  
HETATM    8  C   UNL     1      -5.222  10.971  70.287  1.00  0.00    -0.069 A  
HETATM    9  N   UNL     1      -5.148   9.893  69.503  1.00  0.00    -0.035 NA 
HETATM   10  C   UNL     1      -6.005   9.761  68.488  1.00  0.00    -0.042 A  
HETATM   11  N   UNL     1      -6.908  10.710  68.204  1.00  0.00    -0.067 NA 
HETATM   12  O   UNL     1      -8.256  15.108  68.880  1.00  0.00    -0.156 OA 
HETATM   13  C   UNL     1      -7.789  14.074  69.354  1.00  0.00     0.308 C  
HETATM   14  C   UNL     1      -6.959  11.810  69.007  1.00  0.00    -0.107 A  
HETATM   15  N   UNL     1      -7.882  12.851  68.696  1.00  0.00    -0.090 N  
BRANCH  10  16
HETATM   16  N   UNL     1      -5.980   8.589  67.737  1.00  0.00    -0.046 NA 
HETATM   17  H   UNL     1      -5.059   8.192  67.550  1.00  0.00     0.000 HD 
BRANCH  16  18
HETATM   18  C   UNL     1      -7.074   7.895  67.209  1.00  0.00    -0.083 A  
HETATM   19  C   UNL     1      -9.051   7.948  65.985  1.00  0.00    -0.132 A  
HETATM   20  C   UNL     1      -7.363   6.578  67.544  1.00  0.00    -0.095 A  
HETATM   21  C   UNL     1      -8.572   5.999  67.172  1.00  0.00    -0.106 A  
HETATM   22  N   UNL     1      -7.891   8.566  66.373  1.00  0.00    -0.097 NA 
HETATM   23  C   UNL     1      -9.495   6.690  66.397  1.00  0.00    -0.123 A  
BRANCH  23  24
HETATM   24  N   UNL     1     -10.714   6.128  66.093  1.00  0.00     0.179 NA 
HETATM   25  C   UNL     1     -11.618   6.747  65.101  1.00  0.00     8.121 C  
HETATM   26  C   UNL     1     -11.839   5.793  63.905  1.00  0.00     7.259 C  
HETATM   27  N   UNL     1     -12.326   4.461  64.306  1.00  0.00     1.601 NA 
HETATM   28  C   UNL     1     -11.392   3.876  65.290  1.00  0.00     1.481 C  
HETATM   29  H   UNL     1     -12.479   3.848  63.505  1.00  0.00     0.000 HD 
HETATM   30  C   UNL     1     -11.128   4.782  66.513  1.00  0.00     0.933 C  
ENDBRANCH  23  24
ENDBRANCH  16  18
ENDBRANCH  10  16
BRANCH  15  31
HETATM   31  C   UNL     1      -8.662  12.730  67.453  1.00  0.00    -0.196 C  
HETATM   32  C   UNL     1     -10.175  12.486  67.612  1.00  0.00    -0.220 C  
HETATM   33  C   UNL     1      -8.552  13.967  66.552  1.00  0.00     0.156 C  
HETATM   34  C   UNL     1     -10.746  12.928  66.273  1.00  0.00    -0.292 C  
HETATM   35  C   UNL     1      -9.913  14.140  65.881  1.00  0.00    -0.331 C  
ENDBRANCH  15  31
ENDBRANCH   2   4
TORSDOF 5
ENDMDL
MODEL      145
REMARK 921   NORMALIZED FREE ENERGY PREDICTED BY IDOCK:   34.57 KCAL/MOL
REMARK 922        TOTAL FREE ENERGY PREDICTED BY IDOCK:   44.08 KCAL/MOL
REMARK 923 INTER-LIGAND FREE ENERGY PREDICTED BY IDOCK:   44.19 KCAL/MOL
REMARK 924 INTRA-LIGAND FREE ENERGY PREDICTED BY IDOCK:   -0.11 KCAL/MOL
REMARK 927      BINDING AFFINITY PREDICTED BY RF-SCORE:    0.00 PKD
ROOT
HETATM    1  C   UNL     1     -13.177  13.331  63.140  1.00  0.00     1.743 C  
HETATM    2  C   UNL     1     -11.697  13.535  63.334  1.00  0.00    -0.043 C  
HETATM    3  O   UNL     1     -11.149  14.478  62.759  1.00  0.00     3.127 OA 
ENDROOT
BRANCH   2   4
HETATM    4  C   UNL     1     -10.931  12.637  64.278  1.00  0.00    -0.404 C  
HETATM    5  C   UNL     1     -10.360  13.126  65.399  1.00  0.00    -0.313 C  
HETATM    6  C   UNL     1     -10.285  14.579  65.825  1.00  0.00    -0.354 C  
HETATM    7  C   UNL     1      -9.749  12.160  66.337  1.00  0.00    -0.243 A  
HETATM    8  C   UNL     1      -9.075  12.542  67.469  1.00  0.00    -0.187 A  
HETATM    9  N   UNL     1      -8.556  11.684  68.350  1.00  0.00    -0.158 NA 
HETATM   10  C   UNL     1      -8.710  10.372  68.155  1.00  0.00    -0.125 A  
HETATM   11  N   UNL     1      -9.330   9.892  67.066  1.00  0.00    -0.145 NA 
HETATM   12  O   UNL     1     -10.930  10.802  62.797  1.00  0.00     0.556 OA 
HETATM   13  C   UNL     1     -10.776  11.179  63.957  1.00  0.00    -0.339 C  
HETATM   14  C   UNL     1      -9.840  10.785  66.172  1.00  0.00    -0.221 A  
HETATM   15  N   UNL     1     -10.463  10.296  64.987  1.00  0.00    -0.116 N  
BRANCH  10  16
HETATM   16  N   UNL     1      -8.248   9.490  69.128  1.00  0.00    -0.106 NA 
HETATM   17  H   UNL     1      -7.749   9.905  69.914  1.00  0.00     0.000 HD 
BRANCH  16  18
HETATM   18  C   UNL     1      -8.390   8.098  69.147  1.00  0.00    -0.131 A  
HETATM   19  C   UNL     1      -8.545   6.139  70.390  1.00  0.00    -0.134 A  
HETATM   20  C   UNL     1      -8.310   7.318  68.000  1.00  0.00    -0.123 A  
HETATM   21  C   UNL     1      -8.238   5.931  68.088  1.00  0.00    -0.109 A  
HETATM   22  N   UNL     1      -8.571   7.508  70.344  1.00  0.00    -0.141 NA 
HETATM   23  C   UNL     1      -8.315   5.280  69.313  1.00  0.00    -0.091 A  
BRANCH  23  24
HETATM   24  N   UNL     1      -8.176   3.913  69.389  1.00  0.00    -0.057 NA 
HETATM   25  C   UNL     1      -7.095   3.210  68.667  1.00  0.00    -0.049 C  
HETATM   26  C   UNL     1      -6.147   2.508  69.666  1.00  0.00    -0.024 C  
HETATM   27  N   UNL     1      -6.847   1.597  70.589  1.00  0.00    -0.031 NA 
HETATM   28  C   UNL     1      -7.911   2.339  71.295  1.00  0.00    -0.040 C  
HETATM   29  H   UNL     1      -6.206   1.132  71.233  1.00  0.00     0.000 HD 
HETATM   30  C   UNL     1      -8.895   3.066  70.351  1.00  0.00    -0.083 C  
ENDBRANCH  23  24
ENDBRANCH  16  18
ENDBRANCH  10  16
BRANCH  15  31
HETATM   31  C   UNL     1     -10.428   8.845  64.740  1.00  0.00     3.810 C  
HETATM   32  C   UNL     1     -11.656   8.237  64.036  1.00  0.00    18.201 C  
HETATM   33  C   UNL     1      -9.227   8.409  63.889  1.00  0.00     1.184 C  
HETATM   34  C   UNL     1     -11.125   6.930  63.466  1.00  0.00    15.233 C  
HETATM   35  C   UNL     1      -9.709   7.255  63.013  1.00  0.00     4.105 C  
ENDBRANCH  15  31
ENDBRANCH   2   4
TORSDOF 5
ENDMDL
