MODEL        1
REMARK 921   NORMALIZED FREE ENERGY PREDICTED BY IDOCK:   -8.79 KCAL/MOL
REMARK 922        TOTAL FREE ENERGY PREDICTED BY IDOCK:  -11.12 KCAL/MOL
REMARK 923 INTER-LIGAND FREE ENERGY PREDICTED BY IDOCK:  -10.85 KCAL/MOL
REMARK 924 INTRA-LIGAND FREE ENERGY PREDICTED BY IDOCK:   -0.27 KCAL/MOL
REMARK 927      BINDING AFFINITY PREDICTED BY RF-SCORE:    0.00 PKD
ROOT
HETATM    1  C   UNL     1     -13.145  11.359  71.783  1.00  0.00    -0.523 C  
HETATM    2  C   UNL     1     -12.264  10.263  71.242  1.00  0.00    -0.395 C  
HETATM    3  C   UNL     1     -11.756  10.211  69.994  1.00  0.00    -0.294 C  
HETATM    4  C   UNL     1     -10.873   9.056  69.681  1.00  0.00    -0.186 C  
HETATM    5  O   UNL     1     -10.133   7.675  73.969  1.00  0.00    -0.355 OA 
HETATM    6  C   UNL     1     -11.070   7.227  72.993  1.00  0.00    -0.317 C  
HETATM    7  O   UNL     1     -10.387   8.937  68.555  1.00  0.00    -0.195 OA 
HETATM    8  N   UNL     1     -10.647   8.146  70.694  1.00  0.00    -0.211 N  
HETATM    9  C   UNL     1      -9.890   6.953  70.331  1.00  0.00    -0.179 C  
HETATM   10  N   UNL     1     -12.052   9.289  72.183  1.00  0.00    -0.329 NA 
HETATM   11  C   UNL     1      -9.444   6.098  71.503  1.00  0.00    -0.161 C  
HETATM   12  C   UNL     1     -11.299   8.280  71.895  1.00  0.00    -0.308 C  
HETATM   13  C   UNL     1     -10.615   5.884  72.445  1.00  0.00    -0.257 C  
HETATM   14  H   UNL     1     -10.417   8.515  74.312  1.00  0.00     0.000 HD 
ENDROOT
BRANCH   3  15
HETATM   15  C   UNL     1     -11.890  11.224  68.879  1.00  0.00    -0.413 C  
BRANCH  15  16
HETATM   16  C   UNL     1     -11.281  12.619  69.195  1.00  0.00    -0.243 C  
BRANCH  16  17
HETATM   17  N   UNL     1     -11.712  13.713  68.310  1.00  0.00    -0.343 NA 
HETATM   18  C   UNL     1      -9.560  14.940  68.071  1.00  0.00    -0.207 C  
HETATM   19  C   UNL     1     -10.309  13.505  66.164  1.00  0.00    -0.296 C  
HETATM   20  C   UNL     1     -11.013  14.981  68.532  1.00  0.00    -0.256 C  
HETATM   21  C   UNL     1      -9.502  14.756  66.547  1.00  0.00    -0.316 C  
HETATM   22  C   UNL     1     -11.670  13.360  66.874  1.00  0.00    -0.389 C  
BRANCH  21  23
HETATM   23  C   UNL     1      -9.881  16.060  65.891  1.00  0.00    -0.348 A  
HETATM   24  N   UNL     1     -10.732  16.129  64.860  1.00  0.00    -0.659 NA 
HETATM   25  O   UNL     1     -11.111  17.461  64.770  1.00  0.00    -0.973 OA 
HETATM   26  C   UNL     1     -10.466  18.186  65.724  1.00  0.00    -0.207 A  
HETATM   27  C   UNL     1      -9.602  17.356  66.415  1.00  0.00    -0.291 A  
HETATM   28  C   UNL     1      -8.815  17.898  67.449  1.00  0.00    -0.245 A  
HETATM   29  C   UNL     1      -8.958  19.258  67.748  1.00  0.00    -0.354 A  
HETATM   30  C   UNL     1      -9.872  20.045  67.048  1.00  0.00    -0.430 A  
HETATM   31  C   UNL     1     -10.651  19.535  66.009  1.00  0.00    -0.589 A  
HETATM   32  F   UNL     1     -10.013  21.331  67.395  1.00  0.00    -0.576 F  
ENDBRANCH  21  23
ENDBRANCH  16  17
ENDBRANCH  15  16
ENDBRANCH   3  15
TORSDOF 4
ENDMDL
MODEL        2
REMARK 921   NORMALIZED FREE ENERGY PREDICTED BY IDOCK:   -8.57 KCAL/MOL
REMARK 922        TOTAL FREE ENERGY PREDICTED BY IDOCK:  -10.84 KCAL/MOL
REMARK 923 INTER-LIGAND FREE ENERGY PREDICTED BY IDOCK:  -10.33 KCAL/MOL
REMARK 924 INTRA-LIGAND FREE ENERGY PREDICTED BY IDOCK:   -0.52 KCAL/MOL
REMARK 927      BINDING AFFINITY PREDICTED BY RF-SCORE:    0.00 PKD
ROOT
HETATM    1  C   UNL     1      -8.638  10.761  68.561  1.00  0.00    -0.148 C  
HETATM    2  C   UNL     1      -9.591  10.160  69.561  1.00  0.00    -0.221 C  
HETATM    3  C   UNL     1     -10.898  10.468  69.681  1.00  0.00    -0.320 C  
HETATM    4  C   UNL     1     -11.668   9.722  70.712  1.00  0.00    -0.328 C  
HETATM    5  O   UNL     1      -8.638   6.387  71.440  1.00  0.00    -0.129 OA 
HETATM    6  C   UNL     1      -8.871   7.604  72.142  1.00  0.00    -0.125 C  
HETATM    7  O   UNL     1     -12.862   9.965  70.886  1.00  0.00    -0.325 OA 
HETATM    8  N   UNL     1     -10.980   8.779  71.448  1.00  0.00    -0.265 N  
HETATM    9  C   UNL     1     -11.715   8.154  72.543  1.00  0.00    -0.394 C  
HETATM   10  N   UNL     1      -8.953   9.257  70.372  1.00  0.00    -0.220 NA 
HETATM   11  C   UNL     1     -11.030   6.955  73.171  1.00  0.00    -0.297 C  
HETATM   12  C   UNL     1      -9.626   8.628  71.277  1.00  0.00    -0.225 C  
HETATM   13  C   UNL     1      -9.577   7.296  73.452  1.00  0.00    -0.272 C  
HETATM   14  H   UNL     1      -8.196   6.579  70.621  1.00  0.00     0.000 HD 
ENDROOT
BRANCH   3  15
HETATM   15  C   UNL     1     -11.723  11.419  68.842  1.00  0.00    -0.409 C  
BRANCH  15  16
HETATM   16  C   UNL     1     -11.829  12.861  69.413  1.00  0.00    -0.312 C  
BRANCH  16  17
HETATM   17  N   UNL     1     -12.111  13.914  68.424  1.00  0.00    -0.349 NA 
HETATM   18  C   UNL     1      -9.884  15.022  68.336  1.00  0.00    -0.222 C  
HETATM   19  C   UNL     1     -10.512  13.503  66.451  1.00  0.00    -0.287 C  
HETATM   20  C   UNL     1     -11.372  15.160  68.641  1.00  0.00    -0.310 C  
HETATM   21  C   UNL     1      -9.683  14.737  66.840  1.00  0.00    -0.247 C  
HETATM   22  C   UNL     1     -11.943  13.467  67.024  1.00  0.00    -0.394 C  
BRANCH  21  23
HETATM   23  C   UNL     1      -9.926  16.013  66.072  1.00  0.00    -0.339 A  
HETATM   24  N   UNL     1     -10.675  16.056  64.962  1.00  0.00    -0.593 NA 
HETATM   25  O   UNL     1     -10.967  17.397  64.756  1.00  0.00    -0.964 OA 
HETATM   26  C   UNL     1     -10.371  18.150  65.719  1.00  0.00    -0.172 A  
HETATM   27  C   UNL     1      -9.622  17.325  66.539  1.00  0.00    -0.286 A  
HETATM   28  C   UNL     1      -8.902  17.894  67.607  1.00  0.00    -0.250 A  
HETATM   29  C   UNL     1      -8.993  19.276  67.806  1.00  0.00    -0.354 A  
HETATM   30  C   UNL     1      -9.793  20.060  66.976  1.00  0.00    -0.430 A  
HETATM   31  C   UNL     1     -10.503  19.523  65.901  1.00  0.00    -0.585 A  
HETATM   32  F   UNL     1      -9.891  21.373  67.227  1.00  0.00    -0.555 F  
ENDBRANCH  21  23
ENDBRANCH  16  17
ENDBRANCH  15  16
ENDBRANCH   3  15
TORSDOF 4
ENDMDL
MODEL        3
REMARK 921   NORMALIZED FREE ENERGY PREDICTED BY IDOCK:   -8.53 KCAL/MOL
REMARK 922        TOTAL FREE ENERGY PREDICTED BY IDOCK:  -10.80 KCAL/MOL
REMARK 923 INTER-LIGAND FREE ENERGY PREDICTED BY IDOCK:  -10.17 KCAL/MOL
REMARK 924 INTRA-LIGAND FREE ENERGY PREDICTED BY IDOCK:   -0.63 KCAL/MOL
REMARK 927      BINDING AFFINITY PREDICTED BY RF-SCORE:    0.00 PKD
ROOT
HETATM    1  C   UNL     1     -13.385   9.864  71.617  1.00  0.00    -0.481 C  
HETATM    2  C   UNL     1     -11.948   9.662  71.216  1.00  0.00    -0.380 C  
HETATM    3  C   UNL     1     -11.341  10.236  70.157  1.00  0.00    -0.388 C  
HETATM    4  C   UNL     1      -9.898   9.930  69.968  1.00  0.00    -0.243 C  
HETATM    5  O   UNL     1      -9.098   8.184  74.109  1.00  0.00    -0.331 OA 
HETATM    6  C   UNL     1      -9.398   7.547  72.871  1.00  0.00    -0.181 C  
HETATM    7  O   UNL     1      -9.286  10.407  69.012  1.00  0.00    -0.175 OA 
HETATM    8  N   UNL     1      -9.307   9.095  70.895  1.00  0.00    -0.259 N  
HETATM    9  C   UNL     1      -7.930   8.699  70.619  1.00  0.00    -0.110 C  
HETATM   10  N   UNL     1     -11.317   8.787  72.062  1.00  0.00    -0.361 NA 
HETATM   11  C   UNL     1      -7.226   7.992  71.763  1.00  0.00    -0.079 C  
HETATM   12  C   UNL     1     -10.068   8.513  71.878  1.00  0.00    -0.297 C  
HETATM   13  C   UNL     1      -8.133   6.909  72.319  1.00  0.00    -0.093 C  
HETATM   14  H   UNL     1      -9.888   8.583  74.455  1.00  0.00     0.000 HD 
ENDROOT
BRANCH   3  15
HETATM   15  C   UNL     1     -11.911  11.230  69.170  1.00  0.00    -0.423 C  
BRANCH  15  16
HETATM   16  C   UNL     1     -11.808  12.716  69.617  1.00  0.00    -0.311 C  
BRANCH  16  17
HETATM   17  N   UNL     1     -12.025  13.713  68.555  1.00  0.00    -0.369 NA 
HETATM   18  C   UNL     1      -9.909  15.009  68.752  1.00  0.00    -0.233 C  
HETATM   19  C   UNL     1     -10.118  13.389  66.858  1.00  0.00    -0.255 C  
HETATM   20  C   UNL     1     -11.433  15.025  68.828  1.00  0.00    -0.319 C  
HETATM   21  C   UNL     1      -9.463  14.702  67.316  1.00  0.00    -0.221 C  
HETATM   22  C   UNL     1     -11.611  13.244  67.215  1.00  0.00    -0.359 C  
BRANCH  21  23
HETATM   23  C   UNL     1      -9.692  15.929  66.469  1.00  0.00    -0.266 A  
HETATM   24  N   UNL     1     -10.362  15.892  65.309  1.00  0.00    -0.493 NA 
HETATM   25  O   UNL     1     -10.682  17.210  65.015  1.00  0.00    -0.712 OA 
HETATM   26  C   UNL     1     -10.179  18.030  65.978  1.00  0.00    -0.303 A  
HETATM   27  C   UNL     1      -9.463  17.272  66.888  1.00  0.00    -0.264 A  
HETATM   28  C   UNL     1      -8.839  17.918  67.972  1.00  0.00    -0.268 A  
HETATM   29  C   UNL     1      -8.989  19.304  68.094  1.00  0.00    -0.371 A  
HETATM   30  C   UNL     1      -9.753  20.018  67.172  1.00  0.00    -0.411 A  
HETATM   31  C   UNL     1     -10.368  19.404  66.080  1.00  0.00    -0.595 A  
HETATM   32  F   UNL     1      -9.911  21.337  67.349  1.00  0.00    -0.618 F  
ENDBRANCH  21  23
ENDBRANCH  16  17
ENDBRANCH  15  16
ENDBRANCH   3  15
TORSDOF 4
ENDMDL
MODEL        4
REMARK 921   NORMALIZED FREE ENERGY PREDICTED BY IDOCK:   -8.53 KCAL/MOL
REMARK 922        TOTAL FREE ENERGY PREDICTED BY IDOCK:  -10.79 KCAL/MOL
REMARK 923 INTER-LIGAND FREE ENERGY PREDICTED BY IDOCK:  -10.63 KCAL/MOL
REMARK 924 INTRA-LIGAND FREE ENERGY PREDICTED BY IDOCK:   -0.16 KCAL/MOL
REMARK 927      BINDING AFFINITY PREDICTED BY RF-SCORE:    0.00 PKD
ROOT
HETATM    1  C   UNL     1     -13.461  12.372  72.000  1.00  0.00    -0.460 C  
HETATM    2  C   UNL     1     -12.629  11.327  71.305  1.00  0.00    -0.382 C  
HETATM    3  C   UNL     1     -11.832  11.541  70.238  1.00  0.00    -0.431 C  
HETATM    4  C   UNL     1     -11.064  10.371  69.734  1.00  0.00    -0.295 C  
HETATM    5  O   UNL     1     -11.631   7.659  73.361  1.00  0.00    -0.641 OA 
HETATM    6  C   UNL     1     -12.342   7.727  72.128  1.00  0.00    -0.265 C  
HETATM    7  O   UNL     1     -10.330  10.492  68.753  1.00  0.00    -0.171 OA 
HETATM    8  N   UNL     1     -11.229   9.176  70.404  1.00  0.00    -0.247 N  
HETATM    9  C   UNL     1     -10.574   8.012  69.816  1.00  0.00    -0.238 C  
HETATM   10  N   UNL     1     -12.797  10.095  71.884  1.00  0.00    -0.429 NA 
HETATM   11  C   UNL     1     -10.560   6.775  70.694  1.00  0.00    -0.257 C  
HETATM   12  C   UNL     1     -12.140   9.082  71.427  1.00  0.00    -0.327 C  
HETATM   13  C   UNL     1     -11.949   6.543  71.260  1.00  0.00    -0.364 C  
HETATM   14  H   UNL     1     -11.877   8.399  73.904  1.00  0.00     0.000 HD 
ENDROOT
BRANCH   3  15
HETATM   15  C   UNL     1     -11.540  12.843  69.527  1.00  0.00    -0.348 C  
BRANCH  15  16
HETATM   16  C   UNL     1     -11.945  12.865  68.026  1.00  0.00    -0.275 C  
BRANCH  16  17
HETATM   17  N   UNL     1     -12.103  14.203  67.433  1.00  0.00    -0.392 NA 
HETATM   18  C   UNL     1      -9.780  15.059  67.686  1.00  0.00    -0.215 C  
HETATM   19  C   UNL     1     -10.507  14.296  65.418  1.00  0.00    -0.382 C  
HETATM   20  C   UNL     1     -11.255  15.235  68.034  1.00  0.00    -0.326 C  
HETATM   21  C   UNL     1      -9.573  15.253  66.178  1.00  0.00    -0.353 C  
HETATM   22  C   UNL     1     -11.947  14.217  65.963  1.00  0.00    -0.400 C  
BRANCH  21  23
HETATM   23  C   UNL     1      -9.677  16.725  65.864  1.00  0.00    -0.217 A  
HETATM   24  N   UNL     1     -10.762  17.269  65.299  1.00  0.00    -0.617 NA 
HETATM   25  O   UNL     1     -10.647  18.638  65.500  1.00  0.00    -0.608 OA 
HETATM   26  C   UNL     1      -9.486  18.909  66.154  1.00  0.00    -0.215 A  
HETATM   27  C   UNL     1      -8.784  17.731  66.337  1.00  0.00    -0.255 A  
HETATM   28  C   UNL     1      -7.536  17.773  66.987  1.00  0.00    -0.224 A  
HETATM   29  C   UNL     1      -7.066  19.012  67.441  1.00  0.00    -0.226 A  
HETATM   30  C   UNL     1      -7.829  20.166  67.266  1.00  0.00    -0.313 A  
HETATM   31  C   UNL     1      -9.061  20.152  66.611  1.00  0.00    -0.439 A  
HETATM   32  F   UNL     1      -7.366  21.324  67.755  1.00  0.00    -0.317 F  
ENDBRANCH  21  23
ENDBRANCH  16  17
ENDBRANCH  15  16
ENDBRANCH   3  15
TORSDOF 4
ENDMDL
MODEL        5
REMARK 921   NORMALIZED FREE ENERGY PREDICTED BY IDOCK:   -8.37 KCAL/MOL
REMARK 922        TOTAL FREE ENERGY PREDICTED BY IDOCK:  -10.60 KCAL/MOL
REMARK 923 INTER-LIGAND FREE ENERGY PREDICTED BY IDOCK:  -10.12 KCAL/MOL
REMARK 924 INTRA-LIGAND FREE ENERGY PREDICTED BY IDOCK:   -0.47 KCAL/MOL
REMARK 927      BINDING AFFINITY PREDICTED BY RF-SCORE:    0.00 PKD
ROOT
HETATM    1  C   UNL     1      -8.707  10.713  68.774  1.00  0.00    -0.157 C  
HETATM    2  C   UNL     1      -9.821  10.096  69.579  1.00  0.00    -0.232 C  
HETATM    3  C   UNL     1     -11.047  10.629  69.756  1.00  0.00    -0.358 C  
HETATM    4  C   UNL     1     -12.012   9.829  70.557  1.00  0.00    -0.206 C  
HETATM    5  O   UNL     1      -9.751   5.866  70.457  1.00  0.00    -0.168 OA 
HETATM    6  C   UNL     1      -9.784   6.896  71.441  1.00  0.00    -0.174 C  
HETATM    7  O   UNL     1     -13.144  10.264  70.771  1.00  0.00    -0.381 OA 
HETATM    8  N   UNL     1     -11.572   8.614  71.039  1.00  0.00    -0.278 N  
HETATM    9  C   UNL     1     -12.484   7.907  71.932  1.00  0.00    -0.321 C  
HETATM   10  N   UNL     1      -9.426   8.911  70.143  1.00  0.00    -0.171 NA 
HETATM   11  C   UNL     1     -12.090   6.476  72.247  1.00  0.00    -0.236 C  
HETATM   12  C   UNL     1     -10.266   8.233  70.852  1.00  0.00    -0.191 C  
HETATM   13  C   UNL     1     -10.619   6.430  72.623  1.00  0.00    -0.250 C  
HETATM   14  H   UNL     1      -9.229   6.156  69.719  1.00  0.00     0.000 HD 
ENDROOT
BRANCH   3  15
HETATM   15  C   UNL     1     -11.613  11.905  69.174  1.00  0.00    -0.373 C  
BRANCH  15  16
HETATM   16  C   UNL     1     -11.777  11.892  67.628  1.00  0.00    -0.275 C  
BRANCH  16  17
HETATM   17  N   UNL     1     -12.131  13.185  67.018  1.00  0.00    -0.352 NA 
HETATM   18  C   UNL     1      -9.991  14.412  67.351  1.00  0.00    -0.242 C  
HETATM   19  C   UNL     1     -10.496  13.537  65.063  1.00  0.00    -0.390 C  
HETATM   20  C   UNL     1     -11.487  14.344  67.642  1.00  0.00    -0.346 C  
HETATM   21  C   UNL     1      -9.762  14.635  65.849  1.00  0.00    -0.341 C  
HETATM   22  C   UNL     1     -11.923  13.222  65.555  1.00  0.00    -0.405 C  
BRANCH  21  23
HETATM   23  C   UNL     1     -10.095  16.070  65.521  1.00  0.00    -0.304 A  
HETATM   24  N   UNL     1     -10.935  16.409  64.535  1.00  0.00    -0.788 NA 
HETATM   25  O   UNL     1     -11.271  17.736  64.764  1.00  0.00    -0.767 OA 
HETATM   26  C   UNL     1     -10.609  18.193  65.862  1.00  0.00    -0.234 A  
HETATM   27  C   UNL     1      -9.777  17.195  66.336  1.00  0.00    -0.307 A  
HETATM   28  C   UNL     1      -8.981  17.451  67.469  1.00  0.00    -0.231 A  
HETATM   29  C   UNL     1      -9.082  18.705  68.081  1.00  0.00    -0.337 A  
HETATM   30  C   UNL     1      -9.965  19.665  67.588  1.00  0.00    -0.387 A  
HETATM   31  C   UNL     1     -10.753  19.442  66.458  1.00  0.00    -0.516 A  
HETATM   32  F   UNL     1     -10.067  20.837  68.229  1.00  0.00    -0.405 F  
ENDBRANCH  21  23
ENDBRANCH  16  17
ENDBRANCH  15  16
ENDBRANCH   3  15
TORSDOF 4
ENDMDL
MODEL        6
REMARK 921   NORMALIZED FREE ENERGY PREDICTED BY IDOCK:   -8.28 KCAL/MOL
REMARK 922        TOTAL FREE ENERGY PREDICTED BY IDOCK:  -10.49 KCAL/MOL
REMARK 923 INTER-LIGAND FREE ENERGY PREDICTED BY IDOCK:  -10.13 KCAL/MOL
REMARK 924 INTRA-LIGAND FREE ENERGY PREDICTED BY IDOCK:   -0.36 KCAL/MOL
REMARK 927      BINDING AFFINITY PREDICTED BY RF-SCORE:    0.00 PKD
ROOT
HETATM    1  C   UNL     1      -9.234   7.452  68.243  1.00  0.00    -0.137 C  
HETATM    2  C   UNL     1     -10.091   8.445  68.984  1.00  0.00    -0.203 C  
HETATM    3  C   UNL     1     -10.066   9.783  68.813  1.00  0.00    -0.187 C  
HETATM    4  C   UNL     1     -11.030  10.577  69.621  1.00  0.00    -0.283 C  
HETATM    5  O   UNL     1     -13.721   7.128  70.923  1.00  0.00    -0.530 OA 
HETATM    6  C   UNL     1     -12.634   7.764  71.588  1.00  0.00    -0.332 C  
HETATM    7  O   UNL     1     -11.050  11.804  69.526  1.00  0.00    -0.218 OA 
HETATM    8  N   UNL     1     -11.865   9.876  70.467  1.00  0.00    -0.276 N  
HETATM    9  C   UNL     1     -12.708  10.678  71.348  1.00  0.00    -0.440 C  
HETATM   10  N   UNL     1     -10.903   7.817  69.892  1.00  0.00    -0.245 NA 
HETATM   11  C   UNL     1     -13.786   9.902  72.082  1.00  0.00    -0.296 C  
HETATM   12  C   UNL     1     -11.723   8.518  70.603  1.00  0.00    -0.144 C  
HETATM   13  C   UNL     1     -13.178   8.653  72.695  1.00  0.00    -0.271 C  
HETATM   14  H   UNL     1     -13.381   6.572  70.231  1.00  0.00     0.000 HD 
ENDROOT
BRANCH   3  15
HETATM   15  C   UNL     1      -9.243  10.592  67.835  1.00  0.00    -0.143 C  
BRANCH  15  16
HETATM   16  C   UNL     1     -10.017  11.058  66.570  1.00  0.00    -0.212 C  
BRANCH  16  17
HETATM   17  N   UNL     1      -9.553  12.323  65.975  1.00  0.00    -0.239 NA 
HETATM   18  C   UNL     1     -11.597  13.710  66.280  1.00  0.00    -0.372 C  
HETATM   19  C   UNL     1      -9.679  14.090  67.840  1.00  0.00    -0.229 C  
HETATM   20  C   UNL     1     -10.602  13.094  65.302  1.00  0.00    -0.313 C  
HETATM   21  C   UNL     1     -10.888  14.751  67.158  1.00  0.00    -0.311 C  
HETATM   22  C   UNL     1      -8.824  13.189  66.926  1.00  0.00    -0.179 C  
BRANCH  21  23
HETATM   23  C   UNL     1     -10.634  15.986  66.329  1.00  0.00    -0.285 A  
HETATM   24  N   UNL     1     -10.986  16.075  65.040  1.00  0.00    -0.466 NA 
HETATM   25  O   UNL     1     -10.936  17.427  64.727  1.00  0.00    -0.964 OA 
HETATM   26  C   UNL     1     -10.526  18.134  65.815  1.00  0.00    -0.207 A  
HETATM   27  C   UNL     1     -10.237  17.255  66.843  1.00  0.00    -0.322 A  
HETATM   28  C   UNL     1      -9.780  17.767  68.072  1.00  0.00    -0.304 A  
HETATM   29  C   UNL     1      -9.658  19.155  68.207  1.00  0.00    -0.416 A  
HETATM   30  C   UNL     1      -9.999  20.003  67.153  1.00  0.00    -0.441 A  
HETATM   31  C   UNL     1     -10.439  19.518  65.921  1.00  0.00    -0.585 A  
HETATM   32  F   UNL     1      -9.912  21.327  67.337  1.00  0.00    -0.576 F  
ENDBRANCH  21  23
ENDBRANCH  16  17
ENDBRANCH  15  16
ENDBRANCH   3  15
TORSDOF 4
ENDMDL
MODEL        7
REMARK 921   NORMALIZED FREE ENERGY PREDICTED BY IDOCK:   -8.22 KCAL/MOL
REMARK 922        TOTAL FREE ENERGY PREDICTED BY IDOCK:  -10.41 KCAL/MOL
REMARK 923 INTER-LIGAND FREE ENERGY PREDICTED BY IDOCK:   -9.91 KCAL/MOL
REMARK 924 INTRA-LIGAND FREE ENERGY PREDICTED BY IDOCK:   -0.50 KCAL/MOL
REMARK 927      BINDING AFFINITY PREDICTED BY RF-SCORE:    0.00 PKD
ROOT
HETATM    1  C   UNL     1     -11.113   6.484  67.240  1.00  0.00    -0.429 C  
HETATM    2  C   UNL     1     -10.654   7.087  68.542  1.00  0.00    -0.202 C  
HETATM    3  C   UNL     1      -9.903   8.200  68.669  1.00  0.00    -0.191 C  
HETATM    4  C   UNL     1      -9.598   8.645  70.055  1.00  0.00    -0.170 C  
HETATM    5  O   UNL     1     -12.706   6.092  72.213  1.00  0.00    -0.486 OA 
HETATM    6  C   UNL     1     -11.319   5.870  71.976  1.00  0.00    -0.267 C  
HETATM    7  O   UNL     1      -8.903   9.644  70.243  1.00  0.00    -0.223 OA 
HETATM    8  N   UNL     1     -10.114   7.886  71.085  1.00  0.00    -0.184 N  
HETATM    9  C   UNL     1      -9.694   8.258  72.432  1.00  0.00    -0.303 C  
HETATM   10  N   UNL     1     -11.081   6.341  69.611  1.00  0.00    -0.378 NA 
HETATM   11  C   UNL     1     -10.461   7.579  73.552  1.00  0.00    -0.362 C  
HETATM   12  C   UNL     1     -10.794   6.726  70.810  1.00  0.00    -0.249 C  
HETATM   13  C   UNL     1     -10.551   6.090  73.269  1.00  0.00    -0.276 C  
HETATM   14  H   UNL     1     -13.187   5.955  71.405  1.00  0.00     0.000 HD 
ENDROOT
BRANCH   3  15
HETATM   15  C   UNL     1      -9.394   9.121  67.583  1.00  0.00    -0.154 C  
BRANCH  15  16
HETATM   16  C   UNL     1     -10.354  10.288  67.221  1.00  0.00    -0.232 C  
BRANCH  16  17
HETATM   17  N   UNL     1      -9.705  11.581  66.949  1.00  0.00    -0.185 NA 
HETATM   18  C   UNL     1     -11.565  12.754  65.782  1.00  0.00    -0.419 C  
HETATM   19  C   UNL     1     -11.105  13.366  68.163  1.00  0.00    -0.284 C  
HETATM   20  C   UNL     1     -10.136  12.223  65.705  1.00  0.00    -0.252 C  
HETATM   21  C   UNL     1     -11.647  13.882  66.820  1.00  0.00    -0.398 C  
HETATM   22  C   UNL     1      -9.807  12.539  68.071  1.00  0.00    -0.214 C  
BRANCH  21  23
HETATM   23  C   UNL     1     -11.007  15.118  66.237  1.00  0.00    -0.335 A  
HETATM   24  N   UNL     1     -10.927  15.336  64.919  1.00  0.00    -0.428 NA 
HETATM   25  O   UNL     1     -10.628  16.684  64.776  1.00  0.00    -0.685 OA 
HETATM   26  C   UNL     1     -10.501  17.258  66.003  1.00  0.00    -0.282 A  
HETATM   27  C   UNL     1     -10.649  16.284  66.975  1.00  0.00    -0.284 A  
HETATM   28  C   UNL     1     -10.543  16.650  68.330  1.00  0.00    -0.343 A  
HETATM   29  C   UNL     1     -10.312  17.996  68.638  1.00  0.00    -0.328 A  
HETATM   30  C   UNL     1     -10.209  18.947  67.623  1.00  0.00    -0.394 A  
HETATM   31  C   UNL     1     -10.294  18.607  66.272  1.00  0.00    -0.483 A  
HETATM   32  F   UNL     1     -10.033  20.231  67.959  1.00  0.00    -0.487 F  
ENDBRANCH  21  23
ENDBRANCH  16  17
ENDBRANCH  15  16
ENDBRANCH   3  15
TORSDOF 4
ENDMDL
MODEL        8
REMARK 921   NORMALIZED FREE ENERGY PREDICTED BY IDOCK:   -8.12 KCAL/MOL
REMARK 922        TOTAL FREE ENERGY PREDICTED BY IDOCK:  -10.29 KCAL/MOL
REMARK 923 INTER-LIGAND FREE ENERGY PREDICTED BY IDOCK:   -9.77 KCAL/MOL
REMARK 924 INTRA-LIGAND FREE ENERGY PREDICTED BY IDOCK:   -0.52 KCAL/MOL
REMARK 927      BINDING AFFINITY PREDICTED BY RF-SCORE:    0.00 PKD
ROOT
HETATM    1  C   UNL     1     -12.097  14.981  69.598  1.00  0.00    -0.337 C  
HETATM    2  C   UNL     1     -11.332  15.774  68.571  1.00  0.00    -0.374 C  
HETATM    3  C   UNL     1     -11.207  15.454  67.267  1.00  0.00    -0.270 C  
HETATM    4  C   UNL     1     -10.439  16.403  66.418  1.00  0.00    -0.286 C  
HETATM    5  O   UNL     1     -10.419  19.933  69.311  1.00  0.00    -0.617 OA 
HETATM    6  C   UNL     1      -9.446  18.922  69.067  1.00  0.00    -0.245 C  
HETATM    7  O   UNL     1     -10.272  16.163  65.221  1.00  0.00    -0.520 OA 
HETATM    8  N   UNL     1      -9.930  17.527  67.036  1.00  0.00    -0.299 N  
HETATM    9  C   UNL     1      -9.068  18.376  66.220  1.00  0.00    -0.201 C  
HETATM   10  N   UNL     1     -10.744  16.877  69.136  1.00  0.00    -0.325 NA 
HETATM   11  C   UNL     1      -8.727  19.721  66.834  1.00  0.00    -0.389 C  
HETATM   12  C   UNL     1     -10.063  17.684  68.393  1.00  0.00    -0.368 C  
HETATM   13  C   UNL     1      -8.294  19.520  68.275  1.00  0.00    -0.375 C  
HETATM   14  H   UNL     1     -11.139  19.560  69.807  1.00  0.00     0.000 HD 
ENDROOT
BRANCH   3  15
HETATM   15  C   UNL     1     -11.821  14.291  66.520  1.00  0.00    -0.433 C  
BRANCH  15  16
HETATM   16  C   UNL     1     -10.923  13.024  66.443  1.00  0.00    -0.281 C  
BRANCH  16  17
HETATM   17  N   UNL     1     -11.560  11.770  66.877  1.00  0.00    -0.548 NA 
HETATM   18  C   UNL     1      -9.539  10.466  67.517  1.00  0.00    -0.178 C  
HETATM   19  C   UNL     1     -10.926  11.452  69.350  1.00  0.00    -0.260 C  
HETATM   20  C   UNL     1     -10.766  10.567  66.616  1.00  0.00    -0.155 C  
HETATM   21  C   UNL     1      -9.979  10.300  68.979  1.00  0.00    -0.223 C  
HETATM   22  C   UNL     1     -11.995  11.788  68.290  1.00  0.00    -0.165 C  
BRANCH  21  23
HETATM   23  C   UNL     1     -10.484   8.891  69.171  1.00  0.00    -0.223 A  
HETATM   24  N   UNL     1     -10.402   7.958  68.215  1.00  0.00    -0.203 NA 
HETATM   25  O   UNL     1     -10.613   6.743  68.852  1.00  0.00    -0.201 OA 
HETATM   26  C   UNL     1     -10.849   6.955  70.175  1.00  0.00    -0.263 A  
HETATM   27  C   UNL     1     -10.863   8.317  70.420  1.00  0.00    -0.241 A  
HETATM   28  C   UNL     1     -11.103   8.773  71.730  1.00  0.00    -0.417 A  
HETATM   29  C   UNL     1     -11.298   7.822  72.738  1.00  0.00    -0.446 A  
HETATM   30  C   UNL     1     -11.236   6.459  72.448  1.00  0.00    -0.277 A  
HETATM   31  C   UNL     1     -11.016   5.982  71.156  1.00  0.00    -0.341 A  
HETATM   32  F   UNL     1     -11.383   5.581  73.449  1.00  0.00    -0.309 F  
ENDBRANCH  21  23
ENDBRANCH  16  17
ENDBRANCH  15  16
ENDBRANCH   3  15
TORSDOF 4
ENDMDL
MODEL        9
REMARK 921   NORMALIZED FREE ENERGY PREDICTED BY IDOCK:   -7.98 KCAL/MOL
REMARK 922        TOTAL FREE ENERGY PREDICTED BY IDOCK:  -10.12 KCAL/MOL
REMARK 923 INTER-LIGAND FREE ENERGY PREDICTED BY IDOCK:   -9.91 KCAL/MOL
REMARK 924 INTRA-LIGAND FREE ENERGY PREDICTED BY IDOCK:   -0.21 KCAL/MOL
REMARK 927      BINDING AFFINITY PREDICTED BY RF-SCORE:    0.00 PKD
ROOT
HETATM    1  C   UNL     1     -11.195  14.352  64.527  1.00  0.00    -0.314 C  
HETATM    2  C   UNL     1     -11.054  15.141  65.802  1.00  0.00    -0.330 C  
HETATM    3  C   UNL     1     -11.438  14.726  67.027  1.00  0.00    -0.362 C  
HETATM    4  C   UNL     1     -11.167  15.651  68.160  1.00  0.00    -0.345 C  
HETATM    5  O   UNL     1      -8.232  18.407  66.010  1.00  0.00    -0.473 OA 
HETATM    6  C   UNL     1      -9.632  18.532  66.238  1.00  0.00    -0.273 C  
HETATM    7  O   UNL     1     -11.506  15.341  69.303  1.00  0.00    -0.280 OA 
HETATM    8  N   UNL     1     -10.544  16.845  67.860  1.00  0.00    -0.352 N  
HETATM    9  C   UNL     1     -10.408  17.794  68.959  1.00  0.00    -0.234 C  
HETATM   10  N   UNL     1     -10.498  16.371  65.564  1.00  0.00    -0.515 NA 
HETATM   11  C   UNL     1      -9.507  18.981  68.672  1.00  0.00    -0.457 C  
HETATM   12  C   UNL     1     -10.285  17.174  66.553  1.00  0.00    -0.322 C  
HETATM   13  C   UNL     1      -9.870  19.572  67.321  1.00  0.00    -0.468 C  
HETATM   14  H   UNL     1      -8.083  17.757  65.333  1.00  0.00     0.000 HD 
ENDROOT
BRANCH   3  15
HETATM   15  C   UNL     1     -12.034  13.395  67.426  1.00  0.00    -0.391 C  
BRANCH  15  16
HETATM   16  C   UNL     1     -10.997  12.254  67.625  1.00  0.00    -0.244 C  
BRANCH  16  17
HETATM   17  N   UNL     1     -11.562  10.930  67.930  1.00  0.00    -0.549 NA 
HETATM   18  C   UNL     1      -9.583   9.856  68.990  1.00  0.00    -0.188 C  
HETATM   19  C   UNL     1     -11.424  10.652  70.484  1.00  0.00    -0.407 C  
HETATM   20  C   UNL     1     -10.599   9.829  67.852  1.00  0.00    -0.259 C  
HETATM   21  C   UNL     1     -10.295   9.621  70.329  1.00  0.00    -0.336 C  
HETATM   22  C   UNL     1     -12.281  10.879  69.221  1.00  0.00    -0.169 C  
BRANCH  21  23
HETATM   23  C   UNL     1     -10.665   8.161  70.427  1.00  0.00    -0.232 A  
HETATM   24  N   UNL     1     -10.776   7.370  69.352  1.00  0.00    -0.231 NA 
HETATM   25  O   UNL     1     -10.761   6.069  69.836  1.00  0.00    -0.260 OA 
HETATM   26  C   UNL     1     -10.673   6.087  71.194  1.00  0.00    -0.264 A  
HETATM   27  C   UNL     1     -10.694   7.399  71.631  1.00  0.00    -0.239 A  
HETATM   28  C   UNL     1     -10.626   7.659  73.013  1.00  0.00    -0.433 A  
HETATM   29  C   UNL     1     -10.518   6.572  73.889  1.00  0.00    -0.329 A  
HETATM   30  C   UNL     1     -10.461   5.269  73.395  1.00  0.00    -0.232 A  
HETATM   31  C   UNL     1     -10.543   4.984  72.032  1.00  0.00    -0.243 A  
HETATM   32  F   UNL     1     -10.311   4.258  74.262  1.00  0.00    -0.181 F  
ENDBRANCH  21  23
ENDBRANCH  16  17
ENDBRANCH  15  16
ENDBRANCH   3  15
TORSDOF 4
ENDMDL
MODEL       10
REMARK 921   NORMALIZED FREE ENERGY PREDICTED BY IDOCK:   -7.87 KCAL/MOL
REMARK 922        TOTAL FREE ENERGY PREDICTED BY IDOCK:   -9.99 KCAL/MOL
REMARK 923 INTER-LIGAND FREE ENERGY PREDICTED BY IDOCK:   -9.20 KCAL/MOL
REMARK 924 INTRA-LIGAND FREE ENERGY PREDICTED BY IDOCK:   -0.79 KCAL/MOL
REMARK 927      BINDING AFFINITY PREDICTED BY RF-SCORE:    0.00 PKD
ROOT
HETATM    1  C   UNL     1     -11.789  15.106  69.883  1.00  0.00    -0.363 C  
HETATM    2  C   UNL     1     -11.173  15.930  68.782  1.00  0.00    -0.359 C  
HETATM    3  C   UNL     1     -11.150  15.598  67.475  1.00  0.00    -0.289 C  
HETATM    4  C   UNL     1     -10.524  16.580  66.549  1.00  0.00    -0.270 C  
HETATM    5  O   UNL     1     -10.454  20.146  69.397  1.00  0.00    -0.586 OA 
HETATM    6  C   UNL     1      -9.446  19.193  69.072  1.00  0.00    -0.309 C  
HETATM    7  O   UNL     1     -10.455  16.334  65.345  1.00  0.00    -0.473 OA 
HETATM    8  N   UNL     1     -10.031  17.742  67.107  1.00  0.00    -0.309 N  
HETATM    9  C   UNL     1      -9.302  18.629  66.206  1.00  0.00    -0.243 C  
HETATM   10  N   UNL     1     -10.604  17.074  69.279  1.00  0.00    -0.323 NA 
HETATM   11  C   UNL     1      -8.989  20.001  66.775  1.00  0.00    -0.445 C  
HETATM   12  C   UNL     1     -10.046  17.910  68.469  1.00  0.00    -0.391 C  
HETATM   13  C   UNL     1      -8.413  19.847  68.171  1.00  0.00    -0.285 C  
HETATM   14  H   UNL     1     -11.100  19.737  69.961  1.00  0.00     0.000 HD 
ENDROOT
BRANCH   3  15
HETATM   15  C   UNL     1     -11.758  14.390  66.799  1.00  0.00    -0.415 C  
BRANCH  15  16
HETATM   16  C   UNL     1     -10.753  13.243  66.498  1.00  0.00    -0.285 C  
BRANCH  16  17
HETATM   17  N   UNL     1      -9.937  12.800  67.641  1.00  0.00    -0.213 NA 
HETATM   18  C   UNL     1     -11.009  10.601  68.102  1.00  0.00    -0.321 C  
HETATM   19  C   UNL     1      -8.806  10.606  66.917  1.00  0.00    -0.143 C  
HETATM   20  C   UNL     1     -10.663  11.992  68.624  1.00  0.00    -0.236 C  
HETATM   21  C   UNL     1      -9.721   9.802  67.855  1.00  0.00    -0.168 C  
HETATM   22  C   UNL     1      -8.692  12.109  67.242  1.00  0.00    -0.182 C  
BRANCH  21  23
HETATM   23  C   UNL     1      -9.156   9.379  69.188  1.00  0.00    -0.148 A  
HETATM   24  N   UNL     1      -8.034   9.904  69.696  1.00  0.00    -0.145 NA 
HETATM   25  O   UNL     1      -8.030   9.559  71.041  1.00  0.00    -0.321 OA 
HETATM   26  C   UNL     1      -9.129   8.808  71.324  1.00  0.00    -0.234 A  
HETATM   27  C   UNL     1      -9.840   8.590  70.158  1.00  0.00    -0.184 A  
HETATM   28  C   UNL     1     -11.017   7.820  70.210  1.00  0.00    -0.252 A  
HETATM   29  C   UNL     1     -11.431   7.323  71.452  1.00  0.00    -0.294 A  
HETATM   30  C   UNL     1     -10.699   7.604  72.606  1.00  0.00    -0.321 A  
HETATM   31  C   UNL     1      -9.521   8.351  72.578  1.00  0.00    -0.360 A  
HETATM   32  F   UNL     1     -11.152   7.150  73.782  1.00  0.00    -0.328 F  
ENDBRANCH  21  23
ENDBRANCH  16  17
ENDBRANCH  15  16
ENDBRANCH   3  15
TORSDOF 4
ENDMDL
MODEL       11
REMARK 921   NORMALIZED FREE ENERGY PREDICTED BY IDOCK:   -7.78 KCAL/MOL
REMARK 922        TOTAL FREE ENERGY PREDICTED BY IDOCK:   -9.87 KCAL/MOL
REMARK 923 INTER-LIGAND FREE ENERGY PREDICTED BY IDOCK:   -9.32 KCAL/MOL
REMARK 924 INTRA-LIGAND FREE ENERGY PREDICTED BY IDOCK:   -0.54 KCAL/MOL
REMARK 927      BINDING AFFINITY PREDICTED BY RF-SCORE:    0.00 PKD
ROOT
HETATM    1  C   UNL     1     -11.508  15.589  64.090  1.00  0.00    -0.063 C  
HETATM    2  C   UNL     1     -11.154  16.139  65.446  1.00  0.00    -0.122 C  
HETATM    3  C   UNL     1     -11.345  15.507  66.622  1.00  0.00    -0.034 C  
HETATM    4  C   UNL     1     -10.884  16.219  67.844  1.00  0.00    -0.330 C  
HETATM    5  O   UNL     1      -8.285  19.353  65.781  1.00  0.00    -0.439 OA 
HETATM    6  C   UNL     1      -9.630  19.417  66.248  1.00  0.00    -0.375 C  
HETATM    7  O   UNL     1     -11.042  15.706  68.953  1.00  0.00    -0.253 OA 
HETATM    8  N   UNL     1     -10.297  17.455  67.667  1.00  0.00    -0.342 N  
HETATM    9  C   UNL     1      -9.975  18.196  68.882  1.00  0.00    -0.338 C  
HETATM   10  N   UNL     1     -10.624  17.400  65.346  1.00  0.00    -0.631 NA 
HETATM   11  C   UNL     1      -9.113  19.427  68.671  1.00  0.00    -0.423 C  
HETATM   12  C   UNL     1     -10.244  18.016  66.415  1.00  0.00    -0.393 C  
HETATM   13  C   UNL     1      -9.676  20.244  67.522  1.00  0.00    -0.575 C  
HETATM   14  H   UNL     1      -8.255  18.836  64.984  1.00  0.00     0.000 HD 
ENDROOT
BRANCH   3  15
HETATM   15  C   UNL     1     -11.891  14.119  66.868  1.00  0.00    -0.458 C  
BRANCH  15  16
HETATM   16  C   UNL     1     -11.010  12.968  66.304  1.00  0.00    -0.284 C  
BRANCH  16  17
HETATM   17  N   UNL     1     -10.015  12.417  67.238  1.00  0.00    -0.205 NA 
HETATM   18  C   UNL     1     -11.486  10.947  68.606  1.00  0.00    -0.380 C  
HETATM   19  C   UNL     1     -10.025   9.868  66.886  1.00  0.00    -0.268 C  
HETATM   20  C   UNL     1     -10.534  12.139  68.580  1.00  0.00    -0.233 C  
HETATM   21  C   UNL     1     -10.724   9.665  68.240  1.00  0.00    -0.262 C  
HETATM   22  C   UNL     1      -9.313  11.225  66.714  1.00  0.00    -0.177 C  
BRANCH  21  23
HETATM   23  C   UNL     1      -9.868   9.263  69.415  1.00  0.00    -0.174 A  
HETATM   24  N   UNL     1      -8.661   9.796  69.646  1.00  0.00    -0.183 NA 
HETATM   25  O   UNL     1      -8.349   9.473  70.959  1.00  0.00    -0.294 OA 
HETATM   26  C   UNL     1      -9.351   8.725  71.497  1.00  0.00    -0.267 A  
HETATM   27  C   UNL     1     -10.309   8.488  70.528  1.00  0.00    -0.226 A  
HETATM   28  C   UNL     1     -11.440   7.719  70.859  1.00  0.00    -0.294 A  
HETATM   29  C   UNL     1     -11.557   7.242  72.170  1.00  0.00    -0.324 A  
HETATM   30  C   UNL     1     -10.583   7.541  73.122  1.00  0.00    -0.388 A  
HETATM   31  C   UNL     1      -9.445   8.287  72.814  1.00  0.00    -0.343 A  
HETATM   32  F   UNL     1     -10.754   7.105  74.377  1.00  0.00    -0.248 F  
ENDBRANCH  21  23
ENDBRANCH  16  17
ENDBRANCH  15  16
ENDBRANCH   3  15
TORSDOF 4
ENDMDL
MODEL       12
REMARK 921   NORMALIZED FREE ENERGY PREDICTED BY IDOCK:   -7.73 KCAL/MOL
REMARK 922        TOTAL FREE ENERGY PREDICTED BY IDOCK:   -9.81 KCAL/MOL
REMARK 923 INTER-LIGAND FREE ENERGY PREDICTED BY IDOCK:   -9.46 KCAL/MOL
REMARK 924 INTRA-LIGAND FREE ENERGY PREDICTED BY IDOCK:   -0.35 KCAL/MOL
REMARK 927      BINDING AFFINITY PREDICTED BY RF-SCORE:    0.00 PKD
ROOT
HETATM    1  C   UNL     1      -7.763  10.803  68.882  1.00  0.00    -0.129 C  
HETATM    2  C   UNL     1      -8.686   9.613  68.856  1.00  0.00    -0.132 C  
HETATM    3  C   UNL     1      -9.424   9.217  67.799  1.00  0.00    -0.160 C  
HETATM    4  C   UNL     1     -10.239   7.985  67.978  1.00  0.00    -0.210 C  
HETATM    5  O   UNL     1      -8.215   6.462  71.776  1.00  0.00    -0.112 OA 
HETATM    6  C   UNL     1      -9.404   7.227  71.595  1.00  0.00    -0.151 C  
HETATM    7  O   UNL     1     -10.948   7.576  67.058  1.00  0.00    -0.306 OA 
HETATM    8  N   UNL     1     -10.163   7.356  69.204  1.00  0.00    -0.191 N  
HETATM    9  C   UNL     1     -11.070   6.231  69.407  1.00  0.00    -0.410 C  
HETATM   10  N   UNL     1      -8.709   8.977  70.071  1.00  0.00    -0.143 NA 
HETATM   11  C   UNL     1     -10.798   5.407  70.652  1.00  0.00    -0.193 C  
HETATM   12  C   UNL     1      -9.435   7.920  70.221  1.00  0.00    -0.163 C  
HETATM   13  C   UNL     1     -10.611   6.336  71.839  1.00  0.00    -0.258 C  
HETATM   14  H   UNL     1      -7.460   7.019  71.623  1.00  0.00     0.000 HD 
ENDROOT
BRANCH   3  15
HETATM   15  C   UNL     1      -9.470   9.808  66.408  1.00  0.00    -0.237 C  
BRANCH  15  16
HETATM   16  C   UNL     1     -10.477  10.981  66.237  1.00  0.00    -0.254 C  
BRANCH  16  17
HETATM   17  N   UNL     1      -9.908  12.232  65.708  1.00  0.00    -0.251 NA 
HETATM   18  C   UNL     1     -11.817  13.774  66.119  1.00  0.00    -0.424 C  
HETATM   19  C   UNL     1      -9.860  13.894  67.671  1.00  0.00    -0.236 C  
HETATM   20  C   UNL     1     -10.890  13.129  65.094  1.00  0.00    -0.304 C  
HETATM   21  C   UNL     1     -11.011  14.697  67.044  1.00  0.00    -0.317 C  
HETATM   22  C   UNL     1      -9.097  12.974  66.696  1.00  0.00    -0.176 C  
BRANCH  21  23
HETATM   23  C   UNL     1     -10.655  15.949  66.282  1.00  0.00    -0.298 A  
HETATM   24  N   UNL     1     -10.906  16.095  64.975  1.00  0.00    -0.584 NA 
HETATM   25  O   UNL     1     -10.789  17.454  64.717  1.00  0.00    -0.846 OA 
HETATM   26  C   UNL     1     -10.439  18.109  65.858  1.00  0.00    -0.283 A  
HETATM   27  C   UNL     1     -10.257  17.185  66.871  1.00  0.00    -0.315 A  
HETATM   28  C   UNL     1      -9.877  17.639  68.148  1.00  0.00    -0.318 A  
HETATM   29  C   UNL     1      -9.720  19.016  68.344  1.00  0.00    -0.442 A  
HETATM   30  C   UNL     1      -9.954  19.910  67.300  1.00  0.00    -0.421 A  
HETATM   31  C   UNL     1     -10.315  19.485  66.021  1.00  0.00    -0.604 A  
HETATM   32  F   UNL     1      -9.838  21.224  67.538  1.00  0.00    -0.599 F  
ENDBRANCH  21  23
ENDBRANCH  16  17
ENDBRANCH  15  16
ENDBRANCH   3  15
TORSDOF 4
ENDMDL
MODEL       13
REMARK 921   NORMALIZED FREE ENERGY PREDICTED BY IDOCK:   -7.72 KCAL/MOL
REMARK 922        TOTAL FREE ENERGY PREDICTED BY IDOCK:   -9.80 KCAL/MOL
REMARK 923 INTER-LIGAND FREE ENERGY PREDICTED BY IDOCK:   -9.08 KCAL/MOL
REMARK 924 INTRA-LIGAND FREE ENERGY PREDICTED BY IDOCK:   -0.72 KCAL/MOL
REMARK 927      BINDING AFFINITY PREDICTED BY RF-SCORE:    0.00 PKD
ROOT
HETATM    1  C   UNL     1      -9.763   8.716  66.519  1.00  0.00    -0.325 C  
HETATM    2  C   UNL     1     -10.432   9.182  67.785  1.00  0.00    -0.247 C  
HETATM    3  C   UNL     1     -11.020  10.383  67.965  1.00  0.00    -0.347 C  
HETATM    4  C   UNL     1     -11.660  10.622  69.286  1.00  0.00    -0.275 C  
HETATM    5  O   UNL     1     -11.732   6.289  70.721  1.00  0.00    -0.340 OA 
HETATM    6  C   UNL     1     -10.805   7.341  70.977  1.00  0.00    -0.239 C  
HETATM    7  O   UNL     1     -12.200  11.703  69.523  1.00  0.00    -0.271 OA 
HETATM    8  N   UNL     1     -11.602   9.595  70.206  1.00  0.00    -0.233 N  
HETATM    9  C   UNL     1     -12.115   9.894  71.538  1.00  0.00    -0.410 C  
HETATM   10  N   UNL     1     -10.354   8.228  68.767  1.00  0.00    -0.211 NA 
HETATM   11  C   UNL     1     -12.272   8.691  72.449  1.00  0.00    -0.419 C  
HETATM   12  C   UNL     1     -10.896   8.453  69.917  1.00  0.00    -0.207 C  
HETATM   13  C   UNL     1     -11.008   7.851  72.394  1.00  0.00    -0.386 C  
HETATM   14  H   UNL     1     -11.605   5.970  69.835  1.00  0.00     0.000 HD 
ENDROOT
BRANCH   3  15
HETATM   15  C   UNL     1     -11.196  11.503  66.965  1.00  0.00    -0.365 C  
BRANCH  15  16
HETATM   16  C   UNL     1     -10.045  12.548  66.954  1.00  0.00    -0.225 C  
BRANCH  16  17
HETATM   17  N   UNL     1     -10.348  13.832  67.606  1.00  0.00    -0.237 NA 
HETATM   18  C   UNL     1      -8.650  15.281  66.505  1.00  0.00    -0.264 C  
HETATM   19  C   UNL     1     -11.021  15.458  65.729  1.00  0.00    -0.311 C  
HETATM   20  C   UNL     1      -9.183  14.697  67.810  1.00  0.00    -0.196 C  
HETATM   21  C   UNL     1      -9.696  16.221  65.889  1.00  0.00    -0.354 C  
HETATM   22  C   UNL     1     -11.427  14.591  66.938  1.00  0.00    -0.364 C  
BRANCH  21  23
HETATM   23  C   UNL     1      -9.719  17.502  66.686  1.00  0.00    -0.299 A  
HETATM   24  N   UNL     1     -10.706  17.804  67.539  1.00  0.00    -0.353 NA 
HETATM   25  O   UNL     1     -10.219  18.836  68.330  1.00  0.00    -0.368 OA 
HETATM   26  C   UNL     1      -8.961  19.166  67.929  1.00  0.00    -0.303 A  
HETATM   27  C   UNL     1      -8.623  18.402  66.826  1.00  0.00    -0.285 A  
HETATM   28  C   UNL     1      -7.361  18.585  66.231  1.00  0.00    -0.290 A  
HETATM   29  C   UNL     1      -6.489  19.522  66.797  1.00  0.00    -0.193 A  
HETATM   30  C   UNL     1      -6.862  20.240  67.934  1.00  0.00    -0.291 A  
HETATM   31  C   UNL     1      -8.113  20.089  68.533  1.00  0.00    -0.116 A  
HETATM   32  F   UNL     1      -5.982  21.094  68.474  1.00  0.00    -0.354 F  
ENDBRANCH  21  23
ENDBRANCH  16  17
ENDBRANCH  15  16
ENDBRANCH   3  15
TORSDOF 4
ENDMDL
MODEL       14
REMARK 921   NORMALIZED FREE ENERGY PREDICTED BY IDOCK:   -7.66 KCAL/MOL
REMARK 922        TOTAL FREE ENERGY PREDICTED BY IDOCK:   -9.72 KCAL/MOL
REMARK 923 INTER-LIGAND FREE ENERGY PREDICTED BY IDOCK:   -9.29 KCAL/MOL
REMARK 924 INTRA-LIGAND FREE ENERGY PREDICTED BY IDOCK:   -0.43 KCAL/MOL
REMARK 927      BINDING AFFINITY PREDICTED BY RF-SCORE:    0.00 PKD
ROOT
HETATM    1  C   UNL     1      -9.535  11.684  68.185  1.00  0.00    -0.191 C  
HETATM    2  C   UNL     1     -10.571  11.415  69.244  1.00  0.00    -0.108 C  
HETATM    3  C   UNL     1     -11.450  12.317  69.726  1.00  0.00    -0.237 C  
HETATM    4  C   UNL     1     -12.418  11.826  70.744  1.00  0.00    -0.312 C  
HETATM    5  O   UNL     1     -11.794   7.355  70.074  1.00  0.00    -0.505 OA 
HETATM    6  C   UNL     1     -11.228   8.241  71.034  1.00  0.00    -0.259 C  
HETATM    7  O   UNL     1     -13.238  12.600  71.238  1.00  0.00    -0.216 OA 
HETATM    8  N   UNL     1     -12.334  10.496  71.099  1.00  0.00    -0.374 N  
HETATM    9  C   UNL     1     -13.199  10.065  72.193  1.00  0.00    -0.390 C  
HETATM   10  N   UNL     1     -10.499  10.121  69.690  1.00  0.00    -0.236 NA 
HETATM   11  C   UNL     1     -13.273   8.563  72.397  1.00  0.00    -0.319 C  
HETATM   12  C   UNL     1     -11.331   9.710  70.588  1.00  0.00    -0.312 C  
HETATM   13  C   UNL     1     -11.870   7.985  72.388  1.00  0.00    -0.429 C  
HETATM   14  H   UNL     1     -11.394   7.515  69.227  1.00  0.00     0.000 HD 
ENDROOT
BRANCH   3  15
HETATM   15  C   UNL     1     -11.650  13.756  69.306  1.00  0.00    -0.362 C  
BRANCH  15  16
HETATM   16  C   UNL     1     -11.913  13.956  67.787  1.00  0.00    -0.355 C  
BRANCH  16  17
HETATM   17  N   UNL     1     -11.522  15.268  67.244  1.00  0.00    -0.281 NA 
HETATM   18  C   UNL     1      -9.277  15.510  68.291  1.00  0.00    -0.188 C  
HETATM   19  C   UNL     1      -9.381  14.877  65.873  1.00  0.00    -0.216 C  
HETATM   20  C   UNL     1     -10.689  16.070  68.143  1.00  0.00    -0.311 C  
HETATM   21  C   UNL     1      -8.542  15.590  66.945  1.00  0.00    -0.289 C  
HETATM   22  C   UNL     1     -10.891  15.188  65.910  1.00  0.00    -0.339 C  
BRANCH  21  23
HETATM   23  C   UNL     1      -8.160  17.028  66.692  1.00  0.00    -0.262 A  
HETATM   24  N   UNL     1      -8.710  17.759  65.714  1.00  0.00    -0.405 NA 
HETATM   25  O   UNL     1      -8.402  19.080  66.011  1.00  0.00    -0.449 OA 
HETATM   26  C   UNL     1      -7.647  19.131  67.142  1.00  0.00    -0.232 A  
HETATM   27  C   UNL     1      -7.390  17.842  67.573  1.00  0.00    -0.209 A  
HETATM   28  C   UNL     1      -6.610  17.651  68.729  1.00  0.00    -0.218 A  
HETATM   29  C   UNL     1      -6.143  18.783  69.408  1.00  0.00    -0.276 A  
HETATM   30  C   UNL     1      -6.463  20.063  68.956  1.00  0.00    -0.323 A  
HETATM   31  C   UNL     1      -7.220  20.278  67.804  1.00  0.00    -0.336 A  
HETATM   32  F   UNL     1      -6.036  21.120  69.659  1.00  0.00    -0.354 F  
ENDBRANCH  21  23
ENDBRANCH  16  17
ENDBRANCH  15  16
ENDBRANCH   3  15
TORSDOF 4
ENDMDL
MODEL       15
REMARK 921   NORMALIZED FREE ENERGY PREDICTED BY IDOCK:   -7.54 KCAL/MOL
REMARK 922        TOTAL FREE ENERGY PREDICTED BY IDOCK:   -9.58 KCAL/MOL
REMARK 923 INTER-LIGAND FREE ENERGY PREDICTED BY IDOCK:   -9.01 KCAL/MOL
REMARK 924 INTRA-LIGAND FREE ENERGY PREDICTED BY IDOCK:   -0.56 KCAL/MOL
REMARK 927      BINDING AFFINITY PREDICTED BY RF-SCORE:    0.00 PKD
ROOT
HETATM    1  C   UNL     1      -7.791  10.331  69.835  1.00  0.00    -0.119 C  
HETATM    2  C   UNL     1      -8.744   9.214  70.171  1.00  0.00    -0.181 C  
HETATM    3  C   UNL     1      -9.580   8.609  69.303  1.00  0.00    -0.166 C  
HETATM    4  C   UNL     1     -10.408   7.497  69.840  1.00  0.00    -0.223 C  
HETATM    5  O   UNL     1      -8.104   6.840  73.725  1.00  0.00    -0.105 OA 
HETATM    6  C   UNL     1      -9.284   7.593  73.457  1.00  0.00    -0.275 C  
HETATM    7  O   UNL     1     -11.205   6.911  69.106  1.00  0.00    -0.193 OA 
HETATM    8  N   UNL     1     -10.243   7.178  71.173  1.00  0.00    -0.192 N  
HETATM    9  C   UNL     1     -11.158   6.178  71.714  1.00  0.00    -0.274 C  
HETATM   10  N   UNL     1      -8.677   8.891  71.502  1.00  0.00    -0.309 NA 
HETATM   11  C   UNL     1     -10.801   5.667  73.097  1.00  0.00    -0.321 C  
HETATM   12  C   UNL     1      -9.415   7.936  71.962  1.00  0.00    -0.174 C  
HETATM   13  C   UNL     1     -10.488   6.844  74.003  1.00  0.00    -0.277 C  
HETATM   14  H   UNL     1      -7.351   7.308  73.384  1.00  0.00     0.000 HD 
ENDROOT
BRANCH   3  15
HETATM   15  C   UNL     1      -9.731   8.851  67.818  1.00  0.00    -0.196 C  
BRANCH  15  16
HETATM   16  C   UNL     1     -10.656  10.044  67.447  1.00  0.00    -0.271 C  
BRANCH  16  17
HETATM   17  N   UNL     1      -9.987  11.350  67.327  1.00  0.00    -0.192 NA 
HETATM   18  C   UNL     1     -11.480  12.442  65.662  1.00  0.00    -0.412 C  
HETATM   19  C   UNL     1     -11.708  13.117  68.059  1.00  0.00    -0.394 C  
HETATM   20  C   UNL     1     -10.073  11.953  65.995  1.00  0.00    -0.231 C  
HETATM   21  C   UNL     1     -11.870  13.588  66.605  1.00  0.00    -0.450 C  
HETATM   22  C   UNL     1     -10.415  12.327  68.351  1.00  0.00    -0.233 C  
BRANCH  21  23
HETATM   23  C   UNL     1     -11.124  14.830  66.186  1.00  0.00    -0.339 A  
HETATM   24  N   UNL     1     -10.962  15.177  64.903  1.00  0.00    -0.416 NA 
HETATM   25  O   UNL     1     -10.570  16.509  64.917  1.00  0.00    -0.689 OA 
HETATM   26  C   UNL     1     -10.470  16.943  66.203  1.00  0.00    -0.272 A  
HETATM   27  C   UNL     1     -10.730  15.887  67.058  1.00  0.00    -0.292 A  
HETATM   28  C   UNL     1     -10.670  16.103  68.448  1.00  0.00    -0.298 A  
HETATM   29  C   UNL     1     -10.369  17.391  68.907  1.00  0.00    -0.340 A  
HETATM   30  C   UNL     1     -10.153  18.432  68.004  1.00  0.00    -0.368 A  
HETATM   31  C   UNL     1     -10.190  18.239  66.623  1.00  0.00    -0.399 A  
HETATM   32  F   UNL     1      -9.912  19.660  68.483  1.00  0.00    -0.415 F  
ENDBRANCH  21  23
ENDBRANCH  16  17
ENDBRANCH  15  16
ENDBRANCH   3  15
TORSDOF 4
ENDMDL
MODEL       16
REMARK 921   NORMALIZED FREE ENERGY PREDICTED BY IDOCK:   -7.53 KCAL/MOL
REMARK 922        TOTAL FREE ENERGY PREDICTED BY IDOCK:   -9.56 KCAL/MOL
REMARK 923 INTER-LIGAND FREE ENERGY PREDICTED BY IDOCK:   -8.94 KCAL/MOL
REMARK 924 INTRA-LIGAND FREE ENERGY PREDICTED BY IDOCK:   -0.63 KCAL/MOL
REMARK 927      BINDING AFFINITY PREDICTED BY RF-SCORE:    0.00 PKD
ROOT
HETATM    1  C   UNL     1     -11.005  14.148  64.683  1.00  0.00    -0.393 C  
HETATM    2  C   UNL     1     -10.905  15.040  65.893  1.00  0.00    -0.337 C  
HETATM    3  C   UNL     1     -11.338  14.732  67.132  1.00  0.00    -0.363 C  
HETATM    4  C   UNL     1     -11.102  15.747  68.193  1.00  0.00    -0.341 C  
HETATM    5  O   UNL     1      -8.060  18.293  65.935  1.00  0.00    -0.504 OA 
HETATM    6  C   UNL     1      -9.467  18.447  66.098  1.00  0.00    -0.156 C  
HETATM    7  O   UNL     1     -11.487  15.536  69.344  1.00  0.00    -0.290 OA 
HETATM    8  N   UNL     1     -10.456  16.907  67.819  1.00  0.00    -0.330 N  
HETATM    9  C   UNL     1     -10.353  17.945  68.839  1.00  0.00    -0.268 C  
HETATM   10  N   UNL     1     -10.328  16.242  65.575  1.00  0.00    -0.509 NA 
HETATM   11  C   UNL     1      -9.431  19.098  68.489  1.00  0.00    -0.444 C  
HETATM   12  C   UNL     1     -10.144  17.124  66.500  1.00  0.00    -0.310 C  
HETATM   13  C   UNL     1      -9.736  19.575  67.080  1.00  0.00    -0.447 C  
HETATM   14  H   UNL     1      -7.892  17.588  65.321  1.00  0.00     0.000 HD 
ENDROOT
BRANCH   3  15
HETATM   15  C   UNL     1     -11.962  13.443  67.618  1.00  0.00    -0.362 C  
BRANCH  15  16
HETATM   16  C   UNL     1     -10.950  12.291  67.876  1.00  0.00    -0.224 C  
BRANCH  16  17
HETATM   17  N   UNL     1     -11.547  10.978  68.172  1.00  0.00    -0.496 NA 
HETATM   18  C   UNL     1      -9.698   9.957  69.488  1.00  0.00    -0.238 C  
HETATM   19  C   UNL     1     -11.692  10.808  70.735  1.00  0.00    -0.400 C  
HETATM   20  C   UNL     1     -10.582   9.878  68.247  1.00  0.00    -0.229 C  
HETATM   21  C   UNL     1     -10.554   9.775  70.749  1.00  0.00    -0.371 C  
HETATM   22  C   UNL     1     -12.404  10.979  69.377  1.00  0.00    -0.153 C  
BRANCH  21  23
HETATM   23  C   UNL     1     -10.934   8.320  70.867  1.00  0.00    -0.246 A  
HETATM   24  N   UNL     1     -12.144   7.859  70.525  1.00  0.00     0.018 NA 
HETATM   25  O   UNL     1     -12.007   6.481  70.419  1.00  0.00    -0.397 OA 
HETATM   26  C   UNL     1     -10.731   6.122  70.726  1.00  0.00    -0.266 A  
HETATM   27  C   UNL     1     -10.023   7.249  71.103  1.00  0.00    -0.186 A  
HETATM   28  C   UNL     1      -8.673   7.113  71.478  1.00  0.00    -0.119 A  
HETATM   29  C   UNL     1      -8.097   5.837  71.433  1.00  0.00    -0.114 A  
HETATM   30  C   UNL     1      -8.843   4.738  71.007  1.00  0.00    -0.117 A  
HETATM   31  C   UNL     1     -10.186   4.845  70.646  1.00  0.00    -0.282 A  
HETATM   32  F   UNL     1      -8.243   3.543  70.934  1.00  0.00    -0.061 F  
ENDBRANCH  21  23
ENDBRANCH  16  17
ENDBRANCH  15  16
ENDBRANCH   3  15
TORSDOF 4
ENDMDL
MODEL       17
REMARK 921   NORMALIZED FREE ENERGY PREDICTED BY IDOCK:   -7.52 KCAL/MOL
REMARK 922        TOTAL FREE ENERGY PREDICTED BY IDOCK:   -9.56 KCAL/MOL
REMARK 923 INTER-LIGAND FREE ENERGY PREDICTED BY IDOCK:   -8.79 KCAL/MOL
REMARK 924 INTRA-LIGAND FREE ENERGY PREDICTED BY IDOCK:   -0.76 KCAL/MOL
REMARK 927      BINDING AFFINITY PREDICTED BY RF-SCORE:    0.00 PKD
ROOT
HETATM    1  C   UNL     1     -11.700  13.082  67.731  1.00  0.00    -0.405 C  
HETATM    2  C   UNL     1     -11.278  11.925  68.598  1.00  0.00    -0.257 C  
HETATM    3  C   UNL     1     -10.088  11.293  68.536  1.00  0.00    -0.210 C  
HETATM    4  C   UNL     1      -9.863  10.197  69.517  1.00  0.00    -0.232 C  
HETATM    5  O   UNL     1     -13.311  11.187  72.339  1.00  0.00    -0.600 OA 
HETATM    6  C   UNL     1     -13.222  10.251  71.269  1.00  0.00    -0.356 C  
HETATM    7  O   UNL     1      -8.805   9.567  69.505  1.00  0.00    -0.153 OA 
HETATM    8  N   UNL     1     -10.885   9.931  70.405  1.00  0.00    -0.298 N  
HETATM    9  C   UNL     1     -10.702   8.769  71.268  1.00  0.00    -0.269 C  
HETATM   10  N   UNL     1     -12.278  11.565  69.464  1.00  0.00    -0.263 NA 
HETATM   11  C   UNL     1     -11.710   8.642  72.394  1.00  0.00    -0.393 C  
HETATM   12  C   UNL     1     -12.079  10.600  70.298  1.00  0.00    -0.338 C  
HETATM   13  C   UNL     1     -13.109   8.848  71.842  1.00  0.00    -0.436 C  
HETATM   14  H   UNL     1     -13.382  12.065  71.981  1.00  0.00     0.000 HD 
ENDROOT
BRANCH   3  15
HETATM   15  C   UNL     1      -8.901  11.604  67.653  1.00  0.00    -0.159 C  
BRANCH  15  16
HETATM   16  C   UNL     1      -7.740  12.350  68.370  1.00  0.00    -0.144 C  
BRANCH  16  17
HETATM   17  N   UNL     1      -7.268  13.576  67.703  1.00  0.00    -0.157 NA 
HETATM   18  C   UNL     1      -8.857  15.227  68.676  1.00  0.00    -0.188 C  
HETATM   19  C   UNL     1      -6.524  15.177  69.574  1.00  0.00    -0.151 C  
HETATM   20  C   UNL     1      -8.323  14.551  67.416  1.00  0.00    -0.200 C  
HETATM   21  C   UNL     1      -7.750  16.069  69.325  1.00  0.00    -0.223 C  
HETATM   22  C   UNL     1      -6.150  14.237  68.410  1.00  0.00    -0.102 C  
BRANCH  21  23
HETATM   23  C   UNL     1      -7.550  17.317  68.500  1.00  0.00    -0.251 A  
HETATM   24  N   UNL     1      -6.366  17.650  67.969  1.00  0.00    -0.164 NA 
HETATM   25  O   UNL     1      -6.640  18.615  67.010  1.00  0.00    -0.186 OA 
HETATM   26  C   UNL     1      -7.975  18.877  66.991  1.00  0.00    -0.252 A  
HETATM   27  C   UNL     1      -8.595  18.137  67.983  1.00  0.00    -0.272 A  
HETATM   28  C   UNL     1      -9.986  18.259  68.157  1.00  0.00    -0.377 A  
HETATM   29  C   UNL     1     -10.690  19.114  67.300  1.00  0.00    -0.585 A  
HETATM   30  C   UNL     1     -10.024  19.809  66.290  1.00  0.00    -0.478 A  
HETATM   31  C   UNL     1      -8.644  19.717  66.107  1.00  0.00    -0.367 A  
HETATM   32  F   UNL     1     -10.739  20.581  65.461  1.00  0.00    -0.328 F  
ENDBRANCH  21  23
ENDBRANCH  16  17
ENDBRANCH  15  16
ENDBRANCH   3  15
TORSDOF 4
ENDMDL
MODEL       18
REMARK 921   NORMALIZED FREE ENERGY PREDICTED BY IDOCK:   -7.52 KCAL/MOL
REMARK 922        TOTAL FREE ENERGY PREDICTED BY IDOCK:   -9.55 KCAL/MOL
REMARK 923 INTER-LIGAND FREE ENERGY PREDICTED BY IDOCK:   -9.29 KCAL/MOL
REMARK 924 INTRA-LIGAND FREE ENERGY PREDICTED BY IDOCK:   -0.26 KCAL/MOL
REMARK 927      BINDING AFFINITY PREDICTED BY RF-SCORE:    0.00 PKD
ROOT
HETATM    1  C   UNL     1     -11.603  15.086  70.957  1.00  0.00    -0.367 C  
HETATM    2  C   UNL     1     -11.231  15.582  69.585  1.00  0.00    -0.300 C  
HETATM    3  C   UNL     1     -11.435  14.917  68.429  1.00  0.00    -0.338 C  
HETATM    4  C   UNL     1     -11.027  15.612  67.179  1.00  0.00    -0.270 C  
HETATM    5  O   UNL     1     -10.575  19.803  68.929  1.00  0.00    -0.526 OA 
HETATM    6  C   UNL     1      -9.608  18.786  68.683  1.00  0.00    -0.387 C  
HETATM    7  O   UNL     1     -11.170  15.055  66.090  1.00  0.00    -0.342 OA 
HETATM    8  N   UNL     1     -10.485  16.874  67.311  1.00  0.00    -0.315 N  
HETATM    9  C   UNL     1      -9.969  17.483  66.090  1.00  0.00    -0.270 C  
HETATM   10  N   UNL     1     -10.625  16.810  69.650  1.00  0.00    -0.297 NA 
HETATM   11  C   UNL     1      -9.610  18.953  66.210  1.00  0.00    -0.344 C  
HETATM   12  C   UNL     1     -10.258  17.396  68.559  1.00  0.00    -0.369 C  
HETATM   13  C   UNL     1      -8.782  19.167  67.465  1.00  0.00    -0.322 C  
HETATM   14  H   UNL     1     -11.091  19.565  69.691  1.00  0.00     0.000 HD 
ENDROOT
BRANCH   3  15
HETATM   15  C   UNL     1     -12.109  13.580  68.218  1.00  0.00    -0.295 C  
BRANCH  15  16
HETATM   16  C   UNL     1     -11.136  12.370  68.134  1.00  0.00    -0.247 C  
BRANCH  16  17
HETATM   17  N   UNL     1     -11.731  11.057  68.431  1.00  0.00    -0.501 NA 
HETATM   18  C   UNL     1      -9.833   9.993  69.638  1.00  0.00    -0.261 C  
HETATM   19  C   UNL     1     -11.758  10.836  70.994  1.00  0.00    -0.242 C  
HETATM   20  C   UNL     1     -10.775   9.948  68.439  1.00  0.00    -0.232 C  
HETATM   21  C   UNL     1     -10.630   9.793  70.935  1.00  0.00    -0.344 C  
HETATM   22  C   UNL     1     -12.530  11.041  69.675  1.00  0.00    -0.140 C  
BRANCH  21  23
HETATM   23  C   UNL     1     -11.018   8.338  71.041  1.00  0.00    -0.245 A  
HETATM   24  N   UNL     1     -11.377   7.607  69.978  1.00  0.00    -0.138 NA 
HETATM   25  O   UNL     1     -11.303   6.283  70.387  1.00  0.00    -0.345 OA 
HETATM   26  C   UNL     1     -10.931   6.228  71.695  1.00  0.00    -0.261 A  
HETATM   27  C   UNL     1     -10.818   7.516  72.187  1.00  0.00    -0.282 A  
HETATM   28  C   UNL     1     -10.453   7.702  73.534  1.00  0.00    -0.284 A  
HETATM   29  C   UNL     1     -10.198   6.568  74.315  1.00  0.00    -0.373 A  
HETATM   30  C   UNL     1     -10.287   5.292  73.761  1.00  0.00    -0.245 A  
HETATM   31  C   UNL     1     -10.664   5.080  72.434  1.00  0.00    -0.262 A  
HETATM   32  F   UNL     1      -9.991   4.234  74.528  1.00  0.00    -0.145 F  
ENDBRANCH  21  23
ENDBRANCH  16  17
ENDBRANCH  15  16
ENDBRANCH   3  15
TORSDOF 4
ENDMDL
MODEL       19
REMARK 921   NORMALIZED FREE ENERGY PREDICTED BY IDOCK:   -7.43 KCAL/MOL
REMARK 922        TOTAL FREE ENERGY PREDICTED BY IDOCK:   -9.44 KCAL/MOL
REMARK 923 INTER-LIGAND FREE ENERGY PREDICTED BY IDOCK:   -8.71 KCAL/MOL
REMARK 924 INTRA-LIGAND FREE ENERGY PREDICTED BY IDOCK:   -0.73 KCAL/MOL
REMARK 927      BINDING AFFINITY PREDICTED BY RF-SCORE:    0.00 PKD
ROOT
HETATM    1  C   UNL     1      -7.849  15.163  69.525  1.00  0.00    -0.186 C  
HETATM    2  C   UNL     1      -8.208  16.370  68.699  1.00  0.00    -0.223 C  
HETATM    3  C   UNL     1      -9.457  16.830  68.485  1.00  0.00    -0.245 C  
HETATM    4  C   UNL     1      -9.582  18.067  67.668  1.00  0.00    -0.271 C  
HETATM    5  O   UNL     1      -5.212  19.371  67.866  1.00  0.00    -0.170 OA 
HETATM    6  C   UNL     1      -5.922  18.639  66.871  1.00  0.00    -0.154 C  
HETATM    7  O   UNL     1     -10.694  18.533  67.420  1.00  0.00    -0.425 OA 
HETATM    8  N   UNL     1      -8.411  18.636  67.209  1.00  0.00    -0.263 N  
HETATM    9  C   UNL     1      -8.559  19.768  66.301  1.00  0.00    -0.364 C  
HETATM   10  N   UNL     1      -7.089  16.948  68.157  1.00  0.00    -0.160 NA 
HETATM   11  C   UNL     1      -7.278  20.527  66.011  1.00  0.00    -0.174 C  
HETATM   12  C   UNL     1      -7.210  18.011  67.433  1.00  0.00    -0.193 C  
HETATM   13  C   UNL     1      -6.174  19.541  65.673  1.00  0.00    -0.238 C  
HETATM   14  H   UNL     1      -5.054  18.808  68.614  1.00  0.00     0.000 HD 
ENDROOT
BRANCH   3  15
HETATM   15  C   UNL     1     -10.762  16.305  69.040  1.00  0.00    -0.300 C  
BRANCH  15  16
HETATM   16  C   UNL     1     -11.494  15.288  68.120  1.00  0.00    -0.346 C  
BRANCH  16  17
HETATM   17  N   UNL     1     -10.716  14.801  66.968  1.00  0.00    -0.294 NA 
HETATM   18  C   UNL     1     -11.419  12.414  66.957  1.00  0.00    -0.423 C  
HETATM   19  C   UNL     1     -12.425  13.939  65.250  1.00  0.00    -0.504 C  
HETATM   20  C   UNL     1     -10.271  13.411  67.084  1.00  0.00    -0.247 C  
HETATM   21  C   UNL     1     -12.019  12.487  65.546  1.00  0.00    -0.500 C  
HETATM   22  C   UNL     1     -11.394  15.006  65.671  1.00  0.00    -0.297 C  
BRANCH  21  23
HETATM   23  C   UNL     1     -11.068  11.818  64.585  1.00  0.00    -0.303 A  
HETATM   24  N   UNL     1     -10.718  12.367  63.415  1.00  0.00    -0.425 NA 
HETATM   25  O   UNL     1      -9.592  11.673  62.993  1.00  0.00    -0.392 OA 
HETATM   26  C   UNL     1      -9.292  10.697  63.892  1.00  0.00    -0.267 A  
HETATM   27  C   UNL     1     -10.252  10.688  64.887  1.00  0.00    -0.395 A  
HETATM   28  C   UNL     1     -10.149   9.744  65.927  1.00  0.00    -0.314 A  
HETATM   29  C   UNL     1      -9.061   8.864  65.919  1.00  0.00    -0.271 A  
HETATM   30  C   UNL     1      -8.097   8.939  64.913  1.00  0.00    -0.144 A  
HETATM   31  C   UNL     1      -8.185   9.854  63.864  1.00  0.00    -0.156 A  
HETATM   32  F   UNL     1      -7.046   8.110  64.965  1.00  0.00    -0.066 F  
ENDBRANCH  21  23
ENDBRANCH  16  17
ENDBRANCH  15  16
ENDBRANCH   3  15
TORSDOF 4
ENDMDL
MODEL       20
REMARK 921   NORMALIZED FREE ENERGY PREDICTED BY IDOCK:   -7.42 KCAL/MOL
REMARK 922        TOTAL FREE ENERGY PREDICTED BY IDOCK:   -9.43 KCAL/MOL
REMARK 923 INTER-LIGAND FREE ENERGY PREDICTED BY IDOCK:   -8.80 KCAL/MOL
REMARK 924 INTRA-LIGAND FREE ENERGY PREDICTED BY IDOCK:   -0.63 KCAL/MOL
REMARK 927      BINDING AFFINITY PREDICTED BY RF-SCORE:    0.00 PKD
ROOT
HETATM    1  C   UNL     1     -10.988   6.535  67.495  1.00  0.00    -0.444 C  
HETATM    2  C   UNL     1     -10.399   6.812  68.853  1.00  0.00    -0.192 C  
HETATM    3  C   UNL     1      -9.314   7.575  69.096  1.00  0.00    -0.147 C  
HETATM    4  C   UNL     1      -8.927   7.750  70.522  1.00  0.00    -0.150 C  
HETATM    5  O   UNL     1     -12.808   6.247  72.396  1.00  0.00    -0.546 OA 
HETATM    6  C   UNL     1     -11.576   5.578  72.140  1.00  0.00    -0.058 C  
HETATM    7  O   UNL     1      -7.937   8.422  70.814  1.00  0.00    -0.091 OA 
HETATM    8  N   UNL     1      -9.714   7.123  71.466  1.00  0.00    -0.164 N  
HETATM    9  C   UNL     1      -9.243   7.194  72.846  1.00  0.00    -0.142 C  
HETATM   10  N   UNL     1     -11.098   6.162  69.837  1.00  0.00    -0.382 NA 
HETATM   11  C   UNL     1     -10.239   6.720  73.887  1.00  0.00    -0.396 C  
HETATM   12  C   UNL     1     -10.742   6.305  71.070  1.00  0.00    -0.259 C  
HETATM   13  C   UNL     1     -10.829   5.391  73.451  1.00  0.00    -0.347 C  
HETATM   14  H   UNL     1     -13.275   6.364  71.577  1.00  0.00     0.000 HD 
ENDROOT
BRANCH   3  15
HETATM   15  C   UNL     1      -8.476   8.361  68.113  1.00  0.00    -0.132 C  
BRANCH  15  16
HETATM   16  C   UNL     1      -9.147   9.658  67.582  1.00  0.00    -0.131 C  
BRANCH  16  17
HETATM   17  N   UNL     1      -9.229  10.769  68.545  1.00  0.00    -0.167 NA 
HETATM   18  C   UNL     1     -10.261  12.512  67.099  1.00  0.00    -0.225 C  
HETATM   19  C   UNL     1     -11.724  11.356  68.765  1.00  0.00    -0.404 C  
HETATM   20  C   UNL     1      -9.065  12.098  67.951  1.00  0.00    -0.185 C  
HETATM   21  C   UNL     1     -11.505  12.662  67.985  1.00  0.00    -0.366 C  
HETATM   22  C   UNL     1     -10.451  10.737  69.377  1.00  0.00    -0.200 C  
BRANCH  21  23
HETATM   23  C   UNL     1     -11.377  13.937  68.781  1.00  0.00    -0.277 A  
HETATM   24  N   UNL     1     -10.939  15.083  68.244  1.00  0.00    -0.261 NA 
HETATM   25  O   UNL     1     -11.296  16.082  69.139  1.00  0.00    -0.319 OA 
HETATM   26  C   UNL     1     -11.916  15.530  70.217  1.00  0.00    -0.374 A  
HETATM   27  C   UNL     1     -11.920  14.154  70.081  1.00  0.00    -0.400 A  
HETATM   28  C   UNL     1     -12.503  13.369  71.094  1.00  0.00    -0.414 A  
HETATM   29  C   UNL     1     -13.077  14.022  72.191  1.00  0.00    -0.501 A  
HETATM   30  C   UNL     1     -13.083  15.415  72.263  1.00  0.00    -0.405 A  
HETATM   31  C   UNL     1     -12.497  16.214  71.281  1.00  0.00    -0.091 A  
HETATM   32  F   UNL     1     -13.682  16.004  73.306  1.00  0.00    -0.634 F  
ENDBRANCH  21  23
ENDBRANCH  16  17
ENDBRANCH  15  16
ENDBRANCH   3  15
TORSDOF 4
ENDMDL
MODEL       21
REMARK 921   NORMALIZED FREE ENERGY PREDICTED BY IDOCK:   -7.41 KCAL/MOL
REMARK 922        TOTAL FREE ENERGY PREDICTED BY IDOCK:   -9.42 KCAL/MOL
REMARK 923 INTER-LIGAND FREE ENERGY PREDICTED BY IDOCK:   -8.80 KCAL/MOL
REMARK 924 INTRA-LIGAND FREE ENERGY PREDICTED BY IDOCK:   -0.62 KCAL/MOL
REMARK 927      BINDING AFFINITY PREDICTED BY RF-SCORE:    0.00 PKD
ROOT
HETATM    1  C   UNL     1     -10.861  11.813  63.766  1.00  0.00    -0.490 C  
HETATM    2  C   UNL     1     -10.899  11.423  65.220  1.00  0.00    -0.233 C  
HETATM    3  C   UNL     1     -11.468  12.142  66.209  1.00  0.00    -0.433 C  
HETATM    4  C   UNL     1     -11.427  11.549  67.573  1.00  0.00    -0.282 C  
HETATM    5  O   UNL     1     -10.293   7.298  66.356  1.00  0.00    -0.482 OA 
HETATM    6  C   UNL     1      -9.488   8.387  66.802  1.00  0.00    -0.197 C  
HETATM    7  O   UNL     1     -11.914  12.159  68.525  1.00  0.00    -0.320 OA 
HETATM    8  N   UNL     1     -10.818  10.318  67.703  1.00  0.00    -0.292 N  
HETATM    9  C   UNL     1     -10.667   9.815  69.065  1.00  0.00    -0.217 C  
HETATM   10  N   UNL     1     -10.250  10.234  65.430  1.00  0.00    -0.281 NA 
HETATM   11  C   UNL     1     -10.228   8.366  69.167  1.00  0.00    -0.217 C  
HETATM   12  C   UNL     1     -10.204   9.737  66.622  1.00  0.00    -0.226 C  
HETATM   13  C   UNL     1      -9.053   8.130  68.235  1.00  0.00    -0.135 C  
HETATM   14  H   UNL     1     -10.565   7.458  65.460  1.00  0.00     0.000 HD 
ENDROOT
BRANCH   3  15
HETATM   15  C   UNL     1     -12.231  13.444  66.109  1.00  0.00    -0.471 C  
BRANCH  15  16
HETATM   16  C   UNL     1     -11.359  14.677  65.738  1.00  0.00    -0.340 C  
BRANCH  16  17
HETATM   17  N   UNL     1     -10.890  15.486  66.875  1.00  0.00    -0.315 NA 
HETATM   18  C   UNL     1      -8.541  14.678  67.031  1.00  0.00    -0.249 C  
HETATM   19  C   UNL     1      -8.943  16.917  65.992  1.00  0.00    -0.198 C  
HETATM   20  C   UNL     1      -9.895  14.821  67.720  1.00  0.00    -0.214 C  
HETATM   21  C   UNL     1      -7.935  16.066  66.780  1.00  0.00    -0.302 C  
HETATM   22  C   UNL     1     -10.402  16.825  66.482  1.00  0.00    -0.301 C  
BRANCH  21  23
HETATM   23  C   UNL     1      -7.433  16.615  68.093  1.00  0.00    -0.168 A  
HETATM   24  N   UNL     1      -6.985  15.829  69.081  1.00  0.00    -0.161 NA 
HETATM   25  O   UNL     1      -6.290  16.666  69.944  1.00  0.00    -0.209 OA 
HETATM   26  C   UNL     1      -6.351  17.946  69.488  1.00  0.00    -0.212 A  
HETATM   27  C   UNL     1      -7.141  17.986  68.353  1.00  0.00    -0.247 A  
HETATM   28  C   UNL     1      -7.355  19.221  67.713  1.00  0.00    -0.285 A  
HETATM   29  C   UNL     1      -6.738  20.360  68.244  1.00  0.00    -0.313 A  
HETATM   30  C   UNL     1      -5.918  20.261  69.368  1.00  0.00    -0.340 A  
HETATM   31  C   UNL     1      -5.703  19.052  70.030  1.00  0.00    -0.263 A  
HETATM   32  F   UNL     1      -5.309  21.366  69.819  1.00  0.00    -0.407 F  
ENDBRANCH  21  23
ENDBRANCH  16  17
ENDBRANCH  15  16
ENDBRANCH   3  15
TORSDOF 4
ENDMDL
MODEL       22
REMARK 921   NORMALIZED FREE ENERGY PREDICTED BY IDOCK:   -7.40 KCAL/MOL
REMARK 922        TOTAL FREE ENERGY PREDICTED BY IDOCK:   -9.41 KCAL/MOL
REMARK 923 INTER-LIGAND FREE ENERGY PREDICTED BY IDOCK:   -8.86 KCAL/MOL
REMARK 924 INTRA-LIGAND FREE ENERGY PREDICTED BY IDOCK:   -0.55 KCAL/MOL
REMARK 927      BINDING AFFINITY PREDICTED BY RF-SCORE:    0.00 PKD
ROOT
HETATM    1  C   UNL     1      -7.537  15.191  69.260  1.00  0.00    -0.201 C  
HETATM    2  C   UNL     1      -8.361  16.000  68.293  1.00  0.00    -0.164 C  
HETATM    3  C   UNL     1      -8.912  15.534  67.153  1.00  0.00    -0.232 C  
HETATM    4  C   UNL     1      -9.725  16.497  66.363  1.00  0.00    -0.285 C  
HETATM    5  O   UNL     1     -10.201  19.687  69.594  1.00  0.00    -0.595 OA 
HETATM    6  C   UNL     1      -9.274  19.581  68.517  1.00  0.00    -0.356 C  
HETATM    7  O   UNL     1     -10.243  16.143  65.304  1.00  0.00    -0.520 OA 
HETATM    8  N   UNL     1      -9.848  17.776  66.868  1.00  0.00    -0.298 N  
HETATM    9  C   UNL     1     -10.533  18.741  66.015  1.00  0.00    -0.432 C  
HETATM   10  N   UNL     1      -8.468  17.303  68.703  1.00  0.00    -0.268 NA 
HETATM   11  C   UNL     1     -10.875  20.059  66.686  1.00  0.00    -0.219 C  
HETATM   12  C   UNL     1      -9.160  18.136  68.000  1.00  0.00    -0.283 C  
HETATM   13  C   UNL     1      -9.656  20.574  67.431  1.00  0.00    -0.578 C  
HETATM   14  H   UNL     1      -9.963  19.066  70.273  1.00  0.00     0.000 HD 
ENDROOT
BRANCH   3  15
HETATM   15  C   UNL     1      -8.891  14.125  66.604  1.00  0.00    -0.141 C  
BRANCH  15  16
HETATM   16  C   UNL     1     -10.048  13.217  67.108  1.00  0.00    -0.242 C  
BRANCH  16  17
HETATM   17  N   UNL     1      -9.913  12.729  68.491  1.00  0.00    -0.202 NA 
HETATM   18  C   UNL     1     -11.879  11.206  68.598  1.00  0.00    -0.357 C  
HETATM   19  C   UNL     1      -9.615  10.178  68.333  1.00  0.00    -0.150 C  
HETATM   20  C   UNL     1     -11.185  12.445  69.158  1.00  0.00    -0.236 C  
HETATM   21  C   UNL     1     -11.032   9.959  68.887  1.00  0.00    -0.214 C  
HETATM   22  C   UNL     1      -9.007  11.567  68.619  1.00  0.00    -0.112 C  
BRANCH  21  23
HETATM   23  C   UNL     1     -11.164   9.617  70.350  1.00  0.00    -0.283 A  
HETATM   24  N   UNL     1     -12.347   9.565  70.975  1.00  0.00    -0.299 NA 
HETATM   25  O   UNL     1     -12.118   8.883  72.162  1.00  0.00    -0.358 OA 
HETATM   26  C   UNL     1     -10.800   8.558  72.257  1.00  0.00    -0.348 A  
HETATM   27  C   UNL     1     -10.127   9.078  71.166  1.00  0.00    -0.365 A  
HETATM   28  C   UNL     1      -8.738   8.874  71.060  1.00  0.00    -0.276 A  
HETATM   29  C   UNL     1      -8.099   8.131  72.059  1.00  0.00    -0.178 A  
HETATM   30  C   UNL     1      -8.829   7.595  73.120  1.00  0.00    -0.179 A  
HETATM   31  C   UNL     1     -10.202   7.797  73.256  1.00  0.00    -0.367 A  
HETATM   32  F   UNL     1      -8.188   6.852  74.032  1.00  0.00    -0.123 F  
ENDBRANCH  21  23
ENDBRANCH  16  17
ENDBRANCH  15  16
ENDBRANCH   3  15
TORSDOF 4
ENDMDL
MODEL       23
REMARK 921   NORMALIZED FREE ENERGY PREDICTED BY IDOCK:   -7.40 KCAL/MOL
REMARK 922        TOTAL FREE ENERGY PREDICTED BY IDOCK:   -9.40 KCAL/MOL
REMARK 923 INTER-LIGAND FREE ENERGY PREDICTED BY IDOCK:   -8.70 KCAL/MOL
REMARK 924 INTRA-LIGAND FREE ENERGY PREDICTED BY IDOCK:   -0.70 KCAL/MOL
REMARK 927      BINDING AFFINITY PREDICTED BY RF-SCORE:    0.00 PKD
ROOT
HETATM    1  C   UNL     1     -10.565  13.032  67.288  1.00  0.00    -0.247 C  
HETATM    2  C   UNL     1     -11.308  12.866  68.587  1.00  0.00    -0.289 C  
HETATM    3  C   UNL     1     -11.558  11.692  69.203  1.00  0.00    -0.378 C  
HETATM    4  C   UNL     1     -12.276  11.760  70.504  1.00  0.00    -0.347 C  
HETATM    5  O   UNL     1     -11.713  16.223  71.278  1.00  0.00    -0.559 OA 
HETATM    6  C   UNL     1     -12.805  15.506  70.709  1.00  0.00    -0.458 C  
HETATM    7  O   UNL     1     -12.550  10.725  71.112  1.00  0.00    -0.359 OA 
HETATM    8  N   UNL     1     -12.616  13.014  70.967  1.00  0.00    -0.349 N  
HETATM    9  C   UNL     1     -13.435  13.055  72.174  1.00  0.00    -0.542 C  
HETATM   10  N   UNL     1     -11.734  14.076  69.072  1.00  0.00    -0.307 NA 
HETATM   11  C   UNL     1     -13.586  14.429  72.800  1.00  0.00    -0.531 C  
HETATM   12  C   UNL     1     -12.373  14.122  70.193  1.00  0.00    -0.351 C  
HETATM   13  C   UNL     1     -13.937  15.437  71.721  1.00  0.00    -0.626 C  
HETATM   14  H   UNL     1     -11.005  16.267  70.645  1.00  0.00     0.000 HD 
ENDROOT
BRANCH   3  15
HETATM   15  C   UNL     1     -11.126  10.302  68.791  1.00  0.00    -0.276 C  
BRANCH  15  16
HETATM   16  C   UNL     1      -9.675   9.927  69.204  1.00  0.00    -0.198 C  
BRANCH  16  17
HETATM   17  N   UNL     1      -9.463   8.514  69.560  1.00  0.00    -0.164 NA 
HETATM   18  C   UNL     1      -8.161   8.796  71.663  1.00  0.00    -0.171 C  
HETATM   19  C   UNL     1     -10.575   8.170  71.855  1.00  0.00    -0.324 C  
HETATM   20  C   UNL     1      -8.193   8.246  70.240  1.00  0.00    -0.121 C  
HETATM   21  C   UNL     1      -9.197   8.064  72.527  1.00  0.00    -0.280 C  
HETATM   22  C   UNL     1     -10.580   7.928  70.331  1.00  0.00    -0.228 C  
BRANCH  21  23
HETATM   23  C   UNL     1      -8.675   6.682  72.836  1.00  0.00    -0.121 A  
HETATM   24  N   UNL     1      -7.404   6.452  73.186  1.00  0.00    -0.086 NA 
HETATM   25  O   UNL     1      -7.386   5.176  73.732  1.00  0.00    -0.081 OA 
HETATM   26  C   UNL     1      -8.635   4.638  73.679  1.00  0.00    -0.104 A  
HETATM   27  C   UNL     1      -9.482   5.525  73.038  1.00  0.00    -0.154 A  
HETATM   28  C   UNL     1     -10.833   5.170  72.858  1.00  0.00    -0.324 A  
HETATM   29  C   UNL     1     -11.267   3.936  73.357  1.00  0.00    -0.297 A  
HETATM   30  C   UNL     1     -10.382   3.094  74.031  1.00  0.00    -0.159 A  
HETATM   31  C   UNL     1      -9.036   3.415  74.208  1.00  0.00    -0.097 A  
HETATM   32  F   UNL     1     -10.846   1.942  74.534  1.00  0.00    -0.172 F  
ENDBRANCH  21  23
ENDBRANCH  16  17
ENDBRANCH  15  16
ENDBRANCH   3  15
TORSDOF 4
ENDMDL
MODEL       24
REMARK 921   NORMALIZED FREE ENERGY PREDICTED BY IDOCK:   -7.32 KCAL/MOL
REMARK 922        TOTAL FREE ENERGY PREDICTED BY IDOCK:   -9.30 KCAL/MOL
REMARK 923 INTER-LIGAND FREE ENERGY PREDICTED BY IDOCK:   -8.46 KCAL/MOL
REMARK 924 INTRA-LIGAND FREE ENERGY PREDICTED BY IDOCK:   -0.84 KCAL/MOL
REMARK 927      BINDING AFFINITY PREDICTED BY RF-SCORE:    0.00 PKD
ROOT
HETATM    1  C   UNL     1     -12.007  15.850  71.968  1.00  0.00    -0.602 C  
HETATM    2  C   UNL     1     -11.716  15.536  70.524  1.00  0.00    -0.349 C  
HETATM    3  C   UNL     1     -12.128  14.435  69.863  1.00  0.00    -0.398 C  
HETATM    4  C   UNL     1     -11.761  14.345  68.424  1.00  0.00    -0.332 C  
HETATM    5  O   UNL     1     -10.559  18.707  67.825  1.00  0.00    -0.406 OA 
HETATM    6  C   UNL     1      -9.771  17.553  68.102  1.00  0.00    -0.302 C  
HETATM    7  O   UNL     1     -12.091  13.359  67.764  1.00  0.00    -0.338 OA 
HETATM    8  N   UNL     1     -11.040  15.395  67.893  1.00  0.00    -0.313 N  
HETATM    9  C   UNL     1     -10.575  15.228  66.521  1.00  0.00    -0.304 C  
HETATM   10  N   UNL     1     -10.944  16.514  69.951  1.00  0.00    -0.336 NA 
HETATM   11  C   UNL     1     -10.008  16.481  65.880  1.00  0.00    -0.342 C  
HETATM   12  C   UNL     1     -10.615  16.416  68.706  1.00  0.00    -0.310 C  
HETATM   13  C   UNL     1      -9.033  17.139  66.839  1.00  0.00    -0.253 C  
HETATM   14  H   UNL     1     -11.021  18.966  68.614  1.00  0.00     0.000 HD 
ENDROOT
BRANCH   3  15
HETATM   15  C   UNL     1     -12.997  13.305  70.366  1.00  0.00     0.149 C  
BRANCH  15  16
HETATM   16  C   UNL     1     -12.223  12.161  71.080  1.00  0.00    -0.124 C  
BRANCH  16  17
HETATM   17  N   UNL     1     -12.512  10.802  70.593  1.00  0.00    -0.344 NA 
HETATM   18  C   UNL     1     -10.264  10.173  69.728  1.00  0.00    -0.286 C  
HETATM   19  C   UNL     1     -10.984   9.216  71.924  1.00  0.00    -0.372 C  
HETATM   20  C   UNL     1     -11.739  10.405  69.414  1.00  0.00    -0.160 C  
HETATM   21  C   UNL     1     -10.116   8.976  70.678  1.00  0.00    -0.284 C  
HETATM   22  C   UNL     1     -12.397   9.765  71.642  1.00  0.00    -0.408 C  
BRANCH  21  23
HETATM   23  C   UNL     1     -10.354   7.709  69.895  1.00  0.00    -0.225 A  
HETATM   24  N   UNL     1     -11.429   6.933  70.086  1.00  0.00    -0.315 NA 
HETATM   25  O   UNL     1     -11.494   6.099  68.978  1.00  0.00    -0.340 OA 
HETATM   26  C   UNL     1     -10.447   6.356  68.149  1.00  0.00    -0.218 A  
HETATM   27  C   UNL     1      -9.638   7.318  68.727  1.00  0.00    -0.142 A  
HETATM   28  C   UNL     1      -8.478   7.734  68.045  1.00  0.00    -0.123 A  
HETATM   29  C   UNL     1      -8.204   7.167  66.795  1.00  0.00    -0.114 A  
HETATM   30  C   UNL     1      -9.072   6.229  66.237  1.00  0.00    -0.153 A  
HETATM   31  C   UNL     1     -10.218   5.788  66.899  1.00  0.00    -0.265 A  
HETATM   32  F   UNL     1      -8.799   5.744  65.018  1.00  0.00    -0.153 F  
ENDBRANCH  21  23
ENDBRANCH  16  17
ENDBRANCH  15  16
ENDBRANCH   3  15
TORSDOF 4
ENDMDL
MODEL       25
REMARK 921   NORMALIZED FREE ENERGY PREDICTED BY IDOCK:   -7.32 KCAL/MOL
REMARK 922        TOTAL FREE ENERGY PREDICTED BY IDOCK:   -9.30 KCAL/MOL
REMARK 923 INTER-LIGAND FREE ENERGY PREDICTED BY IDOCK:   -8.91 KCAL/MOL
REMARK 924 INTRA-LIGAND FREE ENERGY PREDICTED BY IDOCK:   -0.39 KCAL/MOL
REMARK 927      BINDING AFFINITY PREDICTED BY RF-SCORE:    0.00 PKD
ROOT
HETATM    1  C   UNL     1     -10.454  14.425  68.399  1.00  0.00    -0.246 C  
HETATM    2  C   UNL     1     -10.462  15.654  67.527  1.00  0.00    -0.285 C  
HETATM    3  C   UNL     1     -10.879  15.702  66.245  1.00  0.00    -0.262 C  
HETATM    4  C   UNL     1     -10.840  17.032  65.581  1.00  0.00    -0.061 C  
HETATM    5  O   UNL     1     -10.330  19.576  69.336  1.00  0.00    -0.589 OA 
HETATM    6  C   UNL     1      -9.369  19.080  68.408  1.00  0.00    -0.355 C  
HETATM    7  O   UNL     1     -11.192  17.145  64.406  1.00  0.00    -1.143 OA 
HETATM    8  N   UNL     1     -10.388  18.096  66.334  1.00  0.00    -0.394 N  
HETATM    9  C   UNL     1     -10.229  19.363  65.628  1.00  0.00    -0.125 C  
HETATM   10  N   UNL     1      -9.961  16.740  68.197  1.00  0.00    -0.260 NA 
HETATM   11  C   UNL     1      -9.975  20.565  66.518  1.00  0.00    -0.329 C  
HETATM   12  C   UNL     1      -9.914  17.886  67.604  1.00  0.00    -0.324 C  
HETATM   13  C   UNL     1      -8.892  20.223  67.527  1.00  0.00    -0.415 C  
HETATM   14  H   UNL     1     -10.629  18.862  69.888  1.00  0.00     0.000 HD 
ENDROOT
BRANCH   3  15
HETATM   15  C   UNL     1     -11.472  14.593  65.406  1.00  0.00    -0.352 C  
BRANCH  15  16
HETATM   16  C   UNL     1     -10.426  13.647  64.751  1.00  0.00    -0.418 C  
BRANCH  16  17
HETATM   17  N   UNL     1     -10.791  12.221  64.726  1.00  0.00    -0.292 NA 
HETATM   18  C   UNL     1      -8.982  11.294  66.162  1.00  0.00    -0.210 C  
HETATM   19  C   UNL     1     -11.259  11.548  67.164  1.00  0.00    -0.365 C  
HETATM   20  C   UNL     1      -9.650  11.304  64.790  1.00  0.00    -0.235 C  
HETATM   21  C   UNL     1      -9.955  10.736  67.211  1.00  0.00    -0.219 C  
HETATM   22  C   UNL     1     -11.792  11.851  65.749  1.00  0.00    -0.033 C  
BRANCH  21  23
HETATM   23  C   UNL     1     -10.055   9.242  67.027  1.00  0.00    -0.247 A  
HETATM   24  N   UNL     1      -9.531   8.608  65.971  1.00  0.00    -0.226 NA 
HETATM   25  O   UNL     1      -9.494   7.264  66.317  1.00  0.00    -0.156 OA 
HETATM   26  C   UNL     1     -10.022   7.096  67.560  1.00  0.00    -0.167 A  
HETATM   27  C   UNL     1     -10.475   8.317  68.027  1.00  0.00    -0.239 A  
HETATM   28  C   UNL     1     -11.075   8.382  69.299  1.00  0.00     0.142 A  
HETATM   29  C   UNL     1     -11.168   7.203  70.049  1.00  0.00    -0.271 A  
HETATM   30  C   UNL     1     -10.661   6.004  69.550  1.00  0.00    -0.335 A  
HETATM   31  C   UNL     1     -10.077   5.911  68.286  1.00  0.00    -0.203 A  
HETATM   32  F   UNL     1     -10.728   4.907  70.316  1.00  0.00    -0.296 F  
ENDBRANCH  21  23
ENDBRANCH  16  17
ENDBRANCH  15  16
ENDBRANCH   3  15
TORSDOF 4
ENDMDL
MODEL       26
REMARK 921   NORMALIZED FREE ENERGY PREDICTED BY IDOCK:   -7.30 KCAL/MOL
REMARK 922        TOTAL FREE ENERGY PREDICTED BY IDOCK:   -9.28 KCAL/MOL
REMARK 923 INTER-LIGAND FREE ENERGY PREDICTED BY IDOCK:   -8.62 KCAL/MOL
REMARK 924 INTRA-LIGAND FREE ENERGY PREDICTED BY IDOCK:   -0.66 KCAL/MOL
REMARK 927      BINDING AFFINITY PREDICTED BY RF-SCORE:    0.00 PKD
ROOT
HETATM    1  C   UNL     1      -6.790  10.830  69.892  1.00  0.00    -0.146 C  
HETATM    2  C   UNL     1      -7.999   9.931  69.900  1.00  0.00    -0.182 C  
HETATM    3  C   UNL     1      -8.793   9.678  68.840  1.00  0.00    -0.136 C  
HETATM    4  C   UNL     1      -9.913   8.723  69.059  1.00  0.00    -0.191 C  
HETATM    5  O   UNL     1      -8.453   6.967  73.011  1.00  0.00    -0.114 OA 
HETATM    6  C   UNL     1      -9.389   8.007  72.742  1.00  0.00    -0.263 C  
HETATM    7  O   UNL     1     -10.687   8.459  68.138  1.00  0.00    -0.152 OA 
HETATM    8  N   UNL     1     -10.035   8.179  70.321  1.00  0.00    -0.188 N  
HETATM    9  C   UNL     1     -11.215   7.352  70.554  1.00  0.00    -0.274 C  
HETATM   10  N   UNL     1      -8.216   9.405  71.147  1.00  0.00    -0.302 NA 
HETATM   11  C   UNL     1     -11.200   6.569  71.853  1.00  0.00    -0.314 C  
HETATM   12  C   UNL     1      -9.203   8.592  71.331  1.00  0.00    -0.235 C  
HETATM   13  C   UNL     1     -10.796   7.489  72.991  1.00  0.00    -0.445 C  
HETATM   14  H   UNL     1      -7.573   7.290  72.855  1.00  0.00     0.000 HD 
ENDROOT
BRANCH   3  15
HETATM   15  C   UNL     1      -8.650  10.168  67.417  1.00  0.00    -0.122 C  
BRANCH  15  16
HETATM   16  C   UNL     1      -9.644  11.295  67.018  1.00  0.00    -0.178 C  
BRANCH  16  17
HETATM   17  N   UNL     1      -9.792  12.385  67.996  1.00  0.00    -0.200 NA 
HETATM   18  C   UNL     1      -9.728  14.345  66.464  1.00  0.00    -0.305 C  
HETATM   19  C   UNL     1     -11.950  13.636  67.368  1.00  0.00    -0.413 C  
HETATM   20  C   UNL     1      -9.084  13.617  67.640  1.00  0.00    -0.207 C  
HETATM   21  C   UNL     1     -11.130  14.832  66.857  1.00  0.00    -0.339 C  
HETATM   22  C   UNL     1     -11.200  12.691  68.328  1.00  0.00    -0.272 C  
BRANCH  21  23
HETATM   23  C   UNL     1     -10.986  16.022  67.772  1.00  0.00    -0.307 A  
HETATM   24  N   UNL     1     -10.952  15.908  69.106  1.00  0.00    -0.262 NA 
HETATM   25  O   UNL     1     -10.455  17.116  69.577  1.00  0.00    -0.286 OA 
HETATM   26  C   UNL     1     -10.224  17.955  68.530  1.00  0.00    -0.390 A  
HETATM   27  C   UNL     1     -10.625  17.338  67.359  1.00  0.00    -0.303 A  
HETATM   28  C   UNL     1     -10.489  18.031  66.141  1.00  0.00    -0.336 A  
HETATM   29  C   UNL     1      -9.929  19.315  66.167  1.00  0.00    -0.466 A  
HETATM   30  C   UNL     1      -9.504  19.877  67.370  1.00  0.00    -0.364 A  
HETATM   31  C   UNL     1      -9.643  19.218  68.592  1.00  0.00    -0.479 A  
HETATM   32  F   UNL     1      -8.932  21.089  67.348  1.00  0.00    -0.448 F  
ENDBRANCH  21  23
ENDBRANCH  16  17
ENDBRANCH  15  16
ENDBRANCH   3  15
TORSDOF 4
ENDMDL
MODEL       27
REMARK 921   NORMALIZED FREE ENERGY PREDICTED BY IDOCK:   -7.27 KCAL/MOL
REMARK 922        TOTAL FREE ENERGY PREDICTED BY IDOCK:   -9.24 KCAL/MOL
REMARK 923 INTER-LIGAND FREE ENERGY PREDICTED BY IDOCK:   -9.00 KCAL/MOL
REMARK 924 INTRA-LIGAND FREE ENERGY PREDICTED BY IDOCK:   -0.24 KCAL/MOL
REMARK 927      BINDING AFFINITY PREDICTED BY RF-SCORE:    0.00 PKD
ROOT
HETATM    1  C   UNL     1      -9.341  10.160  64.821  1.00  0.00    -0.324 C  
HETATM    2  C   UNL     1      -9.745   9.591  66.156  1.00  0.00    -0.258 C  
HETATM    3  C   UNL     1     -10.078  10.312  67.246  1.00  0.00    -0.249 C  
HETATM    4  C   UNL     1     -10.488   9.545  68.453  1.00  0.00    -0.224 C  
HETATM    5  O   UNL     1     -11.154   5.514  66.418  1.00  0.00    -0.681 OA 
HETATM    6  C   UNL     1     -10.027   6.028  67.123  1.00  0.00    -0.156 C  
HETATM    7  O   UNL     1     -10.789  10.140  69.488  1.00  0.00    -0.223 OA 
HETATM    8  N   UNL     1     -10.498   8.169  68.349  1.00  0.00    -0.193 N  
HETATM    9  C   UNL     1     -10.771   7.433  69.578  1.00  0.00    -0.224 C  
HETATM   10  N   UNL     1      -9.713   8.220  66.140  1.00  0.00    -0.174 NA 
HETATM   11  C   UNL     1     -11.023   5.948  69.392  1.00  0.00    -0.421 C  
HETATM   12  C   UNL     1     -10.053   7.565  67.200  1.00  0.00    -0.247 C  
HETATM   13  C   UNL     1      -9.950   5.365  68.489  1.00  0.00    -0.223 C  
HETATM   14  H   UNL     1     -11.203   5.928  65.564  1.00  0.00     0.000 HD 
ENDROOT
BRANCH   3  15
HETATM   15  C   UNL     1     -10.177  11.814  67.387  1.00  0.00    -0.220 C  
BRANCH  15  16
HETATM   16  C   UNL     1     -11.431  12.445  66.719  1.00  0.00    -0.362 C  
BRANCH  16  17
HETATM   17  N   UNL     1     -11.614  13.888  66.951  1.00  0.00    -0.357 NA 
HETATM   18  C   UNL     1      -9.256  14.656  66.733  1.00  0.00    -0.285 C  
HETATM   19  C   UNL     1     -10.806  15.074  64.815  1.00  0.00    -0.375 C  
HETATM   20  C   UNL     1     -10.488  14.539  67.626  1.00  0.00    -0.246 C  
HETATM   21  C   UNL     1      -9.557  15.586  65.549  1.00  0.00    -0.257 C  
HETATM   22  C   UNL     1     -11.971  14.640  65.728  1.00  0.00    -0.235 C  
BRANCH  21  23
HETATM   23  C   UNL     1      -9.576  17.009  66.050  1.00  0.00    -0.187 A  
HETATM   24  N   UNL     1     -10.646  17.804  65.927  1.00  0.00    -0.449 NA 
HETATM   25  O   UNL     1     -10.432  18.865  66.797  1.00  0.00    -0.385 OA 
HETATM   26  C   UNL     1      -9.227  18.717  67.411  1.00  0.00    -0.282 A  
HETATM   27  C   UNL     1      -8.598  17.592  66.908  1.00  0.00    -0.260 A  
HETATM   28  C   UNL     1      -7.322  17.249  67.394  1.00  0.00    -0.185 A  
HETATM   29  C   UNL     1      -6.751  18.054  68.386  1.00  0.00    -0.217 A  
HETATM   30  C   UNL     1      -7.443  19.156  68.889  1.00  0.00    -0.343 A  
HETATM   31  C   UNL     1      -8.701  19.527  68.413  1.00  0.00    -0.389 A  
HETATM   32  F   UNL     1      -6.882  19.875  69.871  1.00  0.00    -0.375 F  
ENDBRANCH  21  23
ENDBRANCH  16  17
ENDBRANCH  15  16
ENDBRANCH   3  15
TORSDOF 4
ENDMDL
MODEL       28
REMARK 921   NORMALIZED FREE ENERGY PREDICTED BY IDOCK:   -7.24 KCAL/MOL
REMARK 922        TOTAL FREE ENERGY PREDICTED BY IDOCK:   -9.20 KCAL/MOL
REMARK 923 INTER-LIGAND FREE ENERGY PREDICTED BY IDOCK:   -8.63 KCAL/MOL
REMARK 924 INTRA-LIGAND FREE ENERGY PREDICTED BY IDOCK:   -0.57 KCAL/MOL
REMARK 927      BINDING AFFINITY PREDICTED BY RF-SCORE:    0.00 PKD
ROOT
HETATM    1  C   UNL     1     -12.222  15.966  72.412  1.00  0.00    -0.591 C  
HETATM    2  C   UNL     1     -11.889  15.735  70.961  1.00  0.00    -0.420 C  
HETATM    3  C   UNL     1     -12.333  14.706  70.210  1.00  0.00    -0.406 C  
HETATM    4  C   UNL     1     -11.913  14.692  68.783  1.00  0.00    -0.266 C  
HETATM    5  O   UNL     1     -10.451  19.009  68.535  1.00  0.00    -0.420 OA 
HETATM    6  C   UNL     1      -9.740  17.795  68.759  1.00  0.00    -0.314 C  
HETATM    7  O   UNL     1     -12.270  13.774  68.044  1.00  0.00    -0.323 OA 
HETATM    8  N   UNL     1     -11.115  15.733  68.354  1.00  0.00    -0.323 N  
HETATM    9  C   UNL     1     -10.604  15.633  66.991  1.00  0.00    -0.311 C  
HETATM   10  N   UNL     1     -11.042  16.703  70.487  1.00  0.00    -0.132 NA 
HETATM   11  C   UNL     1      -9.944  16.892  66.461  1.00  0.00    -0.309 C  
HETATM   12  C   UNL     1     -10.668  16.671  69.251  1.00  0.00    -0.337 C  
HETATM   13  C   UNL     1      -8.974  17.427  67.499  1.00  0.00    -0.231 C  
HETATM   14  H   UNL     1     -10.930  19.240  69.323  1.00  0.00     0.000 HD 
ENDROOT
BRANCH   3  15
HETATM   15  C   UNL     1     -13.283  13.596  70.600  1.00  0.00     0.062 C  
BRANCH  15  16
HETATM   16  C   UNL     1     -12.605  12.374  71.280  1.00  0.00    -0.230 C  
BRANCH  16  17
HETATM   17  N   UNL     1     -12.770  11.088  70.582  1.00  0.00    -0.313 NA 
HETATM   18  C   UNL     1     -10.486  10.826  69.628  1.00  0.00    -0.183 C  
HETATM   19  C   UNL     1     -11.078   9.465  71.641  1.00  0.00    -0.409 C  
HETATM   20  C   UNL     1     -11.981  10.962  69.354  1.00  0.00    -0.322 C  
HETATM   21  C   UNL     1     -10.210   9.512  70.373  1.00  0.00    -0.337 C  
HETATM   22  C   UNL     1     -12.541   9.913  71.450  1.00  0.00    -0.398 C  
BRANCH  21  23
HETATM   23  C   UNL     1     -10.338   8.370  69.396  1.00  0.00    -0.215 A  
HETATM   24  N   UNL     1     -10.250   8.540  68.071  1.00  0.00    -0.204 NA 
HETATM   25  O   UNL     1     -10.050   7.273  67.539  1.00  0.00    -0.163 OA 
HETATM   26  C   UNL     1     -10.049   6.351  68.540  1.00  0.00    -0.154 A  
HETATM   27  C   UNL     1     -10.314   6.987  69.740  1.00  0.00    -0.225 A  
HETATM   28  C   UNL     1     -10.374   6.221  70.920  1.00  0.00    -0.253 A  
HETATM   29  C   UNL     1     -10.140   4.843  70.829  1.00  0.00    -0.303 A  
HETATM   30  C   UNL     1      -9.838   4.256  69.600  1.00  0.00    -0.174 A  
HETATM   31  C   UNL     1      -9.789   4.990  68.415  1.00  0.00    -0.209 A  
HETATM   32  F   UNL     1      -9.576   2.943  69.562  1.00  0.00    -0.218 F  
ENDBRANCH  21  23
ENDBRANCH  16  17
ENDBRANCH  15  16
ENDBRANCH   3  15
TORSDOF 4
ENDMDL
MODEL       29
REMARK 921   NORMALIZED FREE ENERGY PREDICTED BY IDOCK:   -7.23 KCAL/MOL
REMARK 922        TOTAL FREE ENERGY PREDICTED BY IDOCK:   -9.19 KCAL/MOL
REMARK 923 INTER-LIGAND FREE ENERGY PREDICTED BY IDOCK:   -8.57 KCAL/MOL
REMARK 924 INTRA-LIGAND FREE ENERGY PREDICTED BY IDOCK:   -0.62 KCAL/MOL
REMARK 927      BINDING AFFINITY PREDICTED BY RF-SCORE:    0.00 PKD
ROOT
HETATM    1  C   UNL     1      -7.006   8.229  69.688  1.00  0.00    -0.045 C  
HETATM    2  C   UNL     1      -8.231   7.548  70.241  1.00  0.00    -0.128 C  
HETATM    3  C   UNL     1      -9.364   7.297  69.555  1.00  0.00    -0.152 C  
HETATM    4  C   UNL     1     -10.440   6.573  70.284  1.00  0.00    -0.216 C  
HETATM    5  O   UNL     1      -7.915   5.108  73.794  1.00  0.00    -0.104 OA 
HETATM    6  C   UNL     1      -8.764   6.245  73.666  1.00  0.00    -0.124 C  
HETATM    7  O   UNL     1     -11.507   6.326  69.723  1.00  0.00    -0.430 OA 
HETATM    8  N   UNL     1     -10.180   6.217  71.592  1.00  0.00    -0.192 N  
HETATM    9  C   UNL     1     -11.292   5.629  72.332  1.00  0.00    -0.270 C  
HETATM   10  N   UNL     1      -8.063   7.224  71.562  1.00  0.00    -0.101 NA 
HETATM   11  C   UNL     1     -10.919   5.022  73.672  1.00  0.00    -0.379 C  
HETATM   12  C   UNL     1      -9.010   6.612  72.192  1.00  0.00    -0.138 C  
HETATM   13  C   UNL     1     -10.048   5.999  74.441  1.00  0.00    -0.316 C  
HETATM   14  H   UNL     1      -7.112   5.262  73.309  1.00  0.00     0.000 HD 
ENDROOT
BRANCH   3  15
HETATM   15  C   UNL     1      -9.666   7.577  68.099  1.00  0.00    -0.167 C  
BRANCH  15  16
HETATM   16  C   UNL     1     -10.302   8.968  67.826  1.00  0.00    -0.246 C  
BRANCH  16  17
HETATM   17  N   UNL     1     -10.080   9.982  68.870  1.00  0.00    -0.180 NA 
HETATM   18  C   UNL     1     -10.713  12.035  67.613  1.00  0.00    -0.252 C  
HETATM   19  C   UNL     1     -12.351  11.123  69.269  1.00  0.00    -0.170 C  
HETATM   20  C   UNL     1      -9.622  11.279  68.366  1.00  0.00    -0.195 C  
HETATM   21  C   UNL     1     -11.852  12.401  68.575  1.00  0.00    -0.352 C  
HETATM   22  C   UNL     1     -11.243  10.172  69.764  1.00  0.00    -0.272 C  
BRANCH  21  23
HETATM   23  C   UNL     1     -11.393  13.539  69.452  1.00  0.00    -0.233 A  
HETATM   24  N   UNL     1     -10.512  14.459  69.040  1.00  0.00    -0.239 NA 
HETATM   25  O   UNL     1     -10.612  15.510  69.941  1.00  0.00    -0.273 OA 
HETATM   26  C   UNL     1     -11.526  15.204  70.902  1.00  0.00    -0.323 A  
HETATM   27  C   UNL     1     -11.994  13.920  70.687  1.00  0.00    -0.364 A  
HETATM   28  C   UNL     1     -12.947  13.384  71.574  1.00  0.00    -0.429 A  
HETATM   29  C   UNL     1     -13.397  14.186  72.629  1.00  0.00    -0.638 A  
HETATM   30  C   UNL     1     -12.923  15.489  72.780  1.00  0.00    -0.457 A  
HETATM   31  C   UNL     1     -11.967  16.038  71.924  1.00  0.00    -0.606 A  
HETATM   32  F   UNL     1     -13.412  16.242  73.774  1.00  0.00    -0.579 F  
ENDBRANCH  21  23
ENDBRANCH  16  17
ENDBRANCH  15  16
ENDBRANCH   3  15
TORSDOF 4
ENDMDL
MODEL       30
REMARK 921   NORMALIZED FREE ENERGY PREDICTED BY IDOCK:   -7.22 KCAL/MOL
REMARK 922        TOTAL FREE ENERGY PREDICTED BY IDOCK:   -9.18 KCAL/MOL
REMARK 923 INTER-LIGAND FREE ENERGY PREDICTED BY IDOCK:   -8.66 KCAL/MOL
REMARK 924 INTRA-LIGAND FREE ENERGY PREDICTED BY IDOCK:   -0.52 KCAL/MOL
REMARK 927      BINDING AFFINITY PREDICTED BY RF-SCORE:    0.00 PKD
ROOT
HETATM    1  C   UNL     1      -8.107  15.714  69.290  1.00  0.00    -0.244 C  
HETATM    2  C   UNL     1      -8.131  16.875  68.331  1.00  0.00    -0.237 C  
HETATM    3  C   UNL     1      -9.171  17.221  67.545  1.00  0.00    -0.227 C  
HETATM    4  C   UNL     1      -8.994  18.432  66.699  1.00  0.00    -0.289 C  
HETATM    5  O   UNL     1      -5.313  20.116  68.808  1.00  0.00    -0.203 OA 
HETATM    6  C   UNL     1      -5.430  19.312  67.638  1.00  0.00    -0.171 C  
HETATM    7  O   UNL     1      -9.898  18.795  65.946  1.00  0.00    -0.496 OA 
HETATM    8  N   UNL     1      -7.788  19.096  66.799  1.00  0.00    -0.249 N  
HETATM    9  C   UNL     1      -7.582  20.199  65.867  1.00  0.00    -0.250 C  
HETATM   10  N   UNL     1      -6.933  17.542  68.332  1.00  0.00    -0.203 NA 
HETATM   11  C   UNL     1      -6.369  21.064  66.157  1.00  0.00    -0.282 C  
HETATM   12  C   UNL     1      -6.783  18.581  67.580  1.00  0.00    -0.202 C  
HETATM   13  C   UNL     1      -5.166  20.173  66.413  1.00  0.00    -0.174 C  
HETATM   14  H   UNL     1      -5.478  19.578  69.574  1.00  0.00     0.000 HD 
ENDROOT
BRANCH   3  15
HETATM   15  C   UNL     1     -10.543  16.590  67.467  1.00  0.00    -0.313 C  
BRANCH  15  16
HETATM   16  C   UNL     1     -10.695  15.504  66.365  1.00  0.00    -0.303 C  
BRANCH  16  17
HETATM   17  N   UNL     1     -10.005  14.231  66.633  1.00  0.00    -0.267 NA 
HETATM   18  C   UNL     1     -11.610  13.207  68.236  1.00  0.00    -0.370 C  
HETATM   19  C   UNL     1     -11.610  12.366  65.881  1.00  0.00    -0.449 C  
HETATM   20  C   UNL     1     -10.193  13.716  67.991  1.00  0.00    -0.248 C  
HETATM   21  C   UNL     1     -11.887  11.988  67.344  1.00  0.00    -0.268 C  
HETATM   22  C   UNL     1     -10.317  13.174  65.647  1.00  0.00    -0.284 C  
BRANCH  21  23
HETATM   23  C   UNL     1     -11.148  10.800  67.911  1.00  0.00    -0.308 A  
HETATM   24  N   UNL     1     -10.057  10.285  67.332  1.00  0.00    -0.192 NA 
HETATM   25  O   UNL     1      -9.463   9.479  68.294  1.00  0.00    -0.133 OA 
HETATM   26  C   UNL     1     -10.214   9.491  69.428  1.00  0.00    -0.206 A  
HETATM   27  C   UNL     1     -11.348  10.252  69.212  1.00  0.00    -0.253 A  
HETATM   28  C   UNL     1     -12.284  10.395  70.254  1.00  0.00    -0.349 A  
HETATM   29  C   UNL     1     -12.012   9.774  71.479  1.00  0.00    -0.488 A  
HETATM   30  C   UNL     1     -10.834   9.049  71.660  1.00  0.00    -0.366 A  
HETATM   31  C   UNL     1      -9.900   8.879  70.638  1.00  0.00    -0.261 A  
HETATM   32  F   UNL     1     -10.589   8.508  72.861  1.00  0.00    -0.369 F  
ENDBRANCH  21  23
ENDBRANCH  16  17
ENDBRANCH  15  16
ENDBRANCH   3  15
TORSDOF 4
ENDMDL
MODEL       31
REMARK 921   NORMALIZED FREE ENERGY PREDICTED BY IDOCK:   -7.21 KCAL/MOL
REMARK 922        TOTAL FREE ENERGY PREDICTED BY IDOCK:   -9.17 KCAL/MOL
REMARK 923 INTER-LIGAND FREE ENERGY PREDICTED BY IDOCK:   -8.52 KCAL/MOL
REMARK 924 INTRA-LIGAND FREE ENERGY PREDICTED BY IDOCK:   -0.64 KCAL/MOL
REMARK 927      BINDING AFFINITY PREDICTED BY RF-SCORE:    0.00 PKD
ROOT
HETATM    1  C   UNL     1      -8.381   8.652  68.086  1.00  0.00    -0.127 C  
HETATM    2  C   UNL     1      -9.489   9.357  68.823  1.00  0.00    -0.150 C  
HETATM    3  C   UNL     1      -9.813  10.660  68.690  1.00  0.00    -0.183 C  
HETATM    4  C   UNL     1     -10.974  11.143  69.485  1.00  0.00    -0.220 C  
HETATM    5  O   UNL     1     -12.696   7.063  70.590  1.00  0.00    -0.600 OA 
HETATM    6  C   UNL     1     -11.834   7.937  71.312  1.00  0.00    -0.296 C  
HETATM    7  O   UNL     1     -11.314  12.324  69.424  1.00  0.00    -0.258 OA 
HETATM    8  N   UNL     1     -11.619  10.217  70.279  1.00  0.00    -0.284 N  
HETATM    9  C   UNL     1     -12.667  10.736  71.152  1.00  0.00    -0.431 C  
HETATM   10  N   UNL     1     -10.133   8.505  69.683  1.00  0.00    -0.197 NA 
HETATM   11  C   UNL     1     -13.522   9.678  71.824  1.00  0.00    -0.477 C  
HETATM   12  C   UNL     1     -11.127   8.939  70.382  1.00  0.00    -0.239 C  
HETATM   13  C   UNL     1     -12.624   8.611  72.423  1.00  0.00    -0.426 C  
HETATM   14  H   UNL     1     -12.203   6.641  69.895  1.00  0.00     0.000 HD 
ENDROOT
BRANCH   3  15
HETATM   15  C   UNL     1      -9.206  11.692  67.766  1.00  0.00    -0.178 C  
BRANCH  15  16
HETATM   16  C   UNL     1      -7.890  12.333  68.289  1.00  0.00    -0.153 C  
BRANCH  16  17
HETATM   17  N   UNL     1      -7.470  13.566  67.602  1.00  0.00    -0.167 NA 
HETATM   18  C   UNL     1      -8.961  15.210  68.727  1.00  0.00    -0.197 C  
HETATM   19  C   UNL     1      -6.560  15.138  69.424  1.00  0.00    -0.151 C  
HETATM   20  C   UNL     1      -8.539  14.550  67.418  1.00  0.00    -0.201 C  
HETATM   21  C   UNL     1      -7.798  16.039  69.291  1.00  0.00    -0.222 C  
HETATM   22  C   UNL     1      -6.292  14.212  68.220  1.00  0.00    -0.118 C  
BRANCH  21  23
HETATM   23  C   UNL     1      -7.662  17.297  68.469  1.00  0.00    -0.261 A  
HETATM   24  N   UNL     1      -6.502  17.677  67.918  1.00  0.00    -0.176 NA 
HETATM   25  O   UNL     1      -6.831  18.635  66.968  1.00  0.00    -0.193 OA 
HETATM   26  C   UNL     1      -8.175  18.845  66.976  1.00  0.00    -0.270 A  
HETATM   27  C   UNL     1      -8.747  18.078  67.975  1.00  0.00    -0.264 A  
HETATM   28  C   UNL     1     -10.139  18.146  68.176  1.00  0.00    -0.388 A  
HETATM   29  C   UNL     1     -10.891  18.976  67.337  1.00  0.00    -0.496 A  
HETATM   30  C   UNL     1     -10.272  19.700  66.318  1.00  0.00    -0.498 A  
HETATM   31  C   UNL     1      -8.893  19.663  66.109  1.00  0.00    -0.367 A  
HETATM   32  F   UNL     1     -11.032  20.448  65.506  1.00  0.00    -0.336 F  
ENDBRANCH  21  23
ENDBRANCH  16  17
ENDBRANCH  15  16
ENDBRANCH   3  15
TORSDOF 4
ENDMDL
MODEL       32
REMARK 921   NORMALIZED FREE ENERGY PREDICTED BY IDOCK:   -7.19 KCAL/MOL
REMARK 922        TOTAL FREE ENERGY PREDICTED BY IDOCK:   -9.15 KCAL/MOL
REMARK 923 INTER-LIGAND FREE ENERGY PREDICTED BY IDOCK:   -8.49 KCAL/MOL
REMARK 924 INTRA-LIGAND FREE ENERGY PREDICTED BY IDOCK:   -0.66 KCAL/MOL
REMARK 927      BINDING AFFINITY PREDICTED BY RF-SCORE:    0.00 PKD
ROOT
HETATM    1  C   UNL     1      -8.907  14.612  68.123  1.00  0.00    -0.173 C  
HETATM    2  C   UNL     1      -9.345  13.646  67.054  1.00  0.00    -0.248 C  
HETATM    3  C   UNL     1      -8.800  12.434  66.822  1.00  0.00    -0.189 C  
HETATM    4  C   UNL     1      -9.416  11.622  65.738  1.00  0.00    -0.226 C  
HETATM    5  O   UNL     1     -13.277  14.016  65.301  1.00  0.00    -0.782 OA 
HETATM    6  C   UNL     1     -12.057  14.074  64.569  1.00  0.00    -0.459 C  
HETATM    7  O   UNL     1      -8.958  10.513  65.463  1.00  0.00    -0.168 OA 
HETATM    8  N   UNL     1     -10.490  12.176  65.072  1.00  0.00    -0.280 N  
HETATM    9  C   UNL     1     -10.994  11.426  63.927  1.00  0.00    -0.366 C  
HETATM   10  N   UNL     1     -10.372  14.164  66.309  1.00  0.00    -0.285 NA 
HETATM   11  C   UNL     1     -12.316  11.921  63.370  1.00  0.00    -0.577 C  
HETATM   12  C   UNL     1     -10.887  13.459  65.357  1.00  0.00    -0.294 C  
HETATM   13  C   UNL     1     -12.261  13.429  63.207  1.00  0.00    -0.314 C  
HETATM   14  H   UNL     1     -13.150  14.419  66.152  1.00  0.00     0.000 HD 
ENDROOT
BRANCH   3  15
HETATM   15  C   UNL     1      -7.691  11.739  67.580  1.00  0.00    -0.143 C  
BRANCH  15  16
HETATM   16  C   UNL     1      -8.126  11.115  68.935  1.00  0.00    -0.115 C  
BRANCH  16  17
HETATM   17  N   UNL     1      -8.909   9.872  68.838  1.00  0.00    -0.138 NA 
HETATM   18  C   UNL     1      -8.661   9.029  71.166  1.00  0.00    -0.266 C  
HETATM   19  C   UNL     1     -10.833  10.094  70.531  1.00  0.00    -0.340 C  
HETATM   20  C   UNL     1      -8.418   8.780  69.681  1.00  0.00    -0.129 C  
HETATM   21  C   UNL     1     -10.170   9.055  71.449  1.00  0.00    -0.399 C  
HETATM   22  C   UNL     1     -10.357  10.070  69.065  1.00  0.00    -0.206 C  
BRANCH  21  23
HETATM   23  C   UNL     1     -10.693   7.640  71.396  1.00  0.00    -0.222 A  
HETATM   24  N   UNL     1     -11.031   7.038  70.249  1.00  0.00    -0.260 NA 
HETATM   25  O   UNL     1     -11.108   5.683  70.542  1.00  0.00    -0.258 OA 
HETATM   26  C   UNL     1     -10.847   5.484  71.862  1.00  0.00    -0.223 A  
HETATM   27  C   UNL     1     -10.658   6.710  72.475  1.00  0.00    -0.245 A  
HETATM   28  C   UNL     1     -10.385   6.748  73.856  1.00  0.00    -0.397 A  
HETATM   29  C   UNL     1     -10.295   5.534  74.548  1.00  0.00    -0.263 A  
HETATM   30  C   UNL     1     -10.454   4.322  73.876  1.00  0.00    -0.224 A  
HETATM   31  C   UNL     1     -10.742   4.259  72.512  1.00  0.00    -0.129 A  
HETATM   32  F   UNL     1     -10.315   3.181  74.564  1.00  0.00    -0.169 F  
ENDBRANCH  21  23
ENDBRANCH  16  17
ENDBRANCH  15  16
ENDBRANCH   3  15
TORSDOF 4
ENDMDL
MODEL       33
REMARK 921   NORMALIZED FREE ENERGY PREDICTED BY IDOCK:   -7.18 KCAL/MOL
REMARK 922        TOTAL FREE ENERGY PREDICTED BY IDOCK:   -9.13 KCAL/MOL
REMARK 923 INTER-LIGAND FREE ENERGY PREDICTED BY IDOCK:   -8.47 KCAL/MOL
REMARK 924 INTRA-LIGAND FREE ENERGY PREDICTED BY IDOCK:   -0.66 KCAL/MOL
REMARK 927      BINDING AFFINITY PREDICTED BY RF-SCORE:    0.00 PKD
ROOT
HETATM    1  C   UNL     1     -11.410  10.917  67.946  1.00  0.00    -0.380 C  
HETATM    2  C   UNL     1     -10.971  11.095  66.516  1.00  0.00    -0.209 C  
HETATM    3  C   UNL     1     -11.421  12.045  65.671  1.00  0.00    -0.372 C  
HETATM    4  C   UNL     1     -10.820  12.065  64.310  1.00  0.00    -0.339 C  
HETATM    5  O   UNL     1      -7.232   9.384  65.187  1.00  0.00    -0.095 OA 
HETATM    6  C   UNL     1      -8.506   9.083  64.623  1.00  0.00    -0.177 C  
HETATM    7  O   UNL     1     -11.197  12.896  63.483  1.00  0.00    -0.424 OA 
HETATM    8  N   UNL     1      -9.854  11.119  64.037  1.00  0.00    -0.274 N  
HETATM    9  C   UNL     1      -9.374  11.069  62.660  1.00  0.00    -0.317 C  
HETATM   10  N   UNL     1     -10.054  10.141  66.158  1.00  0.00    -0.249 NA 
HETATM   11  C   UNL     1      -8.148  10.202  62.441  1.00  0.00    -0.162 C  
HETATM   12  C   UNL     1      -9.552  10.157  64.968  1.00  0.00    -0.299 C  
HETATM   13  C   UNL     1      -8.349   8.863  63.127  1.00  0.00    -0.185 C  
HETATM   14  H   UNL     1      -7.330   9.521  66.122  1.00  0.00     0.000 HD 
ENDROOT
BRANCH   3  15
HETATM   15  C   UNL     1     -12.403  13.161  65.946  1.00  0.00    -0.462 C  
BRANCH  15  16
HETATM   16  C   UNL     1     -11.945  14.172  67.035  1.00  0.00    -0.439 C  
BRANCH  16  17
HETATM   17  N   UNL     1     -10.510  14.498  67.032  1.00  0.00    -0.267 NA 
HETATM   18  C   UNL     1     -10.613  16.879  67.752  1.00  0.00    -0.340 C  
HETATM   19  C   UNL     1      -9.915  15.173  69.443  1.00  0.00    -0.232 C  
HETATM   20  C   UNL     1     -10.205  15.884  66.669  1.00  0.00    -0.288 C  
HETATM   21  C   UNL     1      -9.775  16.643  69.017  1.00  0.00    -0.260 C  
HETATM   22  C   UNL     1      -9.824  14.147  68.295  1.00  0.00    -0.235 C  
BRANCH  21  23
HETATM   23  C   UNL     1      -8.383  17.171  68.776  1.00  0.00    -0.236 A  
HETATM   24  N   UNL     1      -7.288  16.414  68.922  1.00  0.00    -0.201 NA 
HETATM   25  O   UNL     1      -6.265  17.099  68.281  1.00  0.00    -0.139 OA 
HETATM   26  C   UNL     1      -6.742  18.272  67.783  1.00  0.00    -0.206 A  
HETATM   27  C   UNL     1      -8.071  18.410  68.144  1.00  0.00    -0.305 A  
HETATM   28  C   UNL     1      -8.771  19.564  67.744  1.00  0.00    -0.364 A  
HETATM   29  C   UNL     1      -8.094  20.518  66.976  1.00  0.00    -0.324 A  
HETATM   30  C   UNL     1      -6.765  20.315  66.604  1.00  0.00    -0.230 A  
HETATM   31  C   UNL     1      -6.044  19.188  67.002  1.00  0.00    -0.174 A  
HETATM   32  F   UNL     1      -6.165  21.229  65.831  1.00  0.00    -0.286 F  
ENDBRANCH  21  23
ENDBRANCH  16  17
ENDBRANCH  15  16
ENDBRANCH   3  15
TORSDOF 4
ENDMDL
MODEL       34
REMARK 921   NORMALIZED FREE ENERGY PREDICTED BY IDOCK:   -7.18 KCAL/MOL
REMARK 922        TOTAL FREE ENERGY PREDICTED BY IDOCK:   -9.13 KCAL/MOL
REMARK 923 INTER-LIGAND FREE ENERGY PREDICTED BY IDOCK:   -8.92 KCAL/MOL
REMARK 924 INTRA-LIGAND FREE ENERGY PREDICTED BY IDOCK:   -0.21 KCAL/MOL
REMARK 927      BINDING AFFINITY PREDICTED BY RF-SCORE:    0.00 PKD
ROOT
HETATM    1  C   UNL     1     -11.021  14.323  64.684  1.00  0.00    -0.379 C  
HETATM    2  C   UNL     1     -10.858  15.232  65.874  1.00  0.00    -0.342 C  
HETATM    3  C   UNL     1     -11.290  14.969  67.125  1.00  0.00    -0.323 C  
HETATM    4  C   UNL     1     -10.986  15.991  68.163  1.00  0.00    -0.339 C  
HETATM    5  O   UNL     1      -7.850  18.334  65.816  1.00  0.00    -0.517 OA 
HETATM    6  C   UNL     1      -9.245  18.563  65.994  1.00  0.00     0.016 C  
HETATM    7  O   UNL     1     -11.365  15.822  69.322  1.00  0.00    -0.300 OA 
HETATM    8  N   UNL     1     -10.287  17.109  67.757  1.00  0.00    -0.334 N  
HETATM    9  C   UNL     1     -10.117  18.159  68.756  1.00  0.00    -0.376 C  
HETATM   10  N   UNL     1     -10.225  16.397  65.525  1.00  0.00    -0.558 NA 
HETATM   11  C   UNL     1      -9.142  19.256  68.371  1.00  0.00    -0.408 C  
HETATM   12  C   UNL     1      -9.983  17.285  66.430  1.00  0.00    -0.311 C  
HETATM   13  C   UNL     1      -9.441  19.722  66.957  1.00  0.00    -0.476 C  
HETATM   14  H   UNL     1      -7.727  17.610  65.213  1.00  0.00     0.000 HD 
ENDROOT
BRANCH   3  15
HETATM   15  C   UNL     1     -11.972  13.724  67.644  1.00  0.00    -0.392 C  
BRANCH  15  16
HETATM   16  C   UNL     1     -11.005  12.635  68.187  1.00  0.00    -0.236 C  
BRANCH  16  17
HETATM   17  N   UNL     1     -11.526  11.258  68.167  1.00  0.00    -0.365 NA 
HETATM   18  C   UNL     1      -9.384   9.991  68.181  1.00  0.00    -0.137 C  
HETATM   19  C   UNL     1     -10.676  10.131  70.318  1.00  0.00    -0.352 C  
HETATM   20  C   UNL     1     -10.684  10.302  67.445  1.00  0.00    -0.281 C  
HETATM   21  C   UNL     1      -9.693   9.274  69.503  1.00  0.00    -0.179 C  
HETATM   22  C   UNL     1     -11.846  10.731  69.512  1.00  0.00    -0.308 C  
BRANCH  21  23
HETATM   23  C   UNL     1     -10.094   7.853  69.197  1.00  0.00    -0.197 A  
HETATM   24  N   UNL     1     -11.101   7.234  69.826  1.00  0.00    -0.221 NA 
HETATM   25  O   UNL     1     -11.403   6.121  69.053  1.00  0.00    -0.390 OA 
HETATM   26  C   UNL     1     -10.560   6.061  67.987  1.00  0.00    -0.262 A  
HETATM   27  C   UNL     1      -9.647   7.096  68.074  1.00  0.00    -0.140 A  
HETATM   28  C   UNL     1      -8.663   7.224  67.076  1.00  0.00    -0.123 A  
HETATM   29  C   UNL     1      -8.665   6.305  66.020  1.00  0.00    -0.155 A  
HETATM   30  C   UNL     1      -9.632   5.302  65.957  1.00  0.00    -0.149 A  
HETATM   31  C   UNL     1     -10.607   5.144  66.942  1.00  0.00    -0.234 A  
HETATM   32  F   UNL     1      -9.629   4.469  64.907  1.00  0.00    -0.155 F  
ENDBRANCH  21  23
ENDBRANCH  16  17
ENDBRANCH  15  16
ENDBRANCH   3  15
TORSDOF 4
ENDMDL
MODEL       35
REMARK 921   NORMALIZED FREE ENERGY PREDICTED BY IDOCK:   -7.16 KCAL/MOL
REMARK 922        TOTAL FREE ENERGY PREDICTED BY IDOCK:   -9.11 KCAL/MOL
REMARK 923 INTER-LIGAND FREE ENERGY PREDICTED BY IDOCK:   -9.74 KCAL/MOL
REMARK 924 INTRA-LIGAND FREE ENERGY PREDICTED BY IDOCK:    0.63 KCAL/MOL
REMARK 927      BINDING AFFINITY PREDICTED BY RF-SCORE:    0.00 PKD
ROOT
HETATM    1  C   UNL     1      -7.723  14.484  67.174  1.00  0.00    -0.093 C  
HETATM    2  C   UNL     1      -8.477  15.709  66.729  1.00  0.00    -0.272 C  
HETATM    3  C   UNL     1      -9.504  15.722  65.854  1.00  0.00    -0.377 C  
HETATM    4  C   UNL     1     -10.135  17.042  65.586  1.00  0.00    -0.112 C  
HETATM    5  O   UNL     1      -8.343  19.305  69.122  1.00  0.00    -0.283 OA 
HETATM    6  C   UNL     1      -7.929  19.223  67.761  1.00  0.00    -0.277 C  
HETATM    7  O   UNL     1     -11.068  17.128  64.786  1.00  0.00    -0.909 OA 
HETATM    8  N   UNL     1      -9.621  18.131  66.259  1.00  0.00    -0.275 N  
HETATM    9  C   UNL     1     -10.161  19.434  65.884  1.00  0.00    -0.391 C  
HETATM   10  N   UNL     1      -7.972  16.841  67.313  1.00  0.00    -0.165 NA 
HETATM   11  C   UNL     1      -9.768  20.578  66.800  1.00  0.00    -0.466 C  
HETATM   12  C   UNL     1      -8.515  17.985  67.059  1.00  0.00    -0.237 C  
HETATM   13  C   UNL     1      -8.273  20.525  67.057  1.00  0.00    -0.314 C  
HETATM   14  H   UNL     1      -8.128  18.490  69.563  1.00  0.00     0.000 HD 
ENDROOT
BRANCH   3  15
HETATM   15  C   UNL     1     -10.169  14.552  65.165  1.00  0.00    -0.420 C  
BRANCH  15  16
HETATM   16  C   UNL     1     -11.711  14.482  65.351  1.00  0.00    -0.354 C  
BRANCH  16  17
HETATM   17  N   UNL     1     -12.206  13.316  66.101  1.00  0.00    -0.420 NA 
HETATM   18  C   UNL     1     -10.077  12.059  66.388  1.00  0.00    -0.242 C  
HETATM   19  C   UNL     1     -10.966  13.324  68.355  1.00  0.00    -0.289 C  
HETATM   20  C   UNL     1     -11.493  12.068  65.819  1.00  0.00    -0.320 C  
HETATM   21  C   UNL     1     -10.133  12.107  67.922  1.00  0.00    -0.199 C  
HETATM   22  C   UNL     1     -12.271  13.540  67.561  1.00  0.00    -0.206 C  
BRANCH  21  23
HETATM   23  C   UNL     1     -10.560  10.752  68.429  1.00  0.00    -0.197 A  
HETATM   24  N   UNL     1      -9.968   9.615  68.040  1.00  0.00    -0.154 NA 
HETATM   25  O   UNL     1     -10.361   8.650  68.957  1.00  0.00    -0.208 OA 
HETATM   26  C   UNL     1     -11.206   9.203  69.870  1.00  0.00    -0.102 A  
HETATM   27  C   UNL     1     -11.436  10.524  69.530  1.00  0.00    -0.339 A  
HETATM   28  C   UNL     1     -12.297  11.295  70.334  1.00  0.00    -0.415 A  
HETATM   29  C   UNL     1     -12.870  10.693  71.460  1.00  0.00    -0.567 A  
HETATM   30  C   UNL     1     -12.576   9.368  71.782  1.00  0.00    -0.387 A  
HETATM   31  C   UNL     1     -11.739   8.578  70.993  1.00  0.00    -0.310 A  
HETATM   32  F   UNL     1     -13.108   8.841  72.893  1.00  0.00    -0.441 F  
ENDBRANCH  21  23
ENDBRANCH  16  17
ENDBRANCH  15  16
ENDBRANCH   3  15
TORSDOF 4
ENDMDL
MODEL       36
REMARK 921   NORMALIZED FREE ENERGY PREDICTED BY IDOCK:   -7.16 KCAL/MOL
REMARK 922        TOTAL FREE ENERGY PREDICTED BY IDOCK:   -9.10 KCAL/MOL
REMARK 923 INTER-LIGAND FREE ENERGY PREDICTED BY IDOCK:   -9.16 KCAL/MOL
REMARK 924 INTRA-LIGAND FREE ENERGY PREDICTED BY IDOCK:    0.05 KCAL/MOL
REMARK 927      BINDING AFFINITY PREDICTED BY RF-SCORE:    0.00 PKD
ROOT
HETATM    1  C   UNL     1     -12.439   9.368  71.860  1.00  0.00    -0.468 C  
HETATM    2  C   UNL     1     -11.581   9.051  70.664  1.00  0.00    -0.224 C  
HETATM    3  C   UNL     1     -11.397   9.854  69.596  1.00  0.00    -0.212 C  
HETATM    4  C   UNL     1     -10.472   9.360  68.541  1.00  0.00    -0.208 C  
HETATM    5  O   UNL     1      -8.509   6.026  70.962  1.00  0.00    -0.122 OA 
HETATM    6  C   UNL     1      -9.590   5.992  70.035  1.00  0.00    -0.163 C  
HETATM    7  O   UNL     1     -10.271  10.037  67.532  1.00  0.00    -0.186 OA 
HETATM    8  N   UNL     1      -9.881   8.131  68.750  1.00  0.00    -0.171 N  
HETATM    9  C   UNL     1      -9.085   7.604  67.647  1.00  0.00    -0.129 C  
HETATM   10  N   UNL     1     -11.012   7.808  70.778  1.00  0.00    -0.248 NA 
HETATM   11  C   UNL     1      -8.249   6.384  67.987  1.00  0.00    -0.116 C  
HETATM   12  C   UNL     1     -10.225   7.381  69.847  1.00  0.00    -0.211 C  
HETATM   13  C   UNL     1      -9.109   5.377  68.731  1.00  0.00    -0.135 C  
HETATM   14  H   UNL     1      -8.809   6.411  71.778  1.00  0.00     0.000 HD 
ENDROOT
BRANCH   3  15
HETATM   15  C   UNL     1     -11.940  11.246  69.360  1.00  0.00    -0.410 C  
BRANCH  15  16
HETATM   16  C   UNL     1     -10.870  12.297  68.952  1.00  0.00    -0.196 C  
BRANCH  16  17
HETATM   17  N   UNL     1     -11.347  13.376  68.070  1.00  0.00    -0.270 NA 
HETATM   18  C   UNL     1      -9.374  14.891  68.147  1.00  0.00    -0.193 C  
HETATM   19  C   UNL     1      -9.695  13.488  66.102  1.00  0.00    -0.264 C  
HETATM   20  C   UNL     1     -10.862  14.710  68.432  1.00  0.00    -0.245 C  
HETATM   21  C   UNL     1      -9.119  14.809  66.635  1.00  0.00    -0.300 C  
HETATM   22  C   UNL     1     -11.094  13.120  66.636  1.00  0.00    -0.292 C  
BRANCH  21  23
HETATM   23  C   UNL     1      -9.601  16.089  65.997  1.00  0.00    -0.350 A  
HETATM   24  N   UNL     1     -10.536  16.111  65.039  1.00  0.00    -0.634 NA 
HETATM   25  O   UNL     1     -10.972  17.427  64.965  1.00  0.00    -0.703 OA 
HETATM   26  C   UNL     1     -10.278  18.189  65.854  1.00  0.00    -0.234 A  
HETATM   27  C   UNL     1      -9.329  17.402  66.480  1.00  0.00    -0.288 A  
HETATM   28  C   UNL     1      -8.480  17.988  67.439  1.00  0.00    -0.240 A  
HETATM   29  C   UNL     1      -8.649  19.346  67.732  1.00  0.00    -0.349 A  
HETATM   30  C   UNL     1      -9.648  20.088  67.101  1.00  0.00    -0.402 A  
HETATM   31  C   UNL     1     -10.490  19.535  66.136  1.00  0.00    -0.613 A  
HETATM   32  F   UNL     1      -9.808  21.374  67.443  1.00  0.00    -0.581 F  
ENDBRANCH  21  23
ENDBRANCH  16  17
ENDBRANCH  15  16
ENDBRANCH   3  15
TORSDOF 4
ENDMDL
MODEL       37
REMARK 921   NORMALIZED FREE ENERGY PREDICTED BY IDOCK:   -7.11 KCAL/MOL
REMARK 922        TOTAL FREE ENERGY PREDICTED BY IDOCK:   -9.04 KCAL/MOL
REMARK 923 INTER-LIGAND FREE ENERGY PREDICTED BY IDOCK:   -8.49 KCAL/MOL
REMARK 924 INTRA-LIGAND FREE ENERGY PREDICTED BY IDOCK:   -0.55 KCAL/MOL
REMARK 927      BINDING AFFINITY PREDICTED BY RF-SCORE:    0.00 PKD
ROOT
HETATM    1  C   UNL     1      -6.357  14.843  68.498  1.00  0.00    -0.093 C  
HETATM    2  C   UNL     1      -6.791  16.156  67.900  1.00  0.00    -0.137 C  
HETATM    3  C   UNL     1      -7.767  16.314  66.983  1.00  0.00    -0.250 C  
HETATM    4  C   UNL     1      -8.062  17.708  66.556  1.00  0.00    -0.270 C  
HETATM    5  O   UNL     1      -5.857  19.856  69.926  1.00  0.00    -0.251 OA 
HETATM    6  C   UNL     1      -5.447  19.534  68.600  1.00  0.00    -0.201 C  
HETATM    7  O   UNL     1      -8.931  17.923  65.710  1.00  0.00    -0.492 OA 
HETATM    8  N   UNL     1      -7.318  18.713  67.140  1.00  0.00    -0.209 N  
HETATM    9  C   UNL     1      -7.527  20.057  66.613  1.00  0.00    -0.270 C  
HETATM   10  N   UNL     1      -6.043  17.195  68.391  1.00  0.00    -0.143 NA 
HETATM   11  C   UNL     1      -6.892  21.170  67.427  1.00  0.00    -0.405 C  
HETATM   12  C   UNL     1      -6.295  18.399  67.999  1.00  0.00    -0.193 C  
HETATM   13  C   UNL     1      -5.458  20.797  67.755  1.00  0.00    -0.290 C  
HETATM   14  H   UNL     1      -5.850  19.067  70.455  1.00  0.00     0.000 HD 
ENDROOT
BRANCH   3  15
HETATM   15  C   UNL     1      -8.676  15.264  66.384  1.00  0.00    -0.265 C  
BRANCH  15  16
HETATM   16  C   UNL     1     -10.026  15.073  67.133  1.00  0.00    -0.237 C  
BRANCH  16  17
HETATM   17  N   UNL     1      -9.947  14.330  68.401  1.00  0.00    -0.235 NA 
HETATM   18  C   UNL     1     -12.282  13.481  68.542  1.00  0.00    -0.160 C  
HETATM   19  C   UNL     1     -10.494  11.879  67.839  1.00  0.00    -0.225 C  
HETATM   20  C   UNL     1     -11.187  14.330  69.180  1.00  0.00    -0.270 C  
HETATM   21  C   UNL     1     -11.859  12.005  68.535  1.00  0.00    -0.369 C  
HETATM   22  C   UNL     1      -9.454  12.945  68.241  1.00  0.00    -0.206 C  
BRANCH  21  23
HETATM   23  C   UNL     1     -11.980  11.464  69.939  1.00  0.00    -0.359 A  
HETATM   24  N   UNL     1     -12.605  12.130  70.918  1.00  0.00    -0.308 NA 
HETATM   25  O   UNL     1     -12.832  11.200  71.923  1.00  0.00    -0.411 OA 
HETATM   26  C   UNL     1     -12.319   9.995  71.556  1.00  0.00    -0.419 A  
HETATM   27  C   UNL     1     -11.687  10.126  70.332  1.00  0.00    -0.390 A  
HETATM   28  C   UNL     1     -11.067   8.999  69.759  1.00  0.00    -0.117 A  
HETATM   29  C   UNL     1     -11.137   7.782  70.448  1.00  0.00    -0.259 A  
HETATM   30  C   UNL     1     -11.820   7.692  71.660  1.00  0.00    -0.291 A  
HETATM   31  C   UNL     1     -12.428   8.797  72.256  1.00  0.00    -0.455 A  
HETATM   32  F   UNL     1     -11.904   6.500  72.265  1.00  0.00    -0.308 F  
ENDBRANCH  21  23
ENDBRANCH  16  17
ENDBRANCH  15  16
ENDBRANCH   3  15
TORSDOF 4
ENDMDL
MODEL       38
REMARK 921   NORMALIZED FREE ENERGY PREDICTED BY IDOCK:   -7.07 KCAL/MOL
REMARK 922        TOTAL FREE ENERGY PREDICTED BY IDOCK:   -9.00 KCAL/MOL
REMARK 923 INTER-LIGAND FREE ENERGY PREDICTED BY IDOCK:   -8.52 KCAL/MOL
REMARK 924 INTRA-LIGAND FREE ENERGY PREDICTED BY IDOCK:   -0.48 KCAL/MOL
REMARK 927      BINDING AFFINITY PREDICTED BY RF-SCORE:    0.00 PKD
ROOT
HETATM    1  C   UNL     1      -8.069  14.738  68.863  1.00  0.00    -0.160 C  
HETATM    2  C   UNL     1      -8.787  15.674  67.926  1.00  0.00    -0.171 C  
HETATM    3  C   UNL     1      -9.398  15.316  66.778  1.00  0.00    -0.265 C  
HETATM    4  C   UNL     1     -10.084  16.399  66.022  1.00  0.00    -0.353 C  
HETATM    5  O   UNL     1     -10.136  19.525  69.348  1.00  0.00    -0.579 OA 
HETATM    6  C   UNL     1      -9.235  19.334  68.261  1.00  0.00    -0.341 C  
HETATM    7  O   UNL     1     -10.648  16.145  64.958  1.00  0.00    -0.588 OA 
HETATM    8  N   UNL     1     -10.041  17.666  66.565  1.00  0.00    -0.335 N  
HETATM    9  C   UNL     1     -10.601  18.736  65.746  1.00  0.00    -0.271 C  
HETATM   10  N   UNL     1      -8.725  16.968  68.375  1.00  0.00    -0.239 NA 
HETATM   11  C   UNL     1     -10.769  20.066  66.458  1.00  0.00    -0.353 C  
HETATM   12  C   UNL     1      -9.308  17.903  67.701  1.00  0.00    -0.258 C  
HETATM   13  C   UNL     1      -9.491  20.399  67.208  1.00  0.00    -0.568 C  
HETATM   14  H   UNL     1      -9.976  18.859  70.007  1.00  0.00     0.000 HD 
ENDROOT
BRANCH   3  15
HETATM   15  C   UNL     1      -9.559  13.933  66.187  1.00  0.00    -0.249 C  
BRANCH  15  16
HETATM   16  C   UNL     1     -10.333  12.931  67.089  1.00  0.00    -0.238 C  
BRANCH  16  17
HETATM   17  N   UNL     1      -9.513  11.886  67.723  1.00  0.00    -0.178 NA 
HETATM   18  C   UNL     1     -11.287  10.631  68.937  1.00  0.00    -0.337 C  
HETATM   19  C   UNL     1     -10.384   9.637  66.826  1.00  0.00    -0.292 C  
HETATM   20  C   UNL     1     -10.001  11.446  69.033  1.00  0.00    -0.067 C  
HETATM   21  C   UNL     1     -11.016   9.317  68.190  1.00  0.00    -0.060 C  
HETATM   22  C   UNL     1      -9.279  10.713  66.853  1.00  0.00    -0.155 C  
BRANCH  21  23
HETATM   23  C   UNL     1     -10.261   8.389  69.109  1.00  0.00    -0.211 A  
HETATM   24  N   UNL     1      -8.999   8.007  68.873  1.00  0.00    -0.141 NA 
HETATM   25  O   UNL     1      -8.532   7.482  70.070  1.00  0.00    -0.134 OA 
HETATM   26  C   UNL     1      -9.520   7.522  71.004  1.00  0.00    -0.160 A  
HETATM   27  C   UNL     1     -10.674   8.015  70.421  1.00  0.00    -0.233 A  
HETATM   28  C   UNL     1     -11.837   8.134  71.205  1.00  0.00    -0.303 A  
HETATM   29  C   UNL     1     -11.770   7.766  72.554  1.00  0.00    -0.393 A  
HETATM   30  C   UNL     1     -10.571   7.312  73.105  1.00  0.00    -0.355 A  
HETATM   31  C   UNL     1      -9.409   7.170  72.346  1.00  0.00    -0.155 A  
HETATM   32  F   UNL     1     -10.535   7.014  74.410  1.00  0.00    -0.378 F  
ENDBRANCH  21  23
ENDBRANCH  16  17
ENDBRANCH  15  16
ENDBRANCH   3  15
TORSDOF 4
ENDMDL
MODEL       39
REMARK 921   NORMALIZED FREE ENERGY PREDICTED BY IDOCK:   -7.03 KCAL/MOL
REMARK 922        TOTAL FREE ENERGY PREDICTED BY IDOCK:   -8.95 KCAL/MOL
REMARK 923 INTER-LIGAND FREE ENERGY PREDICTED BY IDOCK:   -8.54 KCAL/MOL
REMARK 924 INTRA-LIGAND FREE ENERGY PREDICTED BY IDOCK:   -0.40 KCAL/MOL
REMARK 927      BINDING AFFINITY PREDICTED BY RF-SCORE:    0.00 PKD
ROOT
HETATM    1  C   UNL     1     -11.523   6.545  69.273  1.00  0.00    -0.307 C  
HETATM    2  C   UNL     1     -10.591   6.683  68.098  1.00  0.00    -0.241 C  
HETATM    3  C   UNL     1      -9.957   7.815  67.729  1.00  0.00    -0.220 C  
HETATM    4  C   UNL     1      -9.046   7.718  66.557  1.00  0.00    -0.170 C  
HETATM    5  O   UNL     1      -8.750   3.166  66.389  1.00  0.00    -0.117 OA 
HETATM    6  C   UNL     1      -9.582   4.073  65.672  1.00  0.00    -0.190 C  
HETATM    7  O   UNL     1      -8.448   8.717  66.157  1.00  0.00    -0.120 OA 
HETATM    8  N   UNL     1      -8.926   6.481  65.957  1.00  0.00    -0.149 N  
HETATM    9  C   UNL     1      -8.136   6.434  64.731  1.00  0.00    -0.114 C  
HETATM   10  N   UNL     1     -10.477   5.499  67.415  1.00  0.00    -0.226 NA 
HETATM   11  C   UNL     1      -7.811   5.039  64.232  1.00  0.00    -0.091 C  
HETATM   12  C   UNL     1      -9.698   5.431  66.387  1.00  0.00    -0.166 C  
HETATM   13  C   UNL     1      -9.073   4.194  64.245  1.00  0.00    -0.147 C  
HETATM   14  H   UNL     1      -9.069   3.090  67.282  1.00  0.00     0.000 HD 
ENDROOT
BRANCH   3  15
HETATM   15  C   UNL     1      -9.976   9.168  68.404  1.00  0.00    -0.202 C  
BRANCH  15  16
HETATM   16  C   UNL     1     -10.840  10.239  67.682  1.00  0.00    -0.307 C  
BRANCH  16  17
HETATM   17  N   UNL     1     -10.156  11.509  67.384  1.00  0.00    -0.189 NA 
HETATM   18  C   UNL     1     -11.841  12.558  65.883  1.00  0.00    -0.489 C  
HETATM   19  C   UNL     1     -11.698  13.381  68.240  1.00  0.00    -0.391 C  
HETATM   20  C   UNL     1     -10.417  12.035  66.042  1.00  0.00    -0.249 C  
HETATM   21  C   UNL     1     -12.056  13.772  66.797  1.00  0.00    -0.460 C  
HETATM   22  C   UNL     1     -10.402  12.561  68.394  1.00  0.00    -0.230 C  
BRANCH  21  23
HETATM   23  C   UNL     1     -11.341  14.958  66.197  1.00  0.00    -0.307 A  
HETATM   24  N   UNL     1     -11.283  15.173  64.876  1.00  0.00    -0.412 NA 
HETATM   25  O   UNL     1     -10.886  16.495  64.726  1.00  0.00    -0.720 OA 
HETATM   26  C   UNL     1     -10.679  17.053  65.950  1.00  0.00    -0.139 A  
HETATM   27  C   UNL     1     -10.872  16.090  66.924  1.00  0.00    -0.203 A  
HETATM   28  C   UNL     1     -10.699  16.443  68.276  1.00  0.00    -0.337 A  
HETATM   29  C   UNL     1     -10.356  17.766  68.578  1.00  0.00    -0.366 A  
HETATM   30  C   UNL     1     -10.210  18.709  67.561  1.00  0.00    -0.386 A  
HETATM   31  C   UNL     1     -10.360  18.381  66.214  1.00  0.00    -0.440 A  
HETATM   32  F   UNL     1      -9.926  19.976  67.894  1.00  0.00    -0.457 F  
ENDBRANCH  21  23
ENDBRANCH  16  17
ENDBRANCH  15  16
ENDBRANCH   3  15
TORSDOF 4
ENDMDL
MODEL       40
REMARK 921   NORMALIZED FREE ENERGY PREDICTED BY IDOCK:   -6.97 KCAL/MOL
REMARK 922        TOTAL FREE ENERGY PREDICTED BY IDOCK:   -8.87 KCAL/MOL
REMARK 923 INTER-LIGAND FREE ENERGY PREDICTED BY IDOCK:   -8.30 KCAL/MOL
REMARK 924 INTRA-LIGAND FREE ENERGY PREDICTED BY IDOCK:   -0.57 KCAL/MOL
REMARK 927      BINDING AFFINITY PREDICTED BY RF-SCORE:    0.00 PKD
ROOT
HETATM    1  C   UNL     1     -12.076  11.284  70.409  1.00  0.00    -0.474 C  
HETATM    2  C   UNL     1     -11.460  10.185  69.584  1.00  0.00    -0.198 C  
HETATM    3  C   UNL     1     -11.127  10.277  68.280  1.00  0.00    -0.311 C  
HETATM    4  C   UNL     1     -10.491   9.079  67.668  1.00  0.00    -0.260 C  
HETATM    5  O   UNL     1      -9.455   6.894  71.539  1.00  0.00    -0.156 OA 
HETATM    6  C   UNL     1     -10.568   6.756  70.660  1.00  0.00    -0.224 C  
HETATM    7  O   UNL     1     -10.176   9.089  66.478  1.00  0.00    -0.278 OA 
HETATM    8  N   UNL     1     -10.292   7.987  68.488  1.00  0.00    -0.207 N  
HETATM    9  C   UNL     1      -9.792   6.779  67.840  1.00  0.00    -0.129 C  
HETATM   10  N   UNL     1     -11.294   9.043  70.325  1.00  0.00    -0.223 NA 
HETATM   11  C   UNL     1      -9.347   5.682  68.789  1.00  0.00    -0.145 C  
HETATM   12  C   UNL     1     -10.758   8.003  69.779  1.00  0.00    -0.231 C  
HETATM   13  C   UNL     1     -10.410   5.477  69.854  1.00  0.00    -0.368 C  
HETATM   14  H   UNL     1      -9.554   7.693  72.043  1.00  0.00     0.000 HD 
ENDROOT
BRANCH   3  15
HETATM   15  C   UNL     1     -11.233  11.475  67.363  1.00  0.00    -0.367 C  
BRANCH  15  16
HETATM   16  C   UNL     1      -9.972  12.383  67.338  1.00  0.00    -0.202 C  
BRANCH  16  17
HETATM   17  N   UNL     1     -10.111  13.680  68.022  1.00  0.00    -0.243 NA 
HETATM   18  C   UNL     1      -8.790  15.119  66.481  1.00  0.00    -0.312 C  
HETATM   19  C   UNL     1     -11.284  15.254  66.359  1.00  0.00    -0.224 C  
HETATM   20  C   UNL     1      -8.948  14.560  67.892  1.00  0.00    -0.187 C  
HETATM   21  C   UNL     1      -9.977  16.033  66.146  1.00  0.00    -0.347 C  
HETATM   22  C   UNL     1     -11.341  14.412  67.650  1.00  0.00    -0.329 C  
BRANCH  21  23
HETATM   23  C   UNL     1      -9.808  17.333  66.894  1.00  0.00    -0.287 A  
HETATM   24  N   UNL     1     -10.770  17.851  67.668  1.00  0.00    -0.383 NA 
HETATM   25  O   UNL     1     -10.148  18.811  68.454  1.00  0.00    -0.365 OA 
HETATM   26  C   UNL     1      -8.828  18.885  68.128  1.00  0.00    -0.308 A  
HETATM   27  C   UNL     1      -8.573  18.021  67.078  1.00  0.00    -0.254 A  
HETATM   28  C   UNL     1      -7.266  17.940  66.563  1.00  0.00    -0.273 A  
HETATM   29  C   UNL     1      -6.270  18.726  67.155  1.00  0.00    -0.184 A  
HETATM   30  C   UNL     1      -6.570  19.552  68.238  1.00  0.00    -0.261 A  
HETATM   31  C   UNL     1      -7.860  19.663  68.756  1.00  0.00    -0.332 A  
HETATM   32  F   UNL     1      -5.580  20.254  68.806  1.00  0.00    -0.238 F  
ENDBRANCH  21  23
ENDBRANCH  16  17
ENDBRANCH  15  16
ENDBRANCH   3  15
TORSDOF 4
ENDMDL
MODEL       41
REMARK 921   NORMALIZED FREE ENERGY PREDICTED BY IDOCK:   -6.95 KCAL/MOL
REMARK 922        TOTAL FREE ENERGY PREDICTED BY IDOCK:   -8.85 KCAL/MOL
REMARK 923 INTER-LIGAND FREE ENERGY PREDICTED BY IDOCK:   -8.07 KCAL/MOL
REMARK 924 INTRA-LIGAND FREE ENERGY PREDICTED BY IDOCK:   -0.78 KCAL/MOL
REMARK 927      BINDING AFFINITY PREDICTED BY RF-SCORE:    0.00 PKD
ROOT
HETATM    1  C   UNL     1      -7.719  10.849  67.884  1.00  0.00    -0.104 C  
HETATM    2  C   UNL     1      -8.549  11.079  66.648  1.00  0.00    -0.157 C  
HETATM    3  C   UNL     1      -8.527  10.315  65.537  1.00  0.00    -0.167 C  
HETATM    4  C   UNL     1      -9.461  10.699  64.445  1.00  0.00    -0.269 C  
HETATM    5  O   UNL     1     -12.114  13.510  66.872  1.00  0.00    -0.390 OA 
HETATM    6  C   UNL     1     -11.004  13.779  66.021  1.00  0.00    -0.284 C  
HETATM    7  O   UNL     1      -9.482  10.054  63.396  1.00  0.00    -0.294 OA 
HETATM    8  N   UNL     1     -10.269  11.795  64.668  1.00  0.00    -0.271 N  
HETATM    9  C   UNL     1     -11.080  12.237  63.538  1.00  0.00    -0.464 C  
HETATM   10  N   UNL     1      -9.331  12.197  66.778  1.00  0.00    -0.206 NA 
HETATM   11  C   UNL     1     -12.134  13.275  63.874  1.00  0.00    -0.531 C  
HETATM   12  C   UNL     1     -10.125  12.532  65.816  1.00  0.00    -0.262 C  
HETATM   13  C   UNL     1     -11.508  14.373  64.716  1.00  0.00    -0.402 C  
HETATM   14  H   UNL     1     -11.799  13.139  67.689  1.00  0.00     0.000 HD 
ENDROOT
BRANCH   3  15
HETATM   15  C   UNL     1      -7.736   9.052  65.278  1.00  0.00    -0.100 C  
BRANCH  15  16
HETATM   16  C   UNL     1      -8.592   7.756  65.207  1.00  0.00    -0.042 C  
BRANCH  16  17
HETATM   17  N   UNL     1      -8.399   6.808  66.317  1.00  0.00    -0.120 NA 
HETATM   18  C   UNL     1     -10.201   7.580  67.851  1.00  0.00    -0.245 C  
HETATM   19  C   UNL     1     -10.598   5.491  66.535  1.00  0.00    -0.343 C  
HETATM   20  C   UNL     1      -8.706   7.358  67.640  1.00  0.00    -0.125 C  
HETATM   21  C   UNL     1     -10.935   6.231  67.839  1.00  0.00    -0.421 C  
HETATM   22  C   UNL     1      -9.111   5.526  66.127  1.00  0.00    -0.150 C  
BRANCH  21  23
HETATM   23  C   UNL     1     -10.654   5.520  69.139  1.00  0.00    -0.230 A  
HETATM   24  N   UNL     1      -9.901   4.415  69.210  1.00  0.00    -0.183 NA 
HETATM   25  O   UNL     1      -9.570   4.267  70.550  1.00  0.00    -0.164 OA 
HETATM   26  C   UNL     1     -10.149   5.261  71.277  1.00  0.00    -0.213 A  
HETATM   27  C   UNL     1     -10.923   6.042  70.438  1.00  0.00    -0.399 A  
HETATM   28  C   UNL     1     -11.631   7.132  70.980  1.00  0.00    -0.345 A  
HETATM   29  C   UNL     1     -11.502   7.392  72.349  1.00  0.00    -0.343 A  
HETATM   30  C   UNL     1     -10.677   6.598  73.146  1.00  0.00    -0.278 A  
HETATM   31  C   UNL     1      -9.979   5.503  72.636  1.00  0.00    -0.194 A  
HETATM   32  F   UNL     1     -10.544   6.906  74.443  1.00  0.00    -0.372 F  
ENDBRANCH  21  23
ENDBRANCH  16  17
ENDBRANCH  15  16
ENDBRANCH   3  15
TORSDOF 4
ENDMDL
MODEL       42
REMARK 921   NORMALIZED FREE ENERGY PREDICTED BY IDOCK:   -6.88 KCAL/MOL
REMARK 922        TOTAL FREE ENERGY PREDICTED BY IDOCK:   -8.77 KCAL/MOL
REMARK 923 INTER-LIGAND FREE ENERGY PREDICTED BY IDOCK:   -8.24 KCAL/MOL
REMARK 924 INTRA-LIGAND FREE ENERGY PREDICTED BY IDOCK:   -0.52 KCAL/MOL
REMARK 927      BINDING AFFINITY PREDICTED BY RF-SCORE:    0.00 PKD
ROOT
HETATM    1  C   UNL     1      -8.281  14.824  69.149  1.00  0.00    -0.106 C  
HETATM    2  C   UNL     1      -8.910  15.774  68.164  1.00  0.00    -0.178 C  
HETATM    3  C   UNL     1      -9.449  15.428  66.977  1.00  0.00    -0.232 C  
HETATM    4  C   UNL     1     -10.056  16.524  66.175  1.00  0.00    -0.348 C  
HETATM    5  O   UNL     1     -10.262  19.660  69.485  1.00  0.00    -0.619 OA 
HETATM    6  C   UNL     1      -9.292  19.445  68.463  1.00  0.00    -0.388 C  
HETATM    7  O   UNL     1     -10.552  16.280  65.074  1.00  0.00    -0.620 OA 
HETATM    8  N   UNL     1     -10.020  17.792  66.717  1.00  0.00    -0.317 N  
HETATM    9  C   UNL     1     -10.497  18.872  65.861  1.00  0.00    -0.391 C  
HETATM   10  N   UNL     1      -8.849  17.067  68.614  1.00  0.00    -0.265 NA 
HETATM   11  C   UNL     1     -10.681  20.208  66.557  1.00  0.00    -0.234 C  
HETATM   12  C   UNL     1      -9.362  18.014  67.901  1.00  0.00    -0.264 C  
HETATM   13  C   UNL     1      -9.451  20.513  67.393  1.00  0.00    -0.551 C  
HETATM   14  H   UNL     1     -10.163  18.993  70.154  1.00  0.00     0.000 HD 
ENDROOT
BRANCH   3  15
HETATM   15  C   UNL     1      -9.602  14.047  66.379  1.00  0.00    -0.299 C  
BRANCH  15  16
HETATM   16  C   UNL     1     -10.785  13.219  66.957  1.00  0.00    -0.260 C  
BRANCH  16  17
HETATM   17  N   UNL     1     -10.671  11.760  66.802  1.00  0.00    -0.241 NA 
HETATM   18  C   UNL     1      -8.562  11.361  68.062  1.00  0.00    -0.147 C  
HETATM   19  C   UNL     1     -10.723  10.772  69.177  1.00  0.00    -0.265 C  
HETATM   20  C   UNL     1      -9.295  11.265  66.727  1.00  0.00    -0.177 C  
HETATM   21  C   UNL     1      -9.227  10.431  69.088  1.00  0.00    -0.202 C  
HETATM   22  C   UNL     1     -11.424  10.999  67.822  1.00  0.00    -0.261 C  
BRANCH  21  23
HETATM   23  C   UNL     1      -8.853   9.007  68.758  1.00  0.00    -0.137 A  
HETATM   24  N   UNL     1      -7.696   8.682  68.168  1.00  0.00    -0.101 NA 
HETATM   25  O   UNL     1      -7.546   7.315  68.356  1.00  0.00    -0.112 OA 
HETATM   26  C   UNL     1      -8.623   6.824  69.028  1.00  0.00    -0.131 A  
HETATM   27  C   UNL     1      -9.531   7.847  69.235  1.00  0.00    -0.152 A  
HETATM   28  C   UNL     1     -10.736   7.565  69.906  1.00  0.00    -0.254 A  
HETATM   29  C   UNL     1     -10.955   6.258  70.355  1.00  0.00    -0.385 A  
HETATM   30  C   UNL     1      -9.991   5.269  70.156  1.00  0.00    -0.243 A  
HETATM   31  C   UNL     1      -8.796   5.520  69.480  1.00  0.00    -0.115 A  
HETATM   32  F   UNL     1     -10.217   4.041  70.640  1.00  0.00    -0.251 F  
ENDBRANCH  21  23
ENDBRANCH  16  17
ENDBRANCH  15  16
ENDBRANCH   3  15
TORSDOF 4
ENDMDL
MODEL       43
REMARK 921   NORMALIZED FREE ENERGY PREDICTED BY IDOCK:   -6.88 KCAL/MOL
REMARK 922        TOTAL FREE ENERGY PREDICTED BY IDOCK:   -8.76 KCAL/MOL
REMARK 923 INTER-LIGAND FREE ENERGY PREDICTED BY IDOCK:   -8.09 KCAL/MOL
REMARK 924 INTRA-LIGAND FREE ENERGY PREDICTED BY IDOCK:   -0.68 KCAL/MOL
REMARK 927      BINDING AFFINITY PREDICTED BY RF-SCORE:    0.00 PKD
ROOT
HETATM    1  C   UNL     1     -11.587  10.053  70.826  1.00  0.00    -0.444 C  
HETATM    2  C   UNL     1     -10.795   9.089  69.983  1.00  0.00    -0.231 C  
HETATM    3  C   UNL     1     -10.579   9.202  68.656  1.00  0.00    -0.207 C  
HETATM    4  C   UNL     1      -9.731   8.155  68.027  1.00  0.00    -0.161 C  
HETATM    5  O   UNL     1      -7.974   6.407  71.860  1.00  0.00    -0.103 OA 
HETATM    6  C   UNL     1      -9.082   5.990  71.067  1.00  0.00    -0.143 C  
HETATM    7  O   UNL     1      -9.507   8.189  66.816  1.00  0.00    -0.170 OA 
HETATM    8  N   UNL     1      -9.236   7.168  68.854  1.00  0.00    -0.138 N  
HETATM    9  C   UNL     1      -8.520   6.078  68.199  1.00  0.00    -0.115 C  
HETATM   10  N   UNL     1     -10.327   8.042  70.735  1.00  0.00    -0.198 NA 
HETATM   11  C   UNL     1      -7.777   5.145  69.137  1.00  0.00    -0.080 C  
HETATM   12  C   UNL     1      -9.607   7.128  70.175  1.00  0.00    -0.168 C  
HETATM   13  C   UNL     1      -8.693   4.749  70.281  1.00  0.00    -0.121 C  
HETATM   14  H   UNL     1      -8.216   7.183  72.351  1.00  0.00     0.000 HD 
ENDROOT
BRANCH   3  15
HETATM   15  C   UNL     1     -11.014  10.310  67.723  1.00  0.00    -0.360 C  
BRANCH  15  16
HETATM   16  C   UNL     1      -9.956  11.428  67.510  1.00  0.00    -0.182 C  
BRANCH  16  17
HETATM   17  N   UNL     1     -10.061  12.581  68.420  1.00  0.00    -0.224 NA 
HETATM   18  C   UNL     1      -9.848  14.440  66.778  1.00  0.00    -0.269 C  
HETATM   19  C   UNL     1     -12.127  13.915  67.664  1.00  0.00    -0.342 C  
HETATM   20  C   UNL     1      -9.275  13.747  68.011  1.00  0.00    -0.195 C  
HETATM   21  C   UNL     1     -11.228  15.029  67.106  1.00  0.00    -0.336 C  
HETATM   22  C   UNL     1     -11.456  12.987  68.697  1.00  0.00    -0.307 C  
BRANCH  21  23
HETATM   23  C   UNL     1     -11.034  16.261  67.954  1.00  0.00    -0.310 A  
HETATM   24  N   UNL     1     -11.025  16.223  69.293  1.00  0.00    -0.301 NA 
HETATM   25  O   UNL     1     -10.473  17.429  69.702  1.00  0.00    -0.176 OA 
HETATM   26  C   UNL     1     -10.183  18.193  68.614  1.00  0.00    -0.366 A  
HETATM   27  C   UNL     1     -10.600  17.531  67.473  1.00  0.00    -0.333 A  
HETATM   28  C   UNL     1     -10.411  18.145  66.220  1.00  0.00    -0.407 A  
HETATM   29  C   UNL     1      -9.786  19.397  66.182  1.00  0.00    -0.461 A  
HETATM   30  C   UNL     1      -9.349  20.006  67.358  1.00  0.00    -0.371 A  
HETATM   31  C   UNL     1      -9.539  19.426  68.613  1.00  0.00    -0.490 A  
HETATM   32  F   UNL     1      -8.714  21.183  67.277  1.00  0.00    -0.377 F  
ENDBRANCH  21  23
ENDBRANCH  16  17
ENDBRANCH  15  16
ENDBRANCH   3  15
TORSDOF 4
ENDMDL
MODEL       44
REMARK 921   NORMALIZED FREE ENERGY PREDICTED BY IDOCK:   -6.88 KCAL/MOL
REMARK 922        TOTAL FREE ENERGY PREDICTED BY IDOCK:   -8.76 KCAL/MOL
REMARK 923 INTER-LIGAND FREE ENERGY PREDICTED BY IDOCK:   -8.08 KCAL/MOL
REMARK 924 INTRA-LIGAND FREE ENERGY PREDICTED BY IDOCK:   -0.67 KCAL/MOL
REMARK 927      BINDING AFFINITY PREDICTED BY RF-SCORE:    0.00 PKD
ROOT
HETATM    1  C   UNL     1     -11.967  15.169  70.494  1.00  0.00    -0.371 C  
HETATM    2  C   UNL     1     -11.424  15.779  69.228  1.00  0.00    -0.365 C  
HETATM    3  C   UNL     1     -11.534  15.250  67.993  1.00  0.00    -0.351 C  
HETATM    4  C   UNL     1     -10.958  16.043  66.874  1.00  0.00    -0.124 C  
HETATM    5  O   UNL     1     -10.488  19.996  69.106  1.00  0.00    -0.609 OA 
HETATM    6  C   UNL     1      -9.552  18.952  68.851  1.00  0.00    -0.342 C  
HETATM    7  O   UNL     1     -11.010  15.611  65.722  1.00  0.00    -0.314 OA 
HETATM    8  N   UNL     1     -10.371  17.249  67.197  1.00  0.00    -0.322 N  
HETATM    9  C   UNL     1      -9.695  17.947  66.109  1.00  0.00    -0.216 C  
HETATM   10  N   UNL     1     -10.767  16.955  69.488  1.00  0.00    -0.293 NA 
HETATM   11  C   UNL     1      -9.278  19.372  66.424  1.00  0.00    -0.403 C  
HETATM   12  C   UNL     1     -10.255  17.626  68.511  1.00  0.00    -0.386 C  
HETATM   13  C   UNL     1      -8.581  19.405  67.773  1.00  0.00    -0.349 C  
HETATM   14  H   UNL     1     -11.095  19.714  69.780  1.00  0.00     0.000 HD 
ENDROOT
BRANCH   3  15
HETATM   15  C   UNL     1     -12.248  13.986  67.570  1.00  0.00    -0.258 C  
BRANCH  15  16
HETATM   16  C   UNL     1     -11.573  12.670  68.050  1.00  0.00    -0.343 C  
BRANCH  16  17
HETATM   17  N   UNL     1     -11.550  11.575  67.066  1.00  0.00    -0.535 NA 
HETATM   18  C   UNL     1      -9.674  12.340  65.621  1.00  0.00    -0.205 C  
HETATM   19  C   UNL     1      -9.224  10.490  67.242  1.00  0.00    -0.156 C  
HETATM   20  C   UNL     1     -11.155  11.983  65.716  1.00  0.00    -0.324 C  
HETATM   21  C   UNL     1      -8.820  11.092  65.888  1.00  0.00    -0.193 C  
HETATM   22  C   UNL     1     -10.744  10.413  67.497  1.00  0.00    -0.287 C  
BRANCH  21  23
HETATM   23  C   UNL     1      -8.887  10.196  64.676  1.00  0.00    -0.196 A  
HETATM   24  N   UNL     1      -8.999  10.673  63.430  1.00  0.00    -0.203 NA 
HETATM   25  O   UNL     1      -8.667   9.619  62.590  1.00  0.00    -0.185 OA 
HETATM   26  C   UNL     1      -8.389   8.513  63.331  1.00  0.00    -0.091 A  
HETATM   27  C   UNL     1      -8.596   8.801  64.668  1.00  0.00    -0.140 A  
HETATM   28  C   UNL     1      -8.380   7.791  65.626  1.00  0.00    -0.143 A  
HETATM   29  C   UNL     1      -7.941   6.538  65.181  1.00  0.00    -0.123 A  
HETATM   30  C   UNL     1      -7.709   6.309  63.825  1.00  0.00    -0.107 A  
HETATM   31  C   UNL     1      -7.931   7.288  62.856  1.00  0.00    -0.106 A  
HETATM   32  F   UNL     1      -7.246   5.111  63.444  1.00  0.00    -0.044 F  
ENDBRANCH  21  23
ENDBRANCH  16  17
ENDBRANCH  15  16
ENDBRANCH   3  15
TORSDOF 4
ENDMDL
MODEL       45
REMARK 921   NORMALIZED FREE ENERGY PREDICTED BY IDOCK:   -6.86 KCAL/MOL
REMARK 922        TOTAL FREE ENERGY PREDICTED BY IDOCK:   -8.73 KCAL/MOL
REMARK 923 INTER-LIGAND FREE ENERGY PREDICTED BY IDOCK:   -8.50 KCAL/MOL
REMARK 924 INTRA-LIGAND FREE ENERGY PREDICTED BY IDOCK:   -0.23 KCAL/MOL
REMARK 927      BINDING AFFINITY PREDICTED BY RF-SCORE:    0.00 PKD
ROOT
HETATM    1  C   UNL     1     -10.043  17.823  69.167  1.00  0.00    -0.220 C  
HETATM    2  C   UNL     1     -10.802  16.560  69.481  1.00  0.00    -0.315 C  
HETATM    3  C   UNL     1     -10.849  15.460  68.701  1.00  0.00    -0.259 C  
HETATM    4  C   UNL     1     -11.628  14.306  69.223  1.00  0.00    -0.306 C  
HETATM    5  O   UNL     1     -11.977  15.712  73.552  1.00  0.00    -0.443 OA 
HETATM    6  C   UNL     1     -12.881  15.831  72.457  1.00  0.00    -0.458 C  
HETATM    7  O   UNL     1     -11.726  13.276  68.556  1.00  0.00    -0.310 OA 
HETATM    8  N   UNL     1     -12.226  14.459  70.457  1.00  0.00    -0.318 N  
HETATM    9  C   UNL     1     -13.095  13.370  70.892  1.00  0.00    -0.041 C  
HETATM   10  N   UNL     1     -11.476  16.670  70.669  1.00  0.00    -0.015 NA 
HETATM   11  C   UNL     1     -13.538  13.444  72.341  1.00  0.00    -0.708 C  
HETATM   12  C   UNL     1     -12.165  15.668  71.104  1.00  0.00    -0.413 C  
HETATM   13  C   UNL     1     -14.026  14.849  72.647  1.00  0.00    -0.457 C  
HETATM   14  H   UNL     1     -11.261  16.326  73.434  1.00  0.00     0.000 HD 
ENDROOT
BRANCH   3  15
HETATM   15  C   UNL     1     -10.137  15.203  67.392  1.00  0.00    -0.229 C  
BRANCH  15  16
HETATM   16  C   UNL     1     -10.994  15.481  66.125  1.00  0.00    -0.247 C  
BRANCH  16  17
HETATM   17  N   UNL     1     -10.657  14.670  64.943  1.00  0.00    -0.435 NA 
HETATM   18  C   UNL     1      -9.904  12.578  66.063  1.00  0.00    -0.266 C  
HETATM   19  C   UNL     1     -12.180  12.598  65.027  1.00  0.00    -0.535 C  
HETATM   20  C   UNL     1      -9.542  13.742  65.144  1.00  0.00     0.232 C  
HETATM   21  C   UNL     1     -10.983  11.710  65.401  1.00  0.00    -0.328 C  
HETATM   22  C   UNL     1     -11.816  13.947  64.375  1.00  0.00    -0.429 C  
BRANCH  21  23
HETATM   23  C   UNL     1     -10.342  10.902  64.300  1.00  0.00    -0.368 A  
HETATM   24  N   UNL     1     -10.442  11.236  63.007  1.00  0.00    -0.212 NA 
HETATM   25  O   UNL     1      -9.458  10.509  62.352  1.00  0.00    -0.262 OA 
HETATM   26  C   UNL     1      -8.797   9.723  63.245  1.00  0.00    -0.245 A  
HETATM   27  C   UNL     1      -9.376   9.871  64.492  1.00  0.00    -0.336 A  
HETATM   28  C   UNL     1      -8.859   9.137  65.577  1.00  0.00    -0.229 A  
HETATM   29  C   UNL     1      -7.759   8.302  65.348  1.00  0.00    -0.103 A  
HETATM   30  C   UNL     1      -7.186   8.217  64.080  1.00  0.00    -0.090 A  
HETATM   31  C   UNL     1      -7.690   8.921  62.986  1.00  0.00    -0.114 A  
HETATM   32  F   UNL     1      -6.106   7.442  63.911  1.00  0.00    -0.044 F  
ENDBRANCH  21  23
ENDBRANCH  16  17
ENDBRANCH  15  16
ENDBRANCH   3  15
TORSDOF 4
ENDMDL
MODEL       46
REMARK 921   NORMALIZED FREE ENERGY PREDICTED BY IDOCK:   -6.85 KCAL/MOL
REMARK 922        TOTAL FREE ENERGY PREDICTED BY IDOCK:   -8.72 KCAL/MOL
REMARK 923 INTER-LIGAND FREE ENERGY PREDICTED BY IDOCK:   -8.29 KCAL/MOL
REMARK 924 INTRA-LIGAND FREE ENERGY PREDICTED BY IDOCK:   -0.43 KCAL/MOL
REMARK 927      BINDING AFFINITY PREDICTED BY RF-SCORE:    0.00 PKD
ROOT
HETATM    1  C   UNL     1     -10.344   9.020  67.033  1.00  0.00    -0.339 C  
HETATM    2  C   UNL     1      -9.472   9.142  65.811  1.00  0.00    -0.254 C  
HETATM    3  C   UNL     1      -9.650  10.025  64.807  1.00  0.00    -0.374 C  
HETATM    4  C   UNL     1      -8.643  10.001  63.712  1.00  0.00    -0.198 C  
HETATM    5  O   UNL     1      -5.463   7.529  65.859  1.00  0.00    -0.027 OA 
HETATM    6  C   UNL     1      -6.480   7.143  64.938  1.00  0.00    -0.037 C  
HETATM    7  O   UNL     1      -8.754  10.770  62.756  1.00  0.00    -0.208 OA 
HETATM    8  N   UNL     1      -7.617   9.086  63.823  1.00  0.00    -0.111 N  
HETATM    9  C   UNL     1      -6.719   8.984  62.678  1.00  0.00    -0.093 C  
HETATM   10  N   UNL     1      -8.465   8.212  65.826  1.00  0.00    -0.142 NA 
HETATM   11  C   UNL     1      -5.466   8.162  62.919  1.00  0.00    -0.060 C  
HETATM   12  C   UNL     1      -7.608   8.188  64.861  1.00  0.00    -0.098 C  
HETATM   13  C   UNL     1      -5.845   6.853  63.588  1.00  0.00    -0.036 C  
HETATM   14  H   UNL     1      -5.860   7.711  66.703  1.00  0.00     0.000 HD 
ENDROOT
BRANCH   3  15
HETATM   15  C   UNL     1     -10.695  11.111  64.682  1.00  0.00    -0.350 C  
BRANCH  15  16
HETATM   16  C   UNL     1     -10.160  12.553  64.909  1.00  0.00    -0.226 C  
BRANCH  16  17
HETATM   17  N   UNL     1      -9.879  12.911  66.309  1.00  0.00    -0.270 NA 
HETATM   18  C   UNL     1     -10.901  15.180  66.381  1.00  0.00    -0.326 C  
HETATM   19  C   UNL     1     -12.162  13.293  67.432  1.00  0.00    -0.236 C  
HETATM   20  C   UNL     1      -9.636  14.339  66.530  1.00  0.00    -0.297 C  
HETATM   21  C   UNL     1     -11.906  14.808  67.480  1.00  0.00    -0.326 C  
HETATM   22  C   UNL     1     -10.901  12.421  67.258  1.00  0.00    -0.243 C  
BRANCH  21  23
HETATM   23  C   UNL     1     -11.430  15.394  68.786  1.00  0.00    -0.341 A  
HETATM   24  N   UNL     1     -10.708  16.521  68.851  1.00  0.00    -0.316 NA 
HETATM   25  O   UNL     1     -10.772  16.935  70.174  1.00  0.00    -0.158 OA 
HETATM   26  C   UNL     1     -11.502  16.044  70.899  1.00  0.00    -0.416 A  
HETATM   27  C   UNL     1     -11.876  14.994  70.079  1.00  0.00    -0.360 A  
HETATM   28  C   UNL     1     -12.634  13.940  70.623  1.00  0.00    -0.405 A  
HETATM   29  C   UNL     1     -12.996  14.011  71.973  1.00  0.00    -0.450 A  
HETATM   30  C   UNL     1     -12.628  15.111  72.748  1.00  0.00    -0.390 A  
HETATM   31  C   UNL     1     -11.863  16.159  72.237  1.00  0.00    -0.631 A  
HETATM   32  F   UNL     1     -13.033  15.164  74.024  1.00  0.00    -0.570 F  
ENDBRANCH  21  23
ENDBRANCH  16  17
ENDBRANCH  15  16
ENDBRANCH   3  15
TORSDOF 4
ENDMDL
MODEL       47
REMARK 921   NORMALIZED FREE ENERGY PREDICTED BY IDOCK:   -6.83 KCAL/MOL
REMARK 922        TOTAL FREE ENERGY PREDICTED BY IDOCK:   -8.70 KCAL/MOL
REMARK 923 INTER-LIGAND FREE ENERGY PREDICTED BY IDOCK:   -8.31 KCAL/MOL
REMARK 924 INTRA-LIGAND FREE ENERGY PREDICTED BY IDOCK:   -0.39 KCAL/MOL
REMARK 927      BINDING AFFINITY PREDICTED BY RF-SCORE:    0.00 PKD
ROOT
HETATM    1  C   UNL     1     -11.106   6.262  67.940  1.00  0.00    -0.360 C  
HETATM    2  C   UNL     1     -10.134   6.032  66.812  1.00  0.00    -0.187 C  
HETATM    3  C   UNL     1      -9.074   6.813  66.519  1.00  0.00    -0.171 C  
HETATM    4  C   UNL     1      -8.218   6.378  65.384  1.00  0.00    -0.142 C  
HETATM    5  O   UNL     1      -9.793   2.108  65.034  1.00  0.00    -0.347 OA 
HETATM    6  C   UNL     1     -10.141   3.291  64.322  1.00  0.00    -0.152 C  
HETATM    7  O   UNL     1      -7.243   7.054  65.052  1.00  0.00    -0.070 OA 
HETATM    8  N   UNL     1      -8.578   5.213  64.737  1.00  0.00    -0.150 N  
HETATM    9  C   UNL     1      -7.809   4.875  63.545  1.00  0.00    -0.081 C  
HETATM   10  N   UNL     1     -10.474   4.920  66.085  1.00  0.00    -0.305 NA 
HETATM   11  C   UNL     1      -8.053   3.480  63.000  1.00  0.00    -0.073 C  
HETATM   12  C   UNL     1      -9.734   4.562  65.089  1.00  0.00    -0.152 C  
HETATM   13  C   UNL     1      -9.548   3.225  62.924  1.00  0.00    -0.096 C  
HETATM   14  H   UNL     1     -10.163   2.149  65.908  1.00  0.00     0.000 HD 
ENDROOT
BRANCH   3  15
HETATM   15  C   UNL     1      -8.579   8.041  67.250  1.00  0.00    -0.124 C  
BRANCH  15  16
HETATM   16  C   UNL     1      -9.279   9.366  66.838  1.00  0.00    -0.140 C  
BRANCH  16  17
HETATM   17  N   UNL     1      -9.103  10.493  67.770  1.00  0.00    -0.138 NA 
HETATM   18  C   UNL     1     -11.110  11.844  67.189  1.00  0.00    -0.347 C  
HETATM   19  C   UNL     1     -11.172  10.500  69.298  1.00  0.00    -0.320 C  
HETATM   20  C   UNL     1      -9.588  11.778  67.263  1.00  0.00    -0.176 C  
HETATM   21  C   UNL     1     -11.704  11.764  68.603  1.00  0.00    -0.389 C  
HETATM   22  C   UNL     1      -9.664  10.238  69.114  1.00  0.00    -0.217 C  
BRANCH  21  23
HETATM   23  C   UNL     1     -11.481  13.087  69.293  1.00  0.00    -0.289 A  
HETATM   24  N   UNL     1     -10.781  14.083  68.736  1.00  0.00    -0.256 NA 
HETATM   25  O   UNL     1     -11.092  15.221  69.468  1.00  0.00    -0.248 OA 
HETATM   26  C   UNL     1     -11.949  14.897  70.474  1.00  0.00    -0.309 A  
HETATM   27  C   UNL     1     -12.165  13.530  70.462  1.00  0.00    -0.433 A  
HETATM   28  C   UNL     1     -13.017  12.965  71.430  1.00  0.00    -0.362 A  
HETATM   29  C   UNL     1     -13.628  13.819  72.356  1.00  0.00    -0.690 A  
HETATM   30  C   UNL     1     -13.409  15.195  72.302  1.00  0.00    -0.408 A  
HETATM   31  C   UNL     1     -12.557  15.778  71.363  1.00  0.00    -0.516 A  
HETATM   32  F   UNL     1     -14.047  15.984  73.177  1.00  0.00    -0.661 F  
ENDBRANCH  21  23
ENDBRANCH  16  17
ENDBRANCH  15  16
ENDBRANCH   3  15
TORSDOF 4
ENDMDL
MODEL       48
REMARK 921   NORMALIZED FREE ENERGY PREDICTED BY IDOCK:   -6.76 KCAL/MOL
REMARK 922        TOTAL FREE ENERGY PREDICTED BY IDOCK:   -8.61 KCAL/MOL
REMARK 923 INTER-LIGAND FREE ENERGY PREDICTED BY IDOCK:   -7.97 KCAL/MOL
REMARK 924 INTRA-LIGAND FREE ENERGY PREDICTED BY IDOCK:   -0.64 KCAL/MOL
REMARK 927      BINDING AFFINITY PREDICTED BY RF-SCORE:    0.00 PKD
ROOT
HETATM    1  C   UNL     1     -11.479  14.504  67.831  1.00  0.00    -0.348 C  
HETATM    2  C   UNL     1     -10.309  15.418  67.577  1.00  0.00    -0.264 C  
HETATM    3  C   UNL     1      -9.009  15.062  67.636  1.00  0.00    -0.180 C  
HETATM    4  C   UNL     1      -8.013  16.117  67.308  1.00  0.00    -0.174 C  
HETATM    5  O   UNL     1     -10.886  19.086  65.367  1.00  0.00    -0.541 OA 
HETATM    6  C   UNL     1     -10.377  19.014  66.696  1.00  0.00    -0.428 C  
HETATM    7  O   UNL     1      -6.809  15.865  67.357  1.00  0.00    -0.163 OA 
HETATM    8  N   UNL     1      -8.506  17.361  66.968  1.00  0.00    -0.217 N  
HETATM    9  C   UNL     1      -7.516  18.416  66.782  1.00  0.00    -0.219 C  
HETATM   10  N   UNL     1     -10.729  16.693  67.296  1.00  0.00    -0.275 NA 
HETATM   11  C   UNL     1      -8.053  19.697  66.171  1.00  0.00    -0.356 C  
HETATM   12  C   UNL     1      -9.855  17.606  67.032  1.00  0.00    -0.307 C  
HETATM   13  C   UNL     1      -9.330  20.099  66.888  1.00  0.00    -0.522 C  
HETATM   14  H   UNL     1     -11.541  18.408  65.246  1.00  0.00     0.000 HD 
ENDROOT
BRANCH   3  15
HETATM   15  C   UNL     1      -8.418  13.697  67.906  1.00  0.00    -0.177 C  
BRANCH  15  16
HETATM   16  C   UNL     1      -8.806  12.606  66.869  1.00  0.00    -0.201 C  
BRANCH  16  17
HETATM   17  N   UNL     1      -8.536  11.218  67.278  1.00  0.00    -0.140 NA 
HETATM   18  C   UNL     1     -10.352  10.907  68.951  1.00  0.00    -0.222 C  
HETATM   19  C   UNL     1     -10.646   9.867  66.696  1.00  0.00    -0.186 C  
HETATM   20  C   UNL     1      -8.850  10.929  68.679  1.00  0.00    -0.158 C  
HETATM   21  C   UNL     1     -11.003   9.746  68.186  1.00  0.00    -0.228 C  
HETATM   22  C   UNL     1      -9.172  10.212  66.401  1.00  0.00    -0.158 C  
BRANCH  21  23
HETATM   23  C   UNL     1     -10.655   8.455  68.885  1.00  0.00    -0.140 A  
HETATM   24  N   UNL     1      -9.789   7.569  68.377  1.00  0.00    -0.160 NA 
HETATM   25  O   UNL     1      -9.451   6.725  69.426  1.00  0.00    -0.148 OA 
HETATM   26  C   UNL     1     -10.137   7.088  70.544  1.00  0.00    -0.191 A  
HETATM   27  C   UNL     1     -10.985   8.135  70.234  1.00  0.00    -0.240 A  
HETATM   28  C   UNL     1     -11.808   8.669  71.244  1.00  0.00    -0.344 A  
HETATM   29  C   UNL     1     -11.715   8.127  72.532  1.00  0.00    -0.457 A  
HETATM   30  C   UNL     1     -10.814   7.097  72.803  1.00  0.00    -0.300 A  
HETATM   31  C   UNL     1     -10.001   6.539  71.816  1.00  0.00    -0.192 A  
HETATM   32  F   UNL     1     -10.722   6.636  74.057  1.00  0.00    -0.332 F  
ENDBRANCH  21  23
ENDBRANCH  16  17
ENDBRANCH  15  16
ENDBRANCH   3  15
TORSDOF 4
ENDMDL
MODEL       49
REMARK 921   NORMALIZED FREE ENERGY PREDICTED BY IDOCK:   -6.76 KCAL/MOL
REMARK 922        TOTAL FREE ENERGY PREDICTED BY IDOCK:   -8.61 KCAL/MOL
REMARK 923 INTER-LIGAND FREE ENERGY PREDICTED BY IDOCK:   -7.96 KCAL/MOL
REMARK 924 INTRA-LIGAND FREE ENERGY PREDICTED BY IDOCK:   -0.65 KCAL/MOL
REMARK 927      BINDING AFFINITY PREDICTED BY RF-SCORE:    0.00 PKD
ROOT
HETATM    1  C   UNL     1      -6.465   9.735  68.088  1.00  0.00    -0.056 C  
HETATM    2  C   UNL     1      -7.684   8.859  68.215  1.00  0.00    -0.096 C  
HETATM    3  C   UNL     1      -8.710   8.812  67.341  1.00  0.00    -0.132 C  
HETATM    4  C   UNL     1      -9.797   7.841  67.640  1.00  0.00    -0.163 C  
HETATM    5  O   UNL     1      -7.568   5.372  70.766  1.00  0.00    -0.083 OA 
HETATM    6  C   UNL     1      -8.487   6.451  70.912  1.00  0.00    -0.131 C  
HETATM    7  O   UNL     1     -10.771   7.758  66.891  1.00  0.00    -0.345 OA 
HETATM    8  N   UNL     1      -9.656   7.073  68.777  1.00  0.00    -0.139 N  
HETATM    9  C   UNL     1     -10.792   6.226  69.126  1.00  0.00    -0.340 C  
HETATM   10  N   UNL     1      -7.639   8.112  69.365  1.00  0.00    -0.098 NA 
HETATM   11  C   UNL     1     -10.523   5.215  70.225  1.00  0.00    -0.296 C  
HETATM   12  C   UNL     1      -8.597   7.286  69.624  1.00  0.00    -0.137 C  
HETATM   13  C   UNL     1      -9.825   5.906  71.384  1.00  0.00    -0.205 C  
HETATM   14  H   UNL     1      -6.732   5.712  70.471  1.00  0.00     0.000 HD 
ENDROOT
BRANCH   3  15
HETATM   15  C   UNL     1      -8.868   9.557  66.035  1.00  0.00    -0.183 C  
BRANCH  15  16
HETATM   16  C   UNL     1      -9.751  10.833  66.121  1.00  0.00    -0.207 C  
BRANCH  16  17
HETATM   17  N   UNL     1      -9.794  11.485  67.441  1.00  0.00    -0.185 NA 
HETATM   18  C   UNL     1      -9.945  13.867  66.735  1.00  0.00    -0.269 C  
HETATM   19  C   UNL     1     -12.030  12.753  67.551  1.00  0.00    -0.342 C  
HETATM   20  C   UNL     1      -9.153  12.801  67.486  1.00  0.00    -0.193 C  
HETATM   21  C   UNL     1     -11.296  14.097  67.427  1.00  0.00    -0.346 C  
HETATM   22  C   UNL     1     -11.156  11.569  68.011  1.00  0.00    -0.254 C  
BRANCH  21  23
HETATM   23  C   UNL     1     -11.058  14.882  68.694  1.00  0.00    -0.263 A  
HETATM   24  N   UNL     1     -10.331  16.006  68.721  1.00  0.00    -0.226 NA 
HETATM   25  O   UNL     1     -10.632  16.622  69.928  1.00  0.00    -0.275 OA 
HETATM   26  C   UNL     1     -11.510  15.854  70.628  1.00  0.00    -0.400 A  
HETATM   27  C   UNL     1     -11.752  14.688  69.924  1.00  0.00    -0.349 A  
HETATM   28  C   UNL     1     -12.629  13.731  70.468  1.00  0.00    -0.361 A  
HETATM   29  C   UNL     1     -13.238  14.013  71.697  1.00  0.00    -0.442 A  
HETATM   30  C   UNL     1     -12.992  15.221  72.349  1.00  0.00    -0.380 A  
HETATM   31  C   UNL     1     -12.115  16.178  71.838  1.00  0.00    -0.548 A  
HETATM   32  F   UNL     1     -13.629  15.472  73.501  1.00  0.00    -0.510 F  
ENDBRANCH  21  23
ENDBRANCH  16  17
ENDBRANCH  15  16
ENDBRANCH   3  15
TORSDOF 4
ENDMDL
MODEL       50
REMARK 921   NORMALIZED FREE ENERGY PREDICTED BY IDOCK:   -6.74 KCAL/MOL
REMARK 922        TOTAL FREE ENERGY PREDICTED BY IDOCK:   -8.59 KCAL/MOL
REMARK 923 INTER-LIGAND FREE ENERGY PREDICTED BY IDOCK:   -8.65 KCAL/MOL
REMARK 924 INTRA-LIGAND FREE ENERGY PREDICTED BY IDOCK:    0.06 KCAL/MOL
REMARK 927      BINDING AFFINITY PREDICTED BY RF-SCORE:    0.00 PKD
ROOT
HETATM    1  C   UNL     1      -7.637  12.587  67.813  1.00  0.00    -0.138 C  
HETATM    2  C   UNL     1      -8.512  12.151  66.667  1.00  0.00    -0.088 C  
HETATM    3  C   UNL     1      -8.366  11.013  65.959  1.00  0.00    -0.147 C  
HETATM    4  C   UNL     1      -9.370  10.758  64.891  1.00  0.00    -0.222 C  
HETATM    5  O   UNL     1     -12.460  13.848  66.211  1.00  0.00    -0.453 OA 
HETATM    6  C   UNL     1     -11.430  13.920  65.229  1.00  0.00    -0.315 C  
HETATM    7  O   UNL     1      -9.287   9.746  64.195  1.00  0.00    -0.266 OA 
HETATM    8  N   UNL     1     -10.362  11.702  64.726  1.00  0.00    -0.267 N  
HETATM    9  C   UNL     1     -11.257  11.504  63.590  1.00  0.00    -0.362 C  
HETATM   10  N   UNL     1      -9.485  13.081  66.406  1.00  0.00    -0.249 NA 
HETATM   11  C   UNL     1     -12.479  12.403  63.573  1.00  0.00    -0.605 C  
HETATM   12  C   UNL     1     -10.340  12.859  65.464  1.00  0.00    -0.291 C  
HETATM   13  C   UNL     1     -12.053  13.835  63.845  1.00  0.00    -0.423 C  
HETATM   14  H   UNL     1     -12.070  13.901  67.076  1.00  0.00     0.000 HD 
ENDROOT
BRANCH   3  15
HETATM   15  C   UNL     1      -7.360   9.901  66.159  1.00  0.00    -0.104 C  
BRANCH  15  16
HETATM   16  C   UNL     1      -7.757   8.857  67.240  1.00  0.00    -0.092 C  
BRANCH  16  17
HETATM   17  N   UNL     1      -8.931   9.207  68.057  1.00  0.00    -0.129 NA 
HETATM   18  C   UNL     1      -9.821   6.929  68.519  1.00  0.00    -0.144 C  
HETATM   19  C   UNL     1      -8.576   8.093  70.349  1.00  0.00    -0.131 C  
HETATM   20  C   UNL     1     -10.070   8.300  67.897  1.00  0.00    -0.202 C  
HETATM   21  C   UNL     1      -9.677   7.065  70.041  1.00  0.00    -0.171 C  
HETATM   22  C   UNL     1      -8.619   9.375  69.493  1.00  0.00    -0.158 C  
BRANCH  21  23
HETATM   23  C   UNL     1     -11.044   7.307  70.633  1.00  0.00    -0.264 A  
HETATM   24  N   UNL     1     -11.728   6.356  71.282  1.00  0.00    -0.319 NA 
HETATM   25  O   UNL     1     -12.729   7.019  71.978  1.00  0.00    -0.283 OA 
HETATM   26  C   UNL     1     -12.660   8.353  71.721  1.00  0.00    -0.342 A  
HETATM   27  C   UNL     1     -11.653   8.584  70.800  1.00  0.00    -0.257 A  
HETATM   28  C   UNL     1     -11.407   9.903  70.374  1.00  0.00    -0.376 A  
HETATM   29  C   UNL     1     -12.183  10.933  70.920  1.00  0.00    -0.485 A  
HETATM   30  C   UNL     1     -13.160  10.653  71.875  1.00  0.00    -0.458 A  
HETATM   31  C   UNL     1     -13.434   9.353  72.302  1.00  0.00    -0.539 A  
HETATM   32  F   UNL     1     -13.850  11.670  72.408  1.00  0.00    -0.374 F  
ENDBRANCH  21  23
ENDBRANCH  16  17
ENDBRANCH  15  16
ENDBRANCH   3  15
TORSDOF 4
ENDMDL
MODEL       51
REMARK 921   NORMALIZED FREE ENERGY PREDICTED BY IDOCK:   -6.73 KCAL/MOL
REMARK 922        TOTAL FREE ENERGY PREDICTED BY IDOCK:   -8.58 KCAL/MOL
REMARK 923 INTER-LIGAND FREE ENERGY PREDICTED BY IDOCK:   -7.82 KCAL/MOL
REMARK 924 INTRA-LIGAND FREE ENERGY PREDICTED BY IDOCK:   -0.77 KCAL/MOL
REMARK 927      BINDING AFFINITY PREDICTED BY RF-SCORE:    0.00 PKD
ROOT
HETATM    1  C   UNL     1     -12.037  14.014  64.029  1.00  0.00    -0.413 C  
HETATM    2  C   UNL     1     -11.436  14.403  65.355  1.00  0.00    -0.344 C  
HETATM    3  C   UNL     1     -11.186  13.561  66.379  1.00  0.00    -0.322 C  
HETATM    4  C   UNL     1     -10.548  14.151  67.586  1.00  0.00    -0.253 C  
HETATM    5  O   UNL     1      -9.211  18.090  65.707  1.00  0.00    -0.486 OA 
HETATM    6  C   UNL     1     -10.369  17.768  66.472  1.00  0.00    -0.345 C  
HETATM    7  O   UNL     1     -10.306  13.443  68.564  1.00  0.00    -0.240 OA 
HETATM    8  N   UNL     1     -10.264  15.501  67.549  1.00  0.00    -0.250 N  
HETATM    9  C   UNL     1      -9.765  16.088  68.788  1.00  0.00    -0.226 C  
HETATM   10  N   UNL     1     -11.189  15.750  65.410  1.00  0.00    -0.203 NA 
HETATM   11  C   UNL     1      -9.228  17.501  68.656  1.00  0.00    -0.267 C  
HETATM   12  C   UNL     1     -10.652  16.255  66.470  1.00  0.00    -0.256 C  
HETATM   13  C   UNL     1     -10.218  18.343  67.871  1.00  0.00    -0.404 C  
HETATM   14  H   UNL     1      -9.304  17.731  64.833  1.00  0.00     0.000 HD 
ENDROOT
BRANCH   3  15
HETATM   15  C   UNL     1     -11.386  12.064  66.437  1.00  0.00    -0.411 C  
BRANCH  15  16
HETATM   16  C   UNL     1     -10.196  11.230  65.882  1.00  0.00    -0.249 C  
BRANCH  16  17
HETATM   17  N   UNL     1      -9.358  10.570  66.896  1.00  0.00    -0.158 NA 
HETATM   18  C   UNL     1     -10.896   8.744  67.598  1.00  0.00    -0.092 C  
HETATM   19  C   UNL     1      -8.997   8.157  66.080  1.00  0.00    -0.218 C  
HETATM   20  C   UNL     1     -10.106   9.982  68.010  1.00  0.00    -0.167 C  
HETATM   21  C   UNL     1      -9.931   7.626  67.179  1.00  0.00    -0.297 C  
HETATM   22  C   UNL     1      -8.428   9.569  66.330  1.00  0.00    -0.126 C  
BRANCH  21  23
HETATM   23  C   UNL     1      -9.294   7.051  68.420  1.00  0.00    -0.130 A  
HETATM   24  N   UNL     1      -7.973   7.089  68.637  1.00  0.00    -0.118 NA 
HETATM   25  O   UNL     1      -7.804   6.816  69.988  1.00  0.00    -0.106 OA 
HETATM   26  C   UNL     1      -9.015   6.587  70.564  1.00  0.00    -0.152 A  
HETATM   27  C   UNL     1      -9.996   6.641  69.591  1.00  0.00    -0.191 A  
HETATM   28  C   UNL     1     -11.337   6.420  69.959  1.00  0.00    -0.496 A  
HETATM   29  C   UNL     1     -11.622   6.175  71.308  1.00  0.00    -0.271 A  
HETATM   30  C   UNL     1     -10.602   6.171  72.258  1.00  0.00    -0.216 A  
HETATM   31  C   UNL     1      -9.264   6.370  71.916  1.00  0.00    -0.149 A  
HETATM   32  F   UNL     1     -10.921   5.978  73.545  1.00  0.00    -0.261 F  
ENDBRANCH  21  23
ENDBRANCH  16  17
ENDBRANCH  15  16
ENDBRANCH   3  15
TORSDOF 4
ENDMDL
MODEL       52
REMARK 921   NORMALIZED FREE ENERGY PREDICTED BY IDOCK:   -6.73 KCAL/MOL
REMARK 922        TOTAL FREE ENERGY PREDICTED BY IDOCK:   -8.57 KCAL/MOL
REMARK 923 INTER-LIGAND FREE ENERGY PREDICTED BY IDOCK:   -8.10 KCAL/MOL
REMARK 924 INTRA-LIGAND FREE ENERGY PREDICTED BY IDOCK:   -0.47 KCAL/MOL
REMARK 927      BINDING AFFINITY PREDICTED BY RF-SCORE:    0.00 PKD
ROOT
HETATM    1  C   UNL     1     -10.776  13.112  67.182  1.00  0.00    -0.263 C  
HETATM    2  C   UNL     1     -11.433  12.916  68.523  1.00  0.00    -0.310 C  
HETATM    3  C   UNL     1     -11.656  11.727  69.119  1.00  0.00    -0.372 C  
HETATM    4  C   UNL     1     -12.285  11.764  70.467  1.00  0.00    -0.347 C  
HETATM    5  O   UNL     1     -11.613  16.195  71.331  1.00  0.00    -0.445 OA 
HETATM    6  C   UNL     1     -12.750  15.508  70.817  1.00  0.00    -0.457 C  
HETATM    7  O   UNL     1     -12.531  10.714  71.061  1.00  0.00    -0.340 OA 
HETATM    8  N   UNL     1     -12.577  13.008  70.989  1.00  0.00    -0.349 N  
HETATM    9  C   UNL     1     -13.313  13.021  72.248  1.00  0.00    -0.506 C  
HETATM   10  N   UNL     1     -11.809  14.115  69.070  1.00  0.00    -0.329 NA 
HETATM   11  C   UNL     1     -13.403  14.377  72.923  1.00  0.00    -0.575 C  
HETATM   12  C   UNL     1     -12.372  14.135  70.233  1.00  0.00    -0.356 C  
HETATM   13  C   UNL     1     -13.812  15.421  71.900  1.00  0.00    -0.619 C  
HETATM   14  H   UNL     1     -10.948  16.249  70.654  1.00  0.00     0.000 HD 
ENDROOT
BRANCH   3  15
HETATM   15  C   UNL     1     -11.271  10.345  68.639  1.00  0.00    -0.305 C  
BRANCH  15  16
HETATM   16  C   UNL     1      -9.772   9.986  68.837  1.00  0.00    -0.181 C  
BRANCH  16  17
HETATM   17  N   UNL     1      -9.199   9.079  67.828  1.00  0.00    -0.140 NA 
HETATM   18  C   UNL     1      -8.820   7.062  69.236  1.00  0.00    -0.139 C  
HETATM   19  C   UNL     1     -10.785   7.058  67.688  1.00  0.00    -0.331 C  
HETATM   20  C   UNL     1      -8.203   8.143  68.353  1.00  0.00    -0.129 C  
HETATM   21  C   UNL     1      -9.748   6.172  68.397  1.00  0.00    -0.133 C  
HETATM   22  C   UNL     1     -10.220   8.344  67.051  1.00  0.00    -0.307 C  
BRANCH  21  23
HETATM   23  C   UNL     1      -8.899   5.267  67.539  1.00  0.00    -0.105 A  
HETATM   24  N   UNL     1      -7.698   4.821  67.928  1.00  0.00    -0.082 NA 
HETATM   25  O   UNL     1      -7.395   3.763  67.082  1.00  0.00    -0.066 OA 
HETATM   26  C   UNL     1      -8.396   3.600  66.175  1.00  0.00    -0.102 A  
HETATM   27  C   UNL     1      -9.345   4.589  66.367  1.00  0.00    -0.152 A  
HETATM   28  C   UNL     1     -10.474   4.624  65.527  1.00  0.00    -0.220 A  
HETATM   29  C   UNL     1     -10.599   3.637  64.542  1.00  0.00    -0.107 A  
HETATM   30  C   UNL     1      -9.634   2.637  64.414  1.00  0.00    -0.134 A  
HETATM   31  C   UNL     1      -8.498   2.591  65.223  1.00  0.00    -0.100 A  
HETATM   32  F   UNL     1      -9.812   1.684  63.490  1.00  0.00    -0.101 F  
ENDBRANCH  21  23
ENDBRANCH  16  17
ENDBRANCH  15  16
ENDBRANCH   3  15
TORSDOF 4
ENDMDL
MODEL       53
REMARK 921   NORMALIZED FREE ENERGY PREDICTED BY IDOCK:   -6.68 KCAL/MOL
REMARK 922        TOTAL FREE ENERGY PREDICTED BY IDOCK:   -8.52 KCAL/MOL
REMARK 923 INTER-LIGAND FREE ENERGY PREDICTED BY IDOCK:   -8.31 KCAL/MOL
REMARK 924 INTRA-LIGAND FREE ENERGY PREDICTED BY IDOCK:   -0.21 KCAL/MOL
REMARK 927      BINDING AFFINITY PREDICTED BY RF-SCORE:    0.00 PKD
ROOT
HETATM    1  C   UNL     1     -10.411  15.514  65.163  1.00  0.00    -0.431 C  
HETATM    2  C   UNL     1      -9.501  16.220  66.133  1.00  0.00    -0.339 C  
HETATM    3  C   UNL     1      -8.819  15.633  67.137  1.00  0.00    -0.228 C  
HETATM    4  C   UNL     1      -7.941  16.514  67.953  1.00  0.00    -0.158 C  
HETATM    5  O   UNL     1      -7.882  20.099  65.129  1.00  0.00    -0.381 OA 
HETATM    6  C   UNL     1      -8.683  19.829  66.276  1.00  0.00    -0.363 C  
HETATM    7  O   UNL     1      -7.302  16.045  68.896  1.00  0.00    -0.151 OA 
HETATM    8  N   UNL     1      -7.898  17.849  67.608  1.00  0.00    -0.216 N  
HETATM    9  C   UNL     1      -7.140  18.721  68.499  1.00  0.00    -0.274 C  
HETATM   10  N   UNL     1      -9.463  17.568  65.885  1.00  0.00    -0.527 NA 
HETATM   11  C   UNL     1      -6.899  20.123  67.971  1.00  0.00    -0.327 C  
HETATM   12  C   UNL     1      -8.712  18.328  66.612  1.00  0.00    -0.277 C  
HETATM   13  C   UNL     1      -8.201  20.688  67.434  1.00  0.00    -0.296 C  
HETATM   14  H   UNL     1      -8.183  19.563  64.405  1.00  0.00     0.000 HD 
ENDROOT
BRANCH   3  15
HETATM   15  C   UNL     1      -8.753  14.166  67.499  1.00  0.00    -0.208 C  
BRANCH  15  16
HETATM   16  C   UNL     1      -9.996  13.633  68.267  1.00  0.00    -0.236 C  
BRANCH  16  17
HETATM   17  N   UNL     1     -10.526  12.343  67.795  1.00  0.00    -0.214 NA 
HETATM   18  C   UNL     1      -9.168  10.790  69.186  1.00  0.00    -0.131 C  
HETATM   19  C   UNL     1     -11.546  11.183  69.852  1.00  0.00    -0.416 C  
HETATM   20  C   UNL     1      -9.546  11.254  67.783  1.00  0.00    -0.174 C  
HETATM   21  C   UNL     1     -10.391  10.170  69.877  1.00  0.00    -0.308 C  
HETATM   22  C   UNL     1     -11.748  11.913  68.509  1.00  0.00    -0.330 C  
BRANCH  21  23
HETATM   23  C   UNL     1     -10.642   8.808  69.278  1.00  0.00    -0.197 A  
HETATM   24  N   UNL     1     -10.659   8.593  67.956  1.00  0.00    -0.187 NA 
HETATM   25  O   UNL     1     -10.551   7.218  67.796  1.00  0.00    -0.217 OA 
HETATM   26  C   UNL     1     -10.501   6.617  69.015  1.00  0.00    -0.214 A  
HETATM   27  C   UNL     1     -10.641   7.579  69.999  1.00  0.00    -0.242 A  
HETATM   28  C   UNL     1     -10.631   7.181  71.350  1.00  0.00    -0.234 A  
HETATM   29  C   UNL     1     -10.458   5.822  71.640  1.00  0.00    -0.286 A  
HETATM   30  C   UNL     1     -10.281   4.896  70.612  1.00  0.00    -0.211 A  
HETATM   31  C   UNL     1     -10.303   5.263  69.266  1.00  0.00    -0.286 A  
HETATM   32  F   UNL     1     -10.072   3.612  70.932  1.00  0.00    -0.248 F  
ENDBRANCH  21  23
ENDBRANCH  16  17
ENDBRANCH  15  16
ENDBRANCH   3  15
TORSDOF 4
ENDMDL
MODEL       54
REMARK 921   NORMALIZED FREE ENERGY PREDICTED BY IDOCK:   -6.67 KCAL/MOL
REMARK 922        TOTAL FREE ENERGY PREDICTED BY IDOCK:   -8.51 KCAL/MOL
REMARK 923 INTER-LIGAND FREE ENERGY PREDICTED BY IDOCK:   -7.89 KCAL/MOL
REMARK 924 INTRA-LIGAND FREE ENERGY PREDICTED BY IDOCK:   -0.62 KCAL/MOL
REMARK 927      BINDING AFFINITY PREDICTED BY RF-SCORE:    0.00 PKD
ROOT
HETATM    1  C   UNL     1     -10.326   5.892  67.071  1.00  0.00    -0.298 C  
HETATM    2  C   UNL     1      -9.172   6.850  66.931  1.00  0.00    -0.145 C  
HETATM    3  C   UNL     1      -8.506   7.429  67.951  1.00  0.00    -0.122 C  
HETATM    4  C   UNL     1      -7.367   8.314  67.587  1.00  0.00    -0.093 C  
HETATM    5  O   UNL     1      -6.917   6.975  63.247  1.00  0.00    -0.050 OA 
HETATM    6  C   UNL     1      -7.604   8.088  63.813  1.00  0.00    -0.129 C  
HETATM    7  O   UNL     1      -6.726   8.888  68.469  1.00  0.00    -0.058 OA 
HETATM    8  N   UNL     1      -7.089   8.458  66.244  1.00  0.00    -0.076 N  
HETATM    9  C   UNL     1      -6.058   9.432  65.900  1.00  0.00    -0.056 C  
HETATM   10  N   UNL     1      -8.884   7.089  65.612  1.00  0.00    -0.073 NA 
HETATM   11  C   UNL     1      -5.598   9.393  64.455  1.00  0.00    -0.069 C  
HETATM   12  C   UNL     1      -7.905   7.874  65.307  1.00  0.00    -0.111 C  
HETATM   13  C   UNL     1      -6.810   9.355  63.542  1.00  0.00    -0.098 C  
HETATM   14  H   UNL     1      -7.413   6.183  63.416  1.00  0.00     0.000 HD 
ENDROOT
BRANCH   3  15
HETATM   15  C   UNL     1      -8.705   7.233  69.437  1.00  0.00    -0.137 C  
BRANCH  15  16
HETATM   16  C   UNL     1     -10.051   7.780  69.988  1.00  0.00    -0.201 C  
BRANCH  16  17
HETATM   17  N   UNL     1      -9.998   9.137  70.557  1.00  0.00    -0.217 NA 
HETATM   18  C   UNL     1     -10.921  10.437  68.646  1.00  0.00    -0.288 C  
HETATM   19  C   UNL     1     -12.421  10.002  70.599  1.00  0.00    -0.321 C  
HETATM   20  C   UNL     1      -9.737  10.194  69.577  1.00  0.00    -0.229 C  
HETATM   21  C   UNL     1     -12.113  10.974  69.449  1.00  0.00    -0.389 C  
HETATM   22  C   UNL     1     -11.187   9.484  71.366  1.00  0.00    -0.382 C  
BRANCH  21  23
HETATM   23  C   UNL     1     -11.842  12.415  69.806  1.00  0.00    -0.317 A  
HETATM   24  N   UNL     1     -11.150  13.239  69.008  1.00  0.00    -0.258 NA 
HETATM   25  O   UNL     1     -11.414  14.521  69.469  1.00  0.00    -0.260 OA 
HETATM   26  C   UNL     1     -12.234  14.459  70.553  1.00  0.00    -0.341 A  
HETATM   27  C   UNL     1     -12.471  13.132  70.865  1.00  0.00    -0.407 A  
HETATM   28  C   UNL     1     -13.290  12.826  71.968  1.00  0.00    -0.565 A  
HETATM   29  C   UNL     1     -13.849  13.885  72.693  1.00  0.00    -0.515 A  
HETATM   30  C   UNL     1     -13.611  15.206  72.315  1.00  0.00    -0.462 A  
HETATM   31  C   UNL     1     -12.790  15.536  71.236  1.00  0.00    -0.540 A  
HETATM   32  F   UNL     1     -14.202  16.190  73.006  1.00  0.00    -0.687 F  
ENDBRANCH  21  23
ENDBRANCH  16  17
ENDBRANCH  15  16
ENDBRANCH   3  15
TORSDOF 4
ENDMDL
MODEL       55
REMARK 921   NORMALIZED FREE ENERGY PREDICTED BY IDOCK:   -6.67 KCAL/MOL
REMARK 922        TOTAL FREE ENERGY PREDICTED BY IDOCK:   -8.50 KCAL/MOL
REMARK 923 INTER-LIGAND FREE ENERGY PREDICTED BY IDOCK:   -7.81 KCAL/MOL
REMARK 924 INTRA-LIGAND FREE ENERGY PREDICTED BY IDOCK:   -0.69 KCAL/MOL
REMARK 927      BINDING AFFINITY PREDICTED BY RF-SCORE:    0.00 PKD
ROOT
HETATM    1  C   UNL     1     -12.068  15.045  70.017  1.00  0.00    -0.382 C  
HETATM    2  C   UNL     1     -11.416  15.765  68.867  1.00  0.00    -0.378 C  
HETATM    3  C   UNL     1     -11.384  15.334  67.589  1.00  0.00    -0.315 C  
HETATM    4  C   UNL     1     -10.720  16.225  66.600  1.00  0.00    -0.197 C  
HETATM    5  O   UNL     1     -10.590  19.996  69.168  1.00  0.00    -0.558 OA 
HETATM    6  C   UNL     1      -9.605  18.995  68.933  1.00  0.00    -0.363 C  
HETATM    7  O   UNL     1     -10.641  15.885  65.419  1.00  0.00    -0.378 OA 
HETATM    8  N   UNL     1     -10.202  17.413  67.075  1.00  0.00    -0.314 N  
HETATM    9  C   UNL     1      -9.438  18.209  66.121  1.00  0.00    -0.153 C  
HETATM   10  N   UNL     1     -10.822  16.929  69.283  1.00  0.00    -0.280 NA 
HETATM   11  C   UNL     1      -9.095  19.612  66.587  1.00  0.00    -0.429 C  
HETATM   12  C   UNL     1     -10.231  17.686  68.420  1.00  0.00    -0.381 C  
HETATM   13  C   UNL     1      -8.542  19.551  67.999  1.00  0.00    -0.365 C  
HETATM   14  H   UNL     1     -11.255  19.649  69.752  1.00  0.00     0.000 HD 
ENDROOT
BRANCH   3  15
HETATM   15  C   UNL     1     -12.016  14.094  66.998  1.00  0.00    -0.471 C  
BRANCH  15  16
HETATM   16  C   UNL     1     -11.486  12.755  67.584  1.00  0.00    -0.334 C  
BRANCH  16  17
HETATM   17  N   UNL     1     -10.127  12.375  67.165  1.00  0.00    -0.212 NA 
HETATM   18  C   UNL     1     -10.385   9.901  67.077  1.00  0.00    -0.303 C  
HETATM   19  C   UNL     1     -10.377  11.156  64.913  1.00  0.00    -0.375 C  
HETATM   20  C   UNL     1      -9.665  11.092  67.702  1.00  0.00    -0.170 C  
HETATM   21  C   UNL     1     -10.045   9.812  65.582  1.00  0.00    -0.282 C  
HETATM   22  C   UNL     1      -9.932  12.406  65.699  1.00  0.00    -0.244 C  
BRANCH  21  23
HETATM   23  C   UNL     1      -8.637   9.290  65.441  1.00  0.00    -0.157 A  
HETATM   24  N   UNL     1      -7.592  10.089  65.187  1.00  0.00    -0.133 NA 
HETATM   25  O   UNL     1      -6.462   9.340  65.485  1.00  0.00    -0.066 OA 
HETATM   26  C   UNL     1      -6.831   8.093  65.884  1.00  0.00    -0.060 A  
HETATM   27  C   UNL     1      -8.207   7.978  65.793  1.00  0.00    -0.132 A  
HETATM   28  C   UNL     1      -8.815   6.758  66.147  1.00  0.00    -0.161 A  
HETATM   29  C   UNL     1      -7.997   5.715  66.598  1.00  0.00    -0.101 A  
HETATM   30  C   UNL     1      -6.618   5.894  66.710  1.00  0.00    -0.056 A  
HETATM   31  C   UNL     1      -5.990   7.087  66.350  1.00  0.00    -0.035 A  
HETATM   32  F   UNL     1      -5.875   4.888  67.189  1.00  0.00    -0.018 F  
ENDBRANCH  21  23
ENDBRANCH  16  17
ENDBRANCH  15  16
ENDBRANCH   3  15
TORSDOF 4
ENDMDL
MODEL       56
REMARK 921   NORMALIZED FREE ENERGY PREDICTED BY IDOCK:   -6.67 KCAL/MOL
REMARK 922        TOTAL FREE ENERGY PREDICTED BY IDOCK:   -8.50 KCAL/MOL
REMARK 923 INTER-LIGAND FREE ENERGY PREDICTED BY IDOCK:   -8.91 KCAL/MOL
REMARK 924 INTRA-LIGAND FREE ENERGY PREDICTED BY IDOCK:    0.41 KCAL/MOL
REMARK 927      BINDING AFFINITY PREDICTED BY RF-SCORE:    0.00 PKD
ROOT
HETATM    1  C   UNL     1      -9.498  10.842  68.722  1.00  0.00    -0.187 C  
HETATM    2  C   UNL     1     -10.616  10.375  69.617  1.00  0.00    -0.253 C  
HETATM    3  C   UNL     1     -11.553  11.167  70.177  1.00  0.00    -0.410 C  
HETATM    4  C   UNL     1     -12.594  10.490  70.997  1.00  0.00    -0.400 C  
HETATM    5  O   UNL     1     -11.818   6.225  69.570  1.00  0.00    -0.486 OA 
HETATM    6  C   UNL     1     -11.356   6.920  70.725  1.00  0.00    -0.310 C  
HETATM    7  O   UNL     1     -13.471  11.155  71.550  1.00  0.00    -0.208 OA 
HETATM    8  N   UNL     1     -12.513   9.117  71.105  1.00  0.00    -0.287 N  
HETATM    9  C   UNL     1     -13.459   8.487  72.020  1.00  0.00    -0.381 C  
HETATM   10  N   UNL     1     -10.555   9.021  69.820  1.00  0.00    -0.225 NA 
HETATM   11  C   UNL     1     -13.518   6.973  71.936  1.00  0.00    -0.237 C  
HETATM   12  C   UNL     1     -11.452   8.446  70.549  1.00  0.00    -0.179 C  
HETATM   13  C   UNL     1     -12.107   6.413  71.946  1.00  0.00    -0.362 C  
HETATM   14  H   UNL     1     -11.349   6.541  68.807  1.00  0.00     0.000 HD 
ENDROOT
BRANCH   3  15
HETATM   15  C   UNL     1     -11.747  12.658  70.014  1.00  0.00    -0.289 C  
BRANCH  15  16
HETATM   16  C   UNL     1     -11.900  13.133  68.541  1.00  0.00    -0.342 C  
BRANCH  16  17
HETATM   17  N   UNL     1     -11.410  14.492  68.261  1.00  0.00    -0.282 NA 
HETATM   18  C   UNL     1      -8.956  14.086  68.348  1.00  0.00    -0.189 C  
HETATM   19  C   UNL     1     -10.023  14.331  66.100  1.00  0.00    -0.330 C  
HETATM   20  C   UNL     1     -10.153  14.832  68.931  1.00  0.00    -0.237 C  
HETATM   21  C   UNL     1      -8.724  14.528  66.896  1.00  0.00    -0.237 C  
HETATM   22  C   UNL     1     -11.307  14.794  66.817  1.00  0.00    -0.346 C  
BRANCH  21  23
HETATM   23  C   UNL     1      -8.113  15.908  66.906  1.00  0.00    -0.250 A  
HETATM   24  N   UNL     1      -6.792  16.113  66.828  1.00  0.00    -0.253 NA 
HETATM   25  O   UNL     1      -6.636  17.453  66.501  1.00  0.00    -0.199 OA 
HETATM   26  C   UNL     1      -7.857  18.049  66.416  1.00  0.00    -0.269 A  
HETATM   27  C   UNL     1      -8.834  17.127  66.749  1.00  0.00    -0.270 A  
HETATM   28  C   UNL     1     -10.183  17.529  66.740  1.00  0.00    -0.327 A  
HETATM   29  C   UNL     1     -10.480  18.847  66.373  1.00  0.00    -0.505 A  
HETATM   30  C   UNL     1      -9.462  19.727  66.007  1.00  0.00    -0.318 A  
HETATM   31  C   UNL     1      -8.117  19.358  66.023  1.00  0.00    -0.260 A  
HETATM   32  F   UNL     1      -9.791  20.966  65.617  1.00  0.00    -0.077 F  
ENDBRANCH  21  23
ENDBRANCH  16  17
ENDBRANCH  15  16
ENDBRANCH   3  15
TORSDOF 4
ENDMDL
MODEL       57
REMARK 921   NORMALIZED FREE ENERGY PREDICTED BY IDOCK:   -6.64 KCAL/MOL
REMARK 922        TOTAL FREE ENERGY PREDICTED BY IDOCK:   -8.47 KCAL/MOL
REMARK 923 INTER-LIGAND FREE ENERGY PREDICTED BY IDOCK:   -7.97 KCAL/MOL
REMARK 924 INTRA-LIGAND FREE ENERGY PREDICTED BY IDOCK:   -0.50 KCAL/MOL
REMARK 927      BINDING AFFINITY PREDICTED BY RF-SCORE:    0.00 PKD
ROOT
HETATM    1  C   UNL     1      -8.702   9.503  70.299  1.00  0.00    -0.270 C  
HETATM    2  C   UNL     1      -9.139   8.298  69.508  1.00  0.00    -0.154 C  
HETATM    3  C   UNL     1     -10.045   8.303  68.509  1.00  0.00    -0.217 C  
HETATM    4  C   UNL     1     -10.297   7.003  67.831  1.00  0.00    -0.199 C  
HETATM    5  O   UNL     1      -6.648   4.767  69.418  1.00  0.00    -0.037 OA 
HETATM    6  C   UNL     1      -7.997   4.794  69.877  1.00  0.00    -0.069 C  
HETATM    7  O   UNL     1     -11.124   6.932  66.921  1.00  0.00    -0.379 OA 
HETATM    8  N   UNL     1      -9.580   5.912  68.279  1.00  0.00    -0.119 N  
HETATM    9  C   UNL     1      -9.938   4.623  67.696  1.00  0.00    -0.106 C  
HETATM   10  N   UNL     1      -8.509   7.162  69.948  1.00  0.00    -0.139 NA 
HETATM   11  C   UNL     1      -8.980   3.490  68.013  1.00  0.00    -0.174 C  
HETATM   12  C   UNL     1      -8.750   6.035  69.365  1.00  0.00    -0.121 C  
HETATM   13  C   UNL     1      -8.677   3.488  69.501  1.00  0.00    -0.127 C  
HETATM   14  H   UNL     1      -6.222   5.584  69.653  1.00  0.00     0.000 HD 
ENDROOT
BRANCH   3  15
HETATM   15  C   UNL     1     -10.786   9.480  67.915  1.00  0.00    -0.285 C  
BRANCH  15  16
HETATM   16  C   UNL     1     -10.119  10.093  66.651  1.00  0.00    -0.223 C  
BRANCH  16  17
HETATM   17  N   UNL     1      -9.592  11.458  66.812  1.00  0.00    -0.185 NA 
HETATM   18  C   UNL     1     -10.935  12.639  65.081  1.00  0.00    -0.324 C  
HETATM   19  C   UNL     1     -11.593  12.933  67.476  1.00  0.00    -0.409 C  
HETATM   20  C   UNL     1      -9.547  12.238  65.574  1.00  0.00    -0.099 C  
HETATM   21  C   UNL     1     -11.589  13.595  66.089  1.00  0.00    -0.369 C  
HETATM   22  C   UNL     1     -10.277  12.232  67.870  1.00  0.00    -0.200 C  
BRANCH  21  23
HETATM   23  C   UNL     1     -10.935  14.948  65.962  1.00  0.00    -0.334 A  
HETATM   24  N   UNL     1     -10.752  15.555  64.782  1.00  0.00    -0.407 NA 
HETATM   25  O   UNL     1     -10.475  16.882  65.078  1.00  0.00    -0.675 OA 
HETATM   26  C   UNL     1     -10.463  17.058  66.427  1.00  0.00    -0.252 A  
HETATM   27  C   UNL     1     -10.667  15.837  67.044  1.00  0.00    -0.306 A  
HETATM   28  C   UNL     1     -10.681  15.777  68.450  1.00  0.00    -0.281 A  
HETATM   29  C   UNL     1     -10.509  16.967  69.167  1.00  0.00    -0.335 A  
HETATM   30  C   UNL     1     -10.346  18.179  68.498  1.00  0.00    -0.336 A  
HETATM   31  C   UNL     1     -10.312  18.263  67.106  1.00  0.00    -0.402 A  
HETATM   32  F   UNL     1     -10.230  19.302  69.219  1.00  0.00    -0.440 F  
ENDBRANCH  21  23
ENDBRANCH  16  17
ENDBRANCH  15  16
ENDBRANCH   3  15
TORSDOF 4
ENDMDL
MODEL       58
REMARK 921   NORMALIZED FREE ENERGY PREDICTED BY IDOCK:   -6.61 KCAL/MOL
REMARK 922        TOTAL FREE ENERGY PREDICTED BY IDOCK:   -8.43 KCAL/MOL
REMARK 923 INTER-LIGAND FREE ENERGY PREDICTED BY IDOCK:   -7.86 KCAL/MOL
REMARK 924 INTRA-LIGAND FREE ENERGY PREDICTED BY IDOCK:   -0.57 KCAL/MOL
REMARK 927      BINDING AFFINITY PREDICTED BY RF-SCORE:    0.00 PKD
ROOT
HETATM    1  C   UNL     1      -8.023  11.903  68.555  1.00  0.00    -0.137 C  
HETATM    2  C   UNL     1      -8.820  11.842  67.279  1.00  0.00    -0.167 C  
HETATM    3  C   UNL     1      -8.805  10.825  66.393  1.00  0.00    -0.174 C  
HETATM    4  C   UNL     1      -9.704  10.952  65.215  1.00  0.00    -0.246 C  
HETATM    5  O   UNL     1     -12.301  14.357  66.795  1.00  0.00    -0.535 OA 
HETATM    6  C   UNL     1     -11.166  14.372  65.934  1.00  0.00    -0.324 C  
HETATM    7  O   UNL     1      -9.728  10.067  64.359  1.00  0.00    -0.305 OA 
HETATM    8  N   UNL     1     -10.477  12.092  65.136  1.00  0.00    -0.272 N  
HETATM    9  C   UNL     1     -11.250  12.263  63.911  1.00  0.00    -0.421 C  
HETATM   10  N   UNL     1      -9.565  12.980  67.105  1.00  0.00    -0.223 NA 
HETATM   11  C   UNL     1     -12.273  13.383  63.950  1.00  0.00    -0.478 C  
HETATM   12  C   UNL     1     -10.328  13.088  66.069  1.00  0.00    -0.285 C  
HETATM   13  C   UNL     1     -11.624  14.637  64.509  1.00  0.00    -0.377 C  
HETATM   14  H   UNL     1     -12.015  14.192  67.686  1.00  0.00     0.000 HD 
ENDROOT
BRANCH   3  15
HETATM   15  C   UNL     1      -8.055   9.514  66.477  1.00  0.00    -0.112 C  
BRANCH  15  16
HETATM   16  C   UNL     1      -8.920   8.300  66.918  1.00  0.00    -0.146 C  
BRANCH  16  17
HETATM   17  N   UNL     1      -8.637   7.777  68.265  1.00  0.00    -0.124 NA 
HETATM   18  C   UNL     1     -10.675   8.555  69.462  1.00  0.00    -0.181 C  
HETATM   19  C   UNL     1     -10.542   6.141  68.822  1.00  0.00    -0.330 C  
HETATM   20  C   UNL     1      -9.154   8.605  69.356  1.00  0.00    -0.149 C  
HETATM   21  C   UNL     1     -11.125   7.136  69.838  1.00  0.00    -0.264 C  
HETATM   22  C   UNL     1      -9.063   6.373  68.452  1.00  0.00    -0.118 C  
BRANCH  21  23
HETATM   23  C   UNL     1     -10.817   6.906  71.297  1.00  0.00    -0.234 A  
HETATM   24  N   UNL     1     -11.103   7.806  72.246  1.00  0.00    -0.277 NA 
HETATM   25  O   UNL     1     -11.024   7.122  73.452  1.00  0.00    -0.332 OA 
HETATM   26  C   UNL     1     -10.663   5.830  73.223  1.00  0.00    -0.267 A  
HETATM   27  C   UNL     1     -10.434   5.658  71.870  1.00  0.00    -0.279 A  
HETATM   28  C   UNL     1     -10.034   4.392  71.401  1.00  0.00    -0.248 A  
HETATM   29  C   UNL     1      -9.905   3.351  72.328  1.00  0.00    -0.231 A  
HETATM   30  C   UNL     1     -10.185   3.566  73.678  1.00  0.00    -0.138 A  
HETATM   31  C   UNL     1     -10.567   4.815  74.169  1.00  0.00    -0.351 A  
HETATM   32  F   UNL     1     -10.094   2.534  74.526  1.00  0.00    -0.129 F  
ENDBRANCH  21  23
ENDBRANCH  16  17
ENDBRANCH  15  16
ENDBRANCH   3  15
TORSDOF 4
ENDMDL
MODEL       59
REMARK 921   NORMALIZED FREE ENERGY PREDICTED BY IDOCK:   -6.61 KCAL/MOL
REMARK 922        TOTAL FREE ENERGY PREDICTED BY IDOCK:   -8.43 KCAL/MOL
REMARK 923 INTER-LIGAND FREE ENERGY PREDICTED BY IDOCK:   -8.04 KCAL/MOL
REMARK 924 INTRA-LIGAND FREE ENERGY PREDICTED BY IDOCK:   -0.39 KCAL/MOL
REMARK 927      BINDING AFFINITY PREDICTED BY RF-SCORE:    0.00 PKD
ROOT
HETATM    1  C   UNL     1     -11.111  15.283  64.650  1.00  0.00    -0.346 C  
HETATM    2  C   UNL     1     -10.313  16.014  65.697  1.00  0.00    -0.392 C  
HETATM    3  C   UNL     1      -9.495  15.439  66.602  1.00  0.00    -0.281 C  
HETATM    4  C   UNL     1      -8.768  16.355  67.521  1.00  0.00    -0.178 C  
HETATM    5  O   UNL     1      -9.491  20.230  65.218  1.00  0.00    -0.333 OA 
HETATM    6  C   UNL     1     -10.182  19.661  66.327  1.00  0.00    -0.498 C  
HETATM    7  O   UNL     1      -8.016  15.896  68.382  1.00  0.00    -0.139 OA 
HETATM    8  N   UNL     1      -8.989  17.708  67.362  1.00  0.00    -0.230 N  
HETATM    9  C   UNL     1      -8.374  18.582  68.356  1.00  0.00    -0.332 C  
HETATM   10  N   UNL     1     -10.538  17.365  65.637  1.00  0.00    -0.546 NA 
HETATM   11  C   UNL     1      -8.421  20.062  68.024  1.00  0.00    -0.256 C  
HETATM   12  C   UNL     1      -9.916  18.150  66.452  1.00  0.00    -0.376 C  
HETATM   13  C   UNL     1      -9.826  20.434  67.586  1.00  0.00    -0.538 C  
HETATM   14  H   UNL     1      -9.713  19.746  64.431  1.00  0.00     0.000 HD 
ENDROOT
BRANCH   3  15
HETATM   15  C   UNL     1      -9.141  13.977  66.757  1.00  0.00    -0.250 C  
BRANCH  15  16
HETATM   16  C   UNL     1     -10.008  13.209  67.794  1.00  0.00    -0.227 C  
BRANCH  16  17
HETATM   17  N   UNL     1      -9.415  11.967  68.319  1.00  0.00    -0.194 NA 
HETATM   18  C   UNL     1     -11.408  10.478  68.242  1.00  0.00    -0.332 C  
HETATM   19  C   UNL     1      -9.671  10.202  66.464  1.00  0.00    -0.252 C  
HETATM   20  C   UNL     1     -10.337  11.141  69.102  1.00  0.00    -0.161 C  
HETATM   21  C   UNL     1     -10.756   9.478  67.276  1.00  0.00    -0.269 C  
HETATM   22  C   UNL     1      -8.761  11.143  67.279  1.00  0.00    -0.139 C  
BRANCH  21  23
HETATM   23  C   UNL     1     -10.345   8.255  68.058  1.00  0.00    -0.213 A  
HETATM   24  N   UNL     1     -10.647   8.090  69.352  1.00  0.00    -0.226 NA 
HETATM   25  O   UNL     1     -10.440   6.743  69.619  1.00  0.00    -0.196 OA 
HETATM   26  C   UNL     1      -9.989   6.117  68.498  1.00  0.00    -0.147 A  
HETATM   27  C   UNL     1      -9.828   7.053  67.492  1.00  0.00    -0.186 A  
HETATM   28  C   UNL     1      -9.354   6.630  66.236  1.00  0.00    -0.144 A  
HETATM   29  C   UNL     1      -9.086   5.269  66.052  1.00  0.00    -0.154 A  
HETATM   30  C   UNL     1      -9.302   4.358  67.087  1.00  0.00    -0.155 A  
HETATM   31  C   UNL     1      -9.755   4.755  68.345  1.00  0.00    -0.209 A  
HETATM   32  F   UNL     1      -9.077   3.058  66.857  1.00  0.00    -0.137 F  
ENDBRANCH  21  23
ENDBRANCH  16  17
ENDBRANCH  15  16
ENDBRANCH   3  15
TORSDOF 4
ENDMDL
MODEL       60
REMARK 921   NORMALIZED FREE ENERGY PREDICTED BY IDOCK:   -6.61 KCAL/MOL
REMARK 922        TOTAL FREE ENERGY PREDICTED BY IDOCK:   -8.43 KCAL/MOL
REMARK 923 INTER-LIGAND FREE ENERGY PREDICTED BY IDOCK:   -8.23 KCAL/MOL
REMARK 924 INTRA-LIGAND FREE ENERGY PREDICTED BY IDOCK:   -0.20 KCAL/MOL
REMARK 927      BINDING AFFINITY PREDICTED BY RF-SCORE:    0.00 PKD
ROOT
HETATM    1  C   UNL     1     -10.290  10.115  66.957  1.00  0.00    -0.303 C  
HETATM    2  C   UNL     1     -10.760   9.835  68.361  1.00  0.00    -0.221 C  
HETATM    3  C   UNL     1     -11.584  10.622  69.083  1.00  0.00    -0.342 C  
HETATM    4  C   UNL     1     -11.955  10.133  70.438  1.00  0.00    -0.267 C  
HETATM    5  O   UNL     1     -10.581   5.811  69.925  1.00  0.00    -0.261 OA 
HETATM    6  C   UNL     1      -9.926   6.934  70.506  1.00  0.00    -0.183 C  
HETATM    7  O   UNL     1     -12.690  10.810  71.157  1.00  0.00    -0.366 OA 
HETATM    8  N   UNL     1     -11.431   8.919  70.832  1.00  0.00    -0.282 N  
HETATM    9  C   UNL     1     -11.695   8.521  72.211  1.00  0.00    -0.373 C  
HETATM   10  N   UNL     1     -10.221   8.669  68.840  1.00  0.00    -0.204 NA 
HETATM   11  C   UNL     1     -11.329   7.086  72.544  1.00  0.00    -0.301 C  
HETATM   12  C   UNL     1     -10.535   8.263  70.025  1.00  0.00    -0.231 C  
HETATM   13  C   UNL     1      -9.935   6.789  72.019  1.00  0.00    -0.183 C  
HETATM   14  H   UNL     1     -10.576   5.901  68.979  1.00  0.00     0.000 HD 
ENDROOT
BRANCH   3  15
HETATM   15  C   UNL     1     -12.262  11.908  68.667  1.00  0.00     0.043 C  
BRANCH  15  16
HETATM   16  C   UNL     1     -11.938  13.131  69.571  1.00  0.00    -0.294 C  
BRANCH  16  17
HETATM   17  N   UNL     1     -10.665  13.812  69.283  1.00  0.00    -0.124 NA 
HETATM   18  C   UNL     1     -11.280  14.994  67.180  1.00  0.00    -0.336 C  
HETATM   19  C   UNL     1     -11.173  16.334  69.289  1.00  0.00    -0.312 C  
HETATM   20  C   UNL     1     -10.373  13.969  67.856  1.00  0.00    -0.239 C  
HETATM   21  C   UNL     1     -11.013  16.389  67.761  1.00  0.00    -0.261 C  
HETATM   22  C   UNL     1     -10.524  15.113  69.971  1.00  0.00    -0.185 C  
BRANCH  21  23
HETATM   23  C   UNL     1      -9.701  16.894  67.214  1.00  0.00    -0.251 A  
HETATM   24  N   UNL     1      -9.239  16.544  66.007  1.00  0.00    -0.448 NA 
HETATM   25  O   UNL     1      -8.236  17.456  65.706  1.00  0.00    -0.540 OA 
HETATM   26  C   UNL     1      -8.082  18.325  66.742  1.00  0.00    -0.250 A  
HETATM   27  C   UNL     1      -8.935  17.961  67.768  1.00  0.00    -0.254 A  
HETATM   28  C   UNL     1      -8.937  18.719  68.955  1.00  0.00    -0.239 A  
HETATM   29  C   UNL     1      -8.086  19.827  69.036  1.00  0.00    -0.130 A  
HETATM   30  C   UNL     1      -7.274  20.177  67.957  1.00  0.00    -0.281 A  
HETATM   31  C   UNL     1      -7.241  19.432  66.778  1.00  0.00    -0.225 A  
HETATM   32  F   UNL     1      -6.507  21.271  68.057  1.00  0.00    -0.385 F  
ENDBRANCH  21  23
ENDBRANCH  16  17
ENDBRANCH  15  16
ENDBRANCH   3  15
TORSDOF 4
ENDMDL
MODEL       61
REMARK 921   NORMALIZED FREE ENERGY PREDICTED BY IDOCK:   -6.59 KCAL/MOL
REMARK 922        TOTAL FREE ENERGY PREDICTED BY IDOCK:   -8.40 KCAL/MOL
REMARK 923 INTER-LIGAND FREE ENERGY PREDICTED BY IDOCK:   -7.91 KCAL/MOL
REMARK 924 INTRA-LIGAND FREE ENERGY PREDICTED BY IDOCK:   -0.49 KCAL/MOL
REMARK 927      BINDING AFFINITY PREDICTED BY RF-SCORE:    0.00 PKD
ROOT
HETATM    1  C   UNL     1      -8.686   4.131  70.886  1.00  0.00    -0.119 C  
HETATM    2  C   UNL     1      -8.704   4.640  69.468  1.00  0.00    -0.082 C  
HETATM    3  C   UNL     1      -8.742   5.937  69.102  1.00  0.00    -0.118 C  
HETATM    4  C   UNL     1      -8.712   6.220  67.642  1.00  0.00    -0.113 C  
HETATM    5  O   UNL     1      -7.362   2.088  66.249  1.00  0.00    -0.059 OA 
HETATM    6  C   UNL     1      -8.662   2.664  66.337  1.00  0.00    -0.122 C  
HETATM    7  O   UNL     1      -8.760   7.382  67.238  1.00  0.00    -0.120 OA 
HETATM    8  N   UNL     1      -8.641   5.134  66.795  1.00  0.00    -0.110 N  
HETATM    9  C   UNL     1      -8.748   5.422  65.368  1.00  0.00    -0.154 C  
HETATM   10  N   UNL     1      -8.701   3.604  68.570  1.00  0.00    -0.096 NA 
HETATM   11  C   UNL     1      -8.420   4.257  64.453  1.00  0.00    -0.112 C  
HETATM   12  C   UNL     1      -8.694   3.860  67.304  1.00  0.00    -0.110 C  
HETATM   13  C   UNL     1      -9.147   3.016  64.940  1.00  0.00    -0.144 C  
HETATM   14  H   UNL     1      -7.059   1.868  67.122  1.00  0.00     0.000 HD 
ENDROOT
BRANCH   3  15
HETATM   15  C   UNL     1      -8.723   7.166  69.985  1.00  0.00    -0.141 C  
BRANCH  15  16
HETATM   16  C   UNL     1     -10.120   7.797  70.245  1.00  0.00    -0.195 C  
BRANCH  16  17
HETATM   17  N   UNL     1     -10.105   9.162  70.796  1.00  0.00    -0.245 NA 
HETATM   18  C   UNL     1     -10.873  10.435  68.800  1.00  0.00    -0.269 C  
HETATM   19  C   UNL     1     -12.520  10.034  70.639  1.00  0.00    -0.321 C  
HETATM   20  C   UNL     1      -9.765  10.203  69.823  1.00  0.00    -0.196 C  
HETATM   21  C   UNL     1     -12.122  10.988  69.502  1.00  0.00    -0.400 C  
HETATM   22  C   UNL     1     -11.350   9.524  71.506  1.00  0.00    -0.385 C  
BRANCH  21  23
HETATM   23  C   UNL     1     -11.873  12.433  69.857  1.00  0.00    -0.305 A  
HETATM   24  N   UNL     1     -11.167  13.258  69.073  1.00  0.00    -0.266 NA 
HETATM   25  O   UNL     1     -11.455  14.541  69.518  1.00  0.00    -0.260 OA 
HETATM   26  C   UNL     1     -12.302  14.478  70.581  1.00  0.00    -0.339 A  
HETATM   27  C   UNL     1     -12.536  13.151  70.894  1.00  0.00    -0.407 A  
HETATM   28  C   UNL     1     -13.381  12.844  71.977  1.00  0.00    -0.579 A  
HETATM   29  C   UNL     1     -13.969  13.902  72.681  1.00  0.00    -0.428 A  
HETATM   30  C   UNL     1     -13.733  15.223  72.301  1.00  0.00    -0.510 A  
HETATM   31  C   UNL     1     -12.887  15.553  71.242  1.00  0.00    -0.540 A  
HETATM   32  F   UNL     1     -14.350  16.206  72.970  1.00  0.00    -0.665 F  
ENDBRANCH  21  23
ENDBRANCH  16  17
ENDBRANCH  15  16
ENDBRANCH   3  15
TORSDOF 4
ENDMDL
MODEL       62
REMARK 921   NORMALIZED FREE ENERGY PREDICTED BY IDOCK:   -6.58 KCAL/MOL
REMARK 922        TOTAL FREE ENERGY PREDICTED BY IDOCK:   -8.40 KCAL/MOL
REMARK 923 INTER-LIGAND FREE ENERGY PREDICTED BY IDOCK:   -7.74 KCAL/MOL
REMARK 924 INTRA-LIGAND FREE ENERGY PREDICTED BY IDOCK:   -0.66 KCAL/MOL
REMARK 927      BINDING AFFINITY PREDICTED BY RF-SCORE:    0.00 PKD
ROOT
HETATM    1  C   UNL     1     -11.920  12.778  67.321  1.00  0.00    -0.345 C  
HETATM    2  C   UNL     1     -10.769  13.747  67.247  1.00  0.00    -0.283 C  
HETATM    3  C   UNL     1      -9.501  13.488  67.625  1.00  0.00    -0.222 C  
HETATM    4  C   UNL     1      -8.509  14.579  67.427  1.00  0.00    -0.205 C  
HETATM    5  O   UNL     1     -11.008  17.173  64.624  1.00  0.00    -1.005 OA 
HETATM    6  C   UNL     1     -10.811  17.246  66.033  1.00  0.00     0.011 C  
HETATM    7  O   UNL     1      -7.337  14.415  67.766  1.00  0.00    -0.138 OA 
HETATM    8  N   UNL     1      -8.972  15.753  66.870  1.00  0.00    -0.221 N  
HETATM    9  C   UNL     1      -8.018  16.856  66.808  1.00  0.00    -0.236 C  
HETATM   10  N   UNL     1     -11.176  14.963  66.760  1.00  0.00    -0.340 NA 
HETATM   11  C   UNL     1      -8.465  18.042  65.974  1.00  0.00    -0.043 C  
HETATM   12  C   UNL     1     -10.311  15.909  66.610  1.00  0.00    -0.300 C  
HETATM   13  C   UNL     1      -9.889  18.412  66.348  1.00  0.00    -0.369 C  
HETATM   14  H   UNL     1     -11.585  16.444  64.426  1.00  0.00     0.000 HD 
ENDROOT
BRANCH   3  15
HETATM   15  C   UNL     1      -8.921  12.193  68.149  1.00  0.00    -0.195 C  
BRANCH  15  16
HETATM   16  C   UNL     1      -8.597  11.139  67.053  1.00  0.00    -0.147 C  
BRANCH  16  17
HETATM   17  N   UNL     1      -8.289   9.787  67.547  1.00  0.00    -0.114 NA 
HETATM   18  C   UNL     1     -10.442   9.243  68.670  1.00  0.00    -0.236 C  
HETATM   19  C   UNL     1      -9.990   8.206  66.440  1.00  0.00    -0.238 C  
HETATM   20  C   UNL     1      -8.937   9.444  68.815  1.00  0.00    -0.132 C  
HETATM   21  C   UNL     1     -10.721   8.024  67.780  1.00  0.00    -0.174 C  
HETATM   22  C   UNL     1      -8.542   8.725  66.550  1.00  0.00    -0.118 C  
BRANCH  21  23
HETATM   23  C   UNL     1     -10.429   6.774  68.571  1.00  0.00    -0.204 A  
HETATM   24  N   UNL     1      -9.424   5.944  68.265  1.00  0.00    -0.115 NA 
HETATM   25  O   UNL     1      -9.240   5.144  69.385  1.00  0.00    -0.104 OA 
HETATM   26  C   UNL     1     -10.150   5.476  70.340  1.00  0.00    -0.230 A  
HETATM   27  C   UNL     1     -10.991   6.455  69.842  1.00  0.00    -0.410 A  
HETATM   28  C   UNL     1     -12.027   6.946  70.659  1.00  0.00    -0.400 A  
HETATM   29  C   UNL     1     -12.147   6.434  71.957  1.00  0.00    -0.353 A  
HETATM   30  C   UNL     1     -11.249   5.475  72.426  1.00  0.00    -0.247 A  
HETATM   31  C   UNL     1     -10.226   4.961  71.630  1.00  0.00    -0.267 A  
HETATM   32  F   UNL     1     -11.370   5.044  73.689  1.00  0.00    -0.356 F  
ENDBRANCH  21  23
ENDBRANCH  16  17
ENDBRANCH  15  16
ENDBRANCH   3  15
TORSDOF 4
ENDMDL
MODEL       63
REMARK 921   NORMALIZED FREE ENERGY PREDICTED BY IDOCK:   -6.58 KCAL/MOL
REMARK 922        TOTAL FREE ENERGY PREDICTED BY IDOCK:   -8.39 KCAL/MOL
REMARK 923 INTER-LIGAND FREE ENERGY PREDICTED BY IDOCK:   -7.84 KCAL/MOL
REMARK 924 INTRA-LIGAND FREE ENERGY PREDICTED BY IDOCK:   -0.55 KCAL/MOL
REMARK 927      BINDING AFFINITY PREDICTED BY RF-SCORE:    0.00 PKD
ROOT
HETATM    1  C   UNL     1     -11.928  13.245  67.984  1.00  0.00    -0.351 C  
HETATM    2  C   UNL     1     -11.095  12.258  67.209  1.00  0.00    -0.275 C  
HETATM    3  C   UNL     1     -10.357  11.265  67.745  1.00  0.00    -0.208 C  
HETATM    4  C   UNL     1      -9.642  10.376  66.791  1.00  0.00    -0.171 C  
HETATM    5  O   UNL     1     -11.893  11.599  63.013  1.00  0.00    -0.860 OA 
HETATM    6  C   UNL     1     -10.645  12.042  63.540  1.00  0.00    -0.465 C  
HETATM    7  O   UNL     1      -8.936   9.459  67.213  1.00  0.00    -0.129 OA 
HETATM    8  N   UNL     1      -9.803  10.640  65.446  1.00  0.00    -0.247 N  
HETATM    9  C   UNL     1      -8.990   9.845  64.532  1.00  0.00    -0.234 C  
HETATM   10  N   UNL     1     -11.159  12.506  65.862  1.00  0.00    -0.288 NA 
HETATM   11  C   UNL     1      -9.362   9.975  63.067  1.00  0.00    -0.297 C  
HETATM   12  C   UNL     1     -10.520  11.739  65.044  1.00  0.00    -0.285 C  
HETATM   13  C   UNL     1      -9.516  11.444  62.716  1.00  0.00    -0.314 C  
HETATM   14  H   UNL     1     -12.599  11.972  63.528  1.00  0.00     0.000 HD 
ENDROOT
BRANCH   3  15
HETATM   15  C   UNL     1     -10.222  10.871  69.199  1.00  0.00    -0.215 C  
BRANCH  15  16
HETATM   16  C   UNL     1     -11.283   9.848  69.693  1.00  0.00    -0.208 C  
BRANCH  16  17
HETATM   17  N   UNL     1     -10.779   8.488  69.951  1.00  0.00    -0.229 NA 
HETATM   18  C   UNL     1      -9.358   8.932  71.945  1.00  0.00    -0.275 C  
HETATM   19  C   UNL     1     -11.584   7.853  72.310  1.00  0.00    -0.406 C  
HETATM   20  C   UNL     1      -9.423   8.441  70.502  1.00  0.00    -0.169 C  
HETATM   21  C   UNL     1     -10.153   7.985  72.855  1.00  0.00    -0.376 C  
HETATM   22  C   UNL     1     -11.690   7.672  70.782  1.00  0.00    -0.239 C  
BRANCH  21  23
HETATM   23  C   UNL     1      -9.357   6.717  73.040  1.00  0.00    -0.135 A  
HETATM   24  N   UNL     1      -8.042   6.720  73.294  1.00  0.00    -0.106 NA 
HETATM   25  O   UNL     1      -7.742   5.445  73.754  1.00  0.00    -0.100 OA 
HETATM   26  C   UNL     1      -8.867   4.679  73.746  1.00  0.00    -0.104 A  
HETATM   27  C   UNL     1      -9.912   5.416  73.218  1.00  0.00    -0.188 A  
HETATM   28  C   UNL     1     -11.180   4.815  73.101  1.00  0.00    -0.390 A  
HETATM   29  C   UNL     1     -11.333   3.497  73.547  1.00  0.00    -0.222 A  
HETATM   30  C   UNL     1     -10.257   2.809  74.108  1.00  0.00    -0.131 A  
HETATM   31  C   UNL     1      -8.987   3.376  74.220  1.00  0.00    -0.094 A  
HETATM   32  F   UNL     1     -10.455   1.565  74.564  1.00  0.00    -0.128 F  
ENDBRANCH  21  23
ENDBRANCH  16  17
ENDBRANCH  15  16
ENDBRANCH   3  15
TORSDOF 4
ENDMDL
MODEL       64
REMARK 921   NORMALIZED FREE ENERGY PREDICTED BY IDOCK:   -6.58 KCAL/MOL
REMARK 922        TOTAL FREE ENERGY PREDICTED BY IDOCK:   -8.39 KCAL/MOL
REMARK 923 INTER-LIGAND FREE ENERGY PREDICTED BY IDOCK:   -7.74 KCAL/MOL
REMARK 924 INTRA-LIGAND FREE ENERGY PREDICTED BY IDOCK:   -0.65 KCAL/MOL
REMARK 927      BINDING AFFINITY PREDICTED BY RF-SCORE:    0.00 PKD
ROOT
HETATM    1  C   UNL     1     -12.194  13.910  69.036  1.00  0.00    -0.274 C  
HETATM    2  C   UNL     1     -11.563  12.934  68.078  1.00  0.00    -0.342 C  
HETATM    3  C   UNL     1     -10.846  11.846  68.427  1.00  0.00    -0.263 C  
HETATM    4  C   UNL     1     -10.348  10.991  67.316  1.00  0.00    -0.211 C  
HETATM    5  O   UNL     1     -12.981  12.700  64.003  1.00  0.00    -0.712 OA 
HETATM    6  C   UNL     1     -11.639  13.002  64.377  1.00  0.00    -0.369 C  
HETATM    7  O   UNL     1      -9.673   9.991  67.563  1.00  0.00    -0.154 OA 
HETATM    8  N   UNL     1     -10.668  11.382  66.032  1.00  0.00    -0.271 N  
HETATM    9  C   UNL     1     -10.059  10.610  64.954  1.00  0.00    -0.335 C  
HETATM   10  N   UNL     1     -11.789  13.301  66.777  1.00  0.00    -0.383 NA 
HETATM   11  C   UNL     1     -10.616  10.894  63.571  1.00  0.00    -0.182 C  
HETATM   12  C   UNL     1     -11.336  12.562  65.820  1.00  0.00    -0.336 C  
HETATM   13  C   UNL     1     -10.689  12.395  63.357  1.00  0.00    -0.398 C  
HETATM   14  H   UNL     1     -13.575  13.080  64.640  1.00  0.00     0.000 HD 
ENDROOT
BRANCH   3  15
HETATM   15  C   UNL     1     -10.548  11.319  69.813  1.00  0.00     0.108 C  
BRANCH  15  16
HETATM   16  C   UNL     1     -11.666  10.424  70.419  1.00  0.00    -0.331 C  
BRANCH  16  17
HETATM   17  N   UNL     1     -11.260   9.592  71.564  1.00  0.00    -0.383 NA 
HETATM   18  C   UNL     1     -12.384   7.455  70.957  1.00  0.00    -0.303 C  
HETATM   19  C   UNL     1      -9.916   7.626  70.591  1.00  0.00    -0.183 C  
HETATM   20  C   UNL     1     -12.252   8.592  71.966  1.00  0.00    -0.373 C  
HETATM   21  C   UNL     1     -11.072   6.660  70.894  1.00  0.00    -0.335 C  
HETATM   22  C   UNL     1      -9.941   8.948  71.384  1.00  0.00    -0.308 C  
BRANCH  21  23
HETATM   23  C   UNL     1     -10.965   5.811  72.137  1.00  0.00    -0.257 A  
HETATM   24  N   UNL     1     -12.030   5.243  72.718  1.00  0.00    -0.115 NA 
HETATM   25  O   UNL     1     -11.522   4.277  73.576  1.00  0.00    -0.271 OA 
HETATM   26  C   UNL     1     -10.162   4.292  73.529  1.00  0.00    -0.160 A  
HETATM   27  C   UNL     1      -9.750   5.311  72.689  1.00  0.00    -0.175 A  
HETATM   28  C   UNL     1      -8.371   5.521  72.498  1.00  0.00    -0.114 A  
HETATM   29  C   UNL     1      -7.473   4.671  73.153  1.00  0.00    -0.086 A  
HETATM   30  C   UNL     1      -7.939   3.633  73.959  1.00  0.00    -0.078 A  
HETATM   31  C   UNL     1      -9.300   3.414  74.178  1.00  0.00    -0.109 A  
HETATM   32  F   UNL     1      -7.049   2.813  74.532  1.00  0.00    -0.035 F  
ENDBRANCH  21  23
ENDBRANCH  16  17
ENDBRANCH  15  16
ENDBRANCH   3  15
TORSDOF 4
ENDMDL
MODEL       65
REMARK 921   NORMALIZED FREE ENERGY PREDICTED BY IDOCK:   -6.57 KCAL/MOL
REMARK 922        TOTAL FREE ENERGY PREDICTED BY IDOCK:   -8.38 KCAL/MOL
REMARK 923 INTER-LIGAND FREE ENERGY PREDICTED BY IDOCK:   -7.67 KCAL/MOL
REMARK 924 INTRA-LIGAND FREE ENERGY PREDICTED BY IDOCK:   -0.71 KCAL/MOL
REMARK 927      BINDING AFFINITY PREDICTED BY RF-SCORE:    0.00 PKD
ROOT
HETATM    1  C   UNL     1      -7.558  14.479  68.538  1.00  0.00    -0.123 C  
HETATM    2  C   UNL     1      -8.070  15.857  68.209  1.00  0.00    -0.144 C  
HETATM    3  C   UNL     1      -9.368  16.202  68.088  1.00  0.00    -0.201 C  
HETATM    4  C   UNL     1      -9.653  17.633  67.798  1.00  0.00    -0.267 C  
HETATM    5  O   UNL     1      -5.529  19.298  68.827  1.00  0.00    -0.193 OA 
HETATM    6  C   UNL     1      -6.100  18.927  67.574  1.00  0.00    -0.183 C  
HETATM    7  O   UNL     1     -10.816  18.014  67.659  1.00  0.00    -0.390 OA 
HETATM    8  N   UNL     1      -8.569  18.479  67.686  1.00  0.00    -0.262 N  
HETATM    9  C   UNL     1      -8.859  19.847  67.270  1.00  0.00    -0.334 C  
HETATM   10  N   UNL     1      -7.036  16.737  68.020  1.00  0.00    -0.145 NA 
HETATM   11  C   UNL     1      -7.697  20.814  67.395  1.00  0.00    -0.323 C  
HETATM   12  C   UNL     1      -7.294  17.973  67.750  1.00  0.00    -0.213 C  
HETATM   13  C   UNL     1      -6.452  20.184  66.796  1.00  0.00    -0.236 C  
HETATM   14  H   UNL     1      -5.309  18.512  69.314  1.00  0.00     0.000 HD 
ENDROOT
BRANCH   3  15
HETATM   15  C   UNL     1     -10.595  15.342  68.294  1.00  0.00    -0.253 C  
BRANCH  15  16
HETATM   16  C   UNL     1     -10.971  14.450  67.079  1.00  0.00    -0.304 C  
BRANCH  16  17
HETATM   17  N   UNL     1     -11.563  13.143  67.411  1.00  0.00    -0.334 NA 
HETATM   18  C   UNL     1     -10.003  11.644  66.181  1.00  0.00    -0.252 C  
HETATM   19  C   UNL     1      -9.745  11.821  68.662  1.00  0.00    -0.135 C  
HETATM   20  C   UNL     1     -11.437  12.136  66.355  1.00  0.00    -0.370 C  
HETATM   21  C   UNL     1      -9.550  10.902  67.447  1.00  0.00    -0.181 C  
HETATM   22  C   UNL     1     -11.082  12.589  68.695  1.00  0.00    -0.265 C  
BRANCH  21  23
HETATM   23  C   UNL     1     -10.221   9.551  67.478  1.00  0.00    -0.228 A  
HETATM   24  N   UNL     1     -10.389   8.802  66.380  1.00  0.00    -0.212 NA 
HETATM   25  O   UNL     1     -10.690   7.526  66.835  1.00  0.00    -0.352 OA 
HETATM   26  C   UNL     1     -10.732   7.523  68.195  1.00  0.00    -0.085 A  
HETATM   27  C   UNL     1     -10.523   8.810  68.657  1.00  0.00    -0.213 A  
HETATM   28  C   UNL     1     -10.536   9.048  70.044  1.00  0.00    -0.246 A  
HETATM   29  C   UNL     1     -10.740   7.960  70.902  1.00  0.00    -0.234 A  
HETATM   30  C   UNL     1     -10.907   6.674  70.388  1.00  0.00    -0.266 A  
HETATM   31  C   UNL     1     -10.914   6.415  69.017  1.00  0.00    -0.410 A  
HETATM   32  F   UNL     1     -11.053   5.653  71.243  1.00  0.00    -0.317 F  
ENDBRANCH  21  23
ENDBRANCH  16  17
ENDBRANCH  15  16
ENDBRANCH   3  15
TORSDOF 4
ENDMDL
MODEL       66
REMARK 921   NORMALIZED FREE ENERGY PREDICTED BY IDOCK:   -6.57 KCAL/MOL
REMARK 922        TOTAL FREE ENERGY PREDICTED BY IDOCK:   -8.38 KCAL/MOL
REMARK 923 INTER-LIGAND FREE ENERGY PREDICTED BY IDOCK:   -7.66 KCAL/MOL
REMARK 924 INTRA-LIGAND FREE ENERGY PREDICTED BY IDOCK:   -0.72 KCAL/MOL
REMARK 927      BINDING AFFINITY PREDICTED BY RF-SCORE:    0.00 PKD
ROOT
HETATM    1  C   UNL     1      -8.296   7.715  66.227  1.00  0.00    -0.133 C  
HETATM    2  C   UNL     1      -8.993   7.530  67.549  1.00  0.00    -0.126 C  
HETATM    3  C   UNL     1      -9.840   8.411  68.119  1.00  0.00    -0.196 C  
HETATM    4  C   UNL     1     -10.451   8.008  69.414  1.00  0.00    -0.220 C  
HETATM    5  O   UNL     1      -9.412   3.567  69.222  1.00  0.00    -0.173 OA 
HETATM    6  C   UNL     1      -8.752   4.652  69.868  1.00  0.00    -0.084 C  
HETATM    7  O   UNL     1     -11.222   8.772  69.996  1.00  0.00    -0.215 OA 
HETATM    8  N   UNL     1     -10.103   6.769  69.913  1.00  0.00    -0.178 N  
HETATM    9  C   UNL     1     -10.604   6.448  71.244  1.00  0.00    -0.230 C  
HETATM   10  N   UNL     1      -8.638   6.341  68.133  1.00  0.00    -0.117 NA 
HETATM   11  C   UNL     1     -10.422   5.001  71.665  1.00  0.00    -0.232 C  
HETATM   12  C   UNL     1      -9.160   6.009  69.267  1.00  0.00    -0.124 C  
HETATM   13  C   UNL     1      -8.999   4.566  71.365  1.00  0.00    -0.165 C  
HETATM   14  H   UNL     1      -9.258   3.621  68.286  1.00  0.00     0.000 HD 
ENDROOT
BRANCH   3  15
HETATM   15  C   UNL     1     -10.330   9.734  67.573  1.00  0.00    -0.291 C  
BRANCH  15  16
HETATM   16  C   UNL     1      -9.283  10.882  67.623  1.00  0.00    -0.152 C  
BRANCH  16  17
HETATM   17  N   UNL     1      -9.625  12.014  68.500  1.00  0.00    -0.180 NA 
HETATM   18  C   UNL     1      -9.509  13.877  66.854  1.00  0.00    -0.263 C  
HETATM   19  C   UNL     1     -11.771  13.055  67.536  1.00  0.00    -0.421 C  
HETATM   20  C   UNL     1      -8.967  13.273  68.146  1.00  0.00    -0.195 C  
HETATM   21  C   UNL     1     -10.980  14.277  67.044  1.00  0.00    -0.305 C  
HETATM   22  C   UNL     1     -11.081  12.230  68.641  1.00  0.00    -0.249 C  
BRANCH  21  23
HETATM   23  C   UNL     1     -11.032  15.528  67.886  1.00  0.00    -0.316 A  
HETATM   24  N   UNL     1     -11.294  15.505  69.199  1.00  0.00    -0.304 NA 
HETATM   25  O   UNL     1     -10.905  16.746  69.685  1.00  0.00    -0.333 OA 
HETATM   26  C   UNL     1     -10.442  17.514  68.661  1.00  0.00    -0.338 A  
HETATM   27  C   UNL     1     -10.580  16.816  67.474  1.00  0.00    -0.309 A  
HETATM   28  C   UNL     1     -10.174  17.426  66.272  1.00  0.00    -0.344 A  
HETATM   29  C   UNL     1      -9.626  18.713  66.334  1.00  0.00    -0.338 A  
HETATM   30  C   UNL     1      -9.472  19.359  67.560  1.00  0.00    -0.312 A  
HETATM   31  C   UNL     1      -9.881  18.783  68.763  1.00  0.00    -0.434 A  
HETATM   32  F   UNL     1      -8.901  20.571  67.582  1.00  0.00    -0.387 F  
ENDBRANCH  21  23
ENDBRANCH  16  17
ENDBRANCH  15  16
ENDBRANCH   3  15
TORSDOF 4
ENDMDL
MODEL       67
REMARK 921   NORMALIZED FREE ENERGY PREDICTED BY IDOCK:   -6.57 KCAL/MOL
REMARK 922        TOTAL FREE ENERGY PREDICTED BY IDOCK:   -8.38 KCAL/MOL
REMARK 923 INTER-LIGAND FREE ENERGY PREDICTED BY IDOCK:   -7.93 KCAL/MOL
REMARK 924 INTRA-LIGAND FREE ENERGY PREDICTED BY IDOCK:   -0.45 KCAL/MOL
REMARK 927      BINDING AFFINITY PREDICTED BY RF-SCORE:    0.00 PKD
ROOT
HETATM    1  C   UNL     1     -12.467  10.427  71.524  1.00  0.00    -0.508 C  
HETATM    2  C   UNL     1     -11.492   9.982  70.465  1.00  0.00    -0.330 C  
HETATM    3  C   UNL     1     -11.321  10.568  69.262  1.00  0.00    -0.325 C  
HETATM    4  C   UNL     1     -10.271   9.989  68.381  1.00  0.00    -0.172 C  
HETATM    5  O   UNL     1      -8.131   7.490  71.545  1.00  0.00    -0.097 OA 
HETATM    6  C   UNL     1      -9.130   7.134  70.594  1.00  0.00    -0.158 C  
HETATM    7  O   UNL     1     -10.073  10.466  67.263  1.00  0.00    -0.183 OA 
HETATM    8  N   UNL     1      -9.563   8.913  68.874  1.00  0.00    -0.158 N  
HETATM    9  C   UNL     1      -8.633   8.275  67.948  1.00  0.00    -0.132 C  
HETATM   10  N   UNL     1     -10.798   8.870  70.866  1.00  0.00    -0.231 NA 
HETATM   11  C   UNL     1      -7.694   7.264  68.578  1.00  0.00    -0.120 C  
HETATM   12  C   UNL     1      -9.902   8.364  70.086  1.00  0.00    -0.181 C  
HETATM   13  C   UNL     1      -8.488   6.331  69.474  1.00  0.00    -0.129 C  
HETATM   14  H   UNL     1      -8.532   7.992  72.245  1.00  0.00     0.000 HD 
ENDROOT
BRANCH   3  15
HETATM   15  C   UNL     1     -11.998  11.803  68.711  1.00  0.00    -0.317 C  
BRANCH  15  16
HETATM   16  C   UNL     1     -11.545  13.137  69.369  1.00  0.00    -0.300 C  
BRANCH  16  17
HETATM   17  N   UNL     1     -11.564  14.316  68.488  1.00  0.00    -0.301 NA 
HETATM   18  C   UNL     1     -10.455  15.976  69.975  1.00  0.00    -0.259 C  
HETATM   19  C   UNL     1      -9.108  14.983  68.116  1.00  0.00    -0.178 C  
HETATM   20  C   UNL     1     -11.707  15.594  69.191  1.00  0.00    -0.390 C  
HETATM   21  C   UNL     1      -9.290  16.223  69.006  1.00  0.00    -0.254 C  
HETATM   22  C   UNL     1     -10.413  14.378  67.562  1.00  0.00    -0.252 C  
BRANCH  21  23
HETATM   23  C   UNL     1      -9.508  17.549  68.321  1.00  0.00    -0.296 A  
HETATM   24  N   UNL     1     -10.404  18.446  68.752  1.00  0.00    -0.292 NA 
HETATM   25  O   UNL     1     -10.073  19.641  68.128  1.00  0.00    -0.394 OA 
HETATM   26  C   UNL     1      -9.006  19.449  67.306  1.00  0.00    -0.299 A  
HETATM   27  C   UNL     1      -8.656  18.110  67.325  1.00  0.00    -0.240 A  
HETATM   28  C   UNL     1      -7.577  17.675  66.533  1.00  0.00    -0.299 A  
HETATM   29  C   UNL     1      -6.887  18.626  65.772  1.00  0.00    -0.307 A  
HETATM   30  C   UNL     1      -7.254  19.971  65.817  1.00  0.00    -0.309 A  
HETATM   31  C   UNL     1      -8.330  20.425  66.581  1.00  0.00    -0.231 A  
HETATM   32  F   UNL     1      -6.540  20.857  65.109  1.00  0.00    -0.287 F  
ENDBRANCH  21  23
ENDBRANCH  16  17
ENDBRANCH  15  16
ENDBRANCH   3  15
TORSDOF 4
ENDMDL
MODEL       68
REMARK 921   NORMALIZED FREE ENERGY PREDICTED BY IDOCK:   -6.53 KCAL/MOL
REMARK 922        TOTAL FREE ENERGY PREDICTED BY IDOCK:   -8.33 KCAL/MOL
REMARK 923 INTER-LIGAND FREE ENERGY PREDICTED BY IDOCK:   -8.00 KCAL/MOL
REMARK 924 INTRA-LIGAND FREE ENERGY PREDICTED BY IDOCK:   -0.33 KCAL/MOL
REMARK 927      BINDING AFFINITY PREDICTED BY RF-SCORE:    0.00 PKD
ROOT
HETATM    1  C   UNL     1     -12.337  14.162  67.037  1.00  0.00    -0.253 C  
HETATM    2  C   UNL     1     -11.338  13.106  66.642  1.00  0.00    -0.325 C  
HETATM    3  C   UNL     1     -10.580  12.387  67.495  1.00  0.00    -0.240 C  
HETATM    4  C   UNL     1      -9.686  11.363  66.891  1.00  0.00    -0.192 C  
HETATM    5  O   UNL     1     -11.593  11.255  62.745  1.00  0.00    -0.675 OA 
HETATM    6  C   UNL     1     -10.457  11.965  63.231  1.00  0.00    -0.379 C  
HETATM    7  O   UNL     1      -8.954  10.682  67.610  1.00  0.00    -0.138 OA 
HETATM    8  N   UNL     1      -9.716  11.235  65.517  1.00  0.00    -0.220 N  
HETATM    9  C   UNL     1      -8.738  10.323  64.934  1.00  0.00    -0.185 C  
HETATM   10  N   UNL     1     -11.270  12.974  65.279  1.00  0.00    -0.285 NA 
HETATM   11  C   UNL     1      -8.951  10.011  63.464  1.00  0.00    -0.279 C  
HETATM   12  C   UNL     1     -10.477  12.095  64.764  1.00  0.00    -0.294 C  
HETATM   13  C   UNL     1      -9.194  11.303  62.705  1.00  0.00    -0.354 C  
HETATM   14  H   UNL     1     -12.384  11.668  63.074  1.00  0.00     0.000 HD 
ENDROOT
BRANCH   3  15
HETATM   15  C   UNL     1     -10.576  12.417  69.007  1.00  0.00    -0.087 C  
BRANCH  15  16
HETATM   16  C   UNL     1     -11.903  11.946  69.666  1.00  0.00    -0.337 C  
BRANCH  16  17
HETATM   17  N   UNL     1     -12.165  10.498  69.597  1.00  0.00    -0.200 NA 
HETATM   18  C   UNL     1     -10.528   9.688  71.287  1.00  0.00    -0.216 C  
HETATM   19  C   UNL     1     -12.938   9.789  71.946  1.00  0.00    -0.535 C  
HETATM   20  C   UNL     1     -10.988   9.659  69.832  1.00  0.00    -0.252 C  
HETATM   21  C   UNL     1     -11.604   9.064  72.186  1.00  0.00    -0.348 C  
HETATM   22  C   UNL     1     -13.278  10.060  70.466  1.00  0.00    -0.009 C  
BRANCH  21  23
HETATM   23  C   UNL     1     -11.578   7.567  71.999  1.00  0.00    -0.287 A  
HETATM   24  N   UNL     1     -12.027   6.971  70.888  1.00  0.00    -0.359 NA 
HETATM   25  O   UNL     1     -11.520   5.679  70.921  1.00  0.00    -0.059 OA 
HETATM   26  C   UNL     1     -10.799   5.499  72.061  1.00  0.00    -0.226 A  
HETATM   27  C   UNL     1     -10.874   6.647  72.829  1.00  0.00    -0.283 A  
HETATM   28  C   UNL     1     -10.208   6.684  74.068  1.00  0.00    -0.395 A  
HETATM   29  C   UNL     1      -9.477   5.557  74.463  1.00  0.00    -0.153 A  
HETATM   30  C   UNL     1      -9.400   4.437  73.634  1.00  0.00    -0.113 A  
HETATM   31  C   UNL     1     -10.065   4.370  72.409  1.00  0.00    -0.243 A  
HETATM   32  F   UNL     1      -8.653   3.396  74.026  1.00  0.00    -0.084 F  
ENDBRANCH  21  23
ENDBRANCH  16  17
ENDBRANCH  15  16
ENDBRANCH   3  15
TORSDOF 4
ENDMDL
MODEL       69
REMARK 921   NORMALIZED FREE ENERGY PREDICTED BY IDOCK:   -6.52 KCAL/MOL
REMARK 922        TOTAL FREE ENERGY PREDICTED BY IDOCK:   -8.32 KCAL/MOL
REMARK 923 INTER-LIGAND FREE ENERGY PREDICTED BY IDOCK:   -7.95 KCAL/MOL
REMARK 924 INTRA-LIGAND FREE ENERGY PREDICTED BY IDOCK:   -0.37 KCAL/MOL
REMARK 927      BINDING AFFINITY PREDICTED BY RF-SCORE:    0.00 PKD
ROOT
HETATM    1  C   UNL     1     -10.690  14.775  69.426  1.00  0.00    -0.250 C  
HETATM    2  C   UNL     1     -10.559  15.860  68.389  1.00  0.00    -0.266 C  
HETATM    3  C   UNL     1     -10.839  15.726  67.076  1.00  0.00    -0.273 C  
HETATM    4  C   UNL     1     -10.679  16.941  66.233  1.00  0.00    -0.096 C  
HETATM    5  O   UNL     1     -10.465  20.004  69.611  1.00  0.00    -0.593 OA 
HETATM    6  C   UNL     1      -9.432  19.354  68.875  1.00  0.00    -0.389 C  
HETATM    7  O   UNL     1     -10.902  16.885  65.023  1.00  0.00    -0.666 OA 
HETATM    8  N   UNL     1     -10.267  18.095  66.868  1.00  0.00    -0.354 N  
HETATM    9  C   UNL     1      -9.987  19.238  66.006  1.00  0.00    -0.337 C  
HETATM   10  N   UNL     1     -10.089  17.022  68.944  1.00  0.00    -0.293 NA 
HETATM   11  C   UNL     1      -9.780  20.553  66.734  1.00  0.00    -0.466 C  
HETATM   12  C   UNL     1      -9.936  18.066  68.199  1.00  0.00    -0.353 C  
HETATM   13  C   UNL     1      -8.822  20.341  67.893  1.00  0.00    -0.247 C  
HETATM   14  H   UNL     1     -10.846  19.387  70.224  1.00  0.00     0.000 HD 
ENDROOT
BRANCH   3  15
HETATM   15  C   UNL     1     -11.384  14.518  66.348  1.00  0.00    -0.349 C  
BRANCH  15  16
HETATM   16  C   UNL     1     -10.445  13.279  66.358  1.00  0.00    -0.284 C  
BRANCH  16  17
HETATM   17  N   UNL     1     -11.061  12.021  66.813  1.00  0.00    -0.288 NA 
HETATM   18  C   UNL     1      -9.227  10.428  66.270  1.00  0.00    -0.195 C  
HETATM   19  C   UNL     1      -9.532  11.092  68.662  1.00  0.00    -0.196 C  
HETATM   20  C   UNL     1     -10.677  10.843  66.032  1.00  0.00    -0.140 C  
HETATM   21  C   UNL     1      -9.047   9.974  67.725  1.00  0.00    -0.137 C  
HETATM   22  C   UNL     1     -10.863  11.757  68.254  1.00  0.00    -0.220 C  
BRANCH  21  23
HETATM   23  C   UNL     1      -9.673   8.610  67.884  1.00  0.00    -0.161 A  
HETATM   24  N   UNL     1     -10.756   8.396  68.642  1.00  0.00    -0.102 NA 
HETATM   25  O   UNL     1     -11.242   7.152  68.263  1.00  0.00     0.002 OA 
HETATM   26  C   UNL     1     -10.436   6.616  67.307  1.00  0.00    -0.275 A  
HETATM   27  C   UNL     1      -9.368   7.468  67.087  1.00  0.00    -0.174 A  
HETATM   28  C   UNL     1      -8.391   7.108  66.139  1.00  0.00    -0.133 A  
HETATM   29  C   UNL     1      -8.555   5.905  65.442  1.00  0.00    -0.138 A  
HETATM   30  C   UNL     1      -9.670   5.099  65.672  1.00  0.00    -0.060 A  
HETATM   31  C   UNL     1     -10.643   5.426  66.617  1.00  0.00    -0.359 A  
HETATM   32  F   UNL     1      -9.815   3.979  64.952  1.00  0.00    -0.156 F  
ENDBRANCH  21  23
ENDBRANCH  16  17
ENDBRANCH  15  16
ENDBRANCH   3  15
TORSDOF 4
ENDMDL
MODEL       70
REMARK 921   NORMALIZED FREE ENERGY PREDICTED BY IDOCK:   -6.48 KCAL/MOL
REMARK 922        TOTAL FREE ENERGY PREDICTED BY IDOCK:   -8.26 KCAL/MOL
REMARK 923 INTER-LIGAND FREE ENERGY PREDICTED BY IDOCK:   -7.85 KCAL/MOL
REMARK 924 INTRA-LIGAND FREE ENERGY PREDICTED BY IDOCK:   -0.42 KCAL/MOL
REMARK 927      BINDING AFFINITY PREDICTED BY RF-SCORE:    0.00 PKD
ROOT
HETATM    1  C   UNL     1     -12.311  12.705  65.546  1.00  0.00    -0.455 C  
HETATM    2  C   UNL     1     -11.227  13.351  66.368  1.00  0.00    -0.304 C  
HETATM    3  C   UNL     1     -10.331  12.697  67.136  1.00  0.00    -0.239 C  
HETATM    4  C   UNL     1      -9.317  13.531  67.834  1.00  0.00    -0.215 C  
HETATM    5  O   UNL     1      -9.947  17.376  65.458  1.00  0.00    -0.555 OA 
HETATM    6  C   UNL     1     -10.474  16.960  66.714  1.00  0.00    -0.260 C  
HETATM    7  O   UNL     1      -8.479  12.999  68.564  1.00  0.00    -0.138 OA 
HETATM    8  N   UNL     1      -9.378  14.894  67.630  1.00  0.00    -0.190 N  
HETATM    9  C   UNL     1      -8.463  15.705  68.427  1.00  0.00    -0.164 C  
HETATM   10  N   UNL     1     -11.272  14.717  66.262  1.00  0.00    -0.337 NA 
HETATM   11  C   UNL     1      -8.371  17.162  68.011  1.00  0.00    -0.218 C  
HETATM   12  C   UNL     1     -10.398  15.433  66.888  1.00  0.00    -0.277 C  
HETATM   13  C   UNL     1      -9.771  17.721  67.826  1.00  0.00    -0.285 C  
HETATM   14  H   UNL     1     -10.386  16.901  64.762  1.00  0.00     0.000 HD 
ENDROOT
BRANCH   3  15
HETATM   15  C   UNL     1     -10.158  11.206  67.318  1.00  0.00    -0.218 C  
BRANCH  15  16
HETATM   16  C   UNL     1     -10.990  10.595  68.481  1.00  0.00    -0.248 C  
BRANCH  16  17
HETATM   17  N   UNL     1     -10.206   9.984  69.567  1.00  0.00    -0.219 NA 
HETATM   18  C   UNL     1     -12.035   8.874  70.839  1.00  0.00    -0.254 C  
HETATM   19  C   UNL     1     -10.581   7.445  69.392  1.00  0.00    -0.231 C  
HETATM   20  C   UNL     1     -10.910   9.905  70.850  1.00  0.00    -0.286 C  
HETATM   21  C   UNL     1     -11.450   7.466  70.659  1.00  0.00    -0.307 C  
HETATM   22  C   UNL     1      -9.648   8.660  69.217  1.00  0.00    -0.166 C  
BRANCH  21  23
HETATM   23  C   UNL     1     -10.806   7.044  71.956  1.00  0.00    -0.223 A  
HETATM   24  N   UNL     1     -10.852   7.795  73.064  1.00  0.00    -0.398 NA 
HETATM   25  O   UNL     1     -10.493   6.952  74.107  1.00  0.00    -0.357 OA 
HETATM   26  C   UNL     1     -10.204   5.715  73.618  1.00  0.00    -0.218 A  
HETATM   27  C   UNL     1     -10.305   5.739  72.239  1.00  0.00    -0.244 A  
HETATM   28  C   UNL     1     -10.036   4.563  71.514  1.00  0.00    -0.239 A  
HETATM   29  C   UNL     1      -9.697   3.407  72.227  1.00  0.00    -0.221 A  
HETATM   30  C   UNL     1      -9.647   3.424  73.621  1.00  0.00    -0.106 A  
HETATM   31  C   UNL     1      -9.893   4.581  74.361  1.00  0.00    -0.195 A  
HETATM   32  F   UNL     1      -9.363   2.287  74.269  1.00  0.00    -0.079 F  
ENDBRANCH  21  23
ENDBRANCH  16  17
ENDBRANCH  15  16
ENDBRANCH   3  15
TORSDOF 4
ENDMDL
MODEL       71
REMARK 921   NORMALIZED FREE ENERGY PREDICTED BY IDOCK:   -6.47 KCAL/MOL
REMARK 922        TOTAL FREE ENERGY PREDICTED BY IDOCK:   -8.26 KCAL/MOL
REMARK 923 INTER-LIGAND FREE ENERGY PREDICTED BY IDOCK:   -8.26 KCAL/MOL
REMARK 924 INTRA-LIGAND FREE ENERGY PREDICTED BY IDOCK:    0.00 KCAL/MOL
REMARK 927      BINDING AFFINITY PREDICTED BY RF-SCORE:    0.00 PKD
ROOT
HETATM    1  C   UNL     1      -7.474  14.866  67.205  1.00  0.00    -0.193 C  
HETATM    2  C   UNL     1      -8.243  16.109  66.842  1.00  0.00    -0.238 C  
HETATM    3  C   UNL     1      -9.354  16.148  66.079  1.00  0.00    -0.368 C  
HETATM    4  C   UNL     1      -9.980  17.483  65.879  1.00  0.00    -0.139 C  
HETATM    5  O   UNL     1      -7.782  19.691  69.215  1.00  0.00    -0.312 OA 
HETATM    6  C   UNL     1      -7.513  19.606  67.818  1.00  0.00    -0.278 C  
HETATM    7  O   UNL     1     -10.988  17.593  65.180  1.00  0.00    -0.651 OA 
HETATM    8  N   UNL     1      -9.375  18.558  66.497  1.00  0.00    -0.310 N  
HETATM    9  C   UNL     1      -9.921  19.873  66.182  1.00  0.00    -0.487 C  
HETATM   10  N   UNL     1      -7.655  17.228  67.373  1.00  0.00    -0.178 NA 
HETATM   11  C   UNL     1      -9.410  21.005  67.054  1.00  0.00    -0.091 C  
HETATM   12  C   UNL     1      -8.196  18.384  67.178  1.00  0.00    -0.245 C  
HETATM   13  C   UNL     1      -7.898  20.918  67.155  1.00  0.00    -0.219 C  
HETATM   14  H   UNL     1      -7.541  18.871  69.630  1.00  0.00     0.000 HD 
ENDROOT
BRANCH   3  15
HETATM   15  C   UNL     1     -10.113  14.995  65.460  1.00  0.00    -0.400 C  
BRANCH  15  16
HETATM   16  C   UNL     1     -10.855  14.087  66.480  1.00  0.00    -0.300 C  
BRANCH  16  17
HETATM   17  N   UNL     1     -10.011  13.108  67.187  1.00  0.00    -0.233 NA 
HETATM   18  C   UNL     1     -11.777  11.633  68.136  1.00  0.00    -0.365 C  
HETATM   19  C   UNL     1     -10.521  10.817  66.133  1.00  0.00    -0.278 C  
HETATM   20  C   UNL     1     -10.606  12.572  68.413  1.00  0.00    -0.242 C  
HETATM   21  C   UNL     1     -11.278  10.382  67.398  1.00  0.00    -0.205 C  
HETATM   22  C   UNL     1      -9.549  11.999  66.325  1.00  0.00    -0.231 C  
BRANCH  21  23
HETATM   23  C   UNL     1     -10.546   9.504  68.382  1.00  0.00    -0.219 A  
HETATM   24  N   UNL     1     -10.223   9.913  69.615  1.00  0.00    -0.221 NA 
HETATM   25  O   UNL     1      -9.908   8.763  70.326  1.00  0.00    -0.166 OA 
HETATM   26  C   UNL     1     -10.013   7.678  69.512  1.00  0.00    -0.182 A  
HETATM   27  C   UNL     1     -10.336   8.101  68.235  1.00  0.00    -0.241 A  
HETATM   28  C   UNL     1     -10.486   7.142  67.215  1.00  0.00    -0.372 A  
HETATM   29  C   UNL     1     -10.321   5.792  67.545  1.00  0.00    -0.274 A  
HETATM   30  C   UNL     1     -10.035   5.413  68.857  1.00  0.00    -0.180 A  
HETATM   31  C   UNL     1      -9.865   6.345  69.881  1.00  0.00    -0.191 A  
HETATM   32  F   UNL     1      -9.930   4.108  69.142  1.00  0.00    -0.250 F  
ENDBRANCH  21  23
ENDBRANCH  16  17
ENDBRANCH  15  16
ENDBRANCH   3  15
TORSDOF 4
ENDMDL
MODEL       72
REMARK 921   NORMALIZED FREE ENERGY PREDICTED BY IDOCK:   -6.47 KCAL/MOL
REMARK 922        TOTAL FREE ENERGY PREDICTED BY IDOCK:   -8.26 KCAL/MOL
REMARK 923 INTER-LIGAND FREE ENERGY PREDICTED BY IDOCK:   -8.10 KCAL/MOL
REMARK 924 INTRA-LIGAND FREE ENERGY PREDICTED BY IDOCK:   -0.16 KCAL/MOL
REMARK 927      BINDING AFFINITY PREDICTED BY RF-SCORE:    0.00 PKD
ROOT
HETATM    1  C   UNL     1      -6.585  10.141  70.149  1.00  0.00    -0.128 C  
HETATM    2  C   UNL     1      -7.707   9.146  70.296  1.00  0.00    -0.113 C  
HETATM    3  C   UNL     1      -8.424   8.619  69.283  1.00  0.00    -0.123 C  
HETATM    4  C   UNL     1      -9.462   7.618  69.651  1.00  0.00    -0.156 C  
HETATM    5  O   UNL     1      -8.037   6.798  73.909  1.00  0.00    -0.111 OA 
HETATM    6  C   UNL     1      -9.049   7.672  73.417  1.00  0.00    -0.241 C  
HETATM    7  O   UNL     1     -10.164   7.109  68.777  1.00  0.00    -0.168 OA 
HETATM    8  N   UNL     1      -9.594   7.315  70.991  1.00  0.00    -0.159 N  
HETATM    9  C   UNL     1     -10.703   6.436  71.346  1.00  0.00    -0.245 C  
HETATM   10  N   UNL     1      -7.934   8.849  71.615  1.00  0.00    -0.326 NA 
HETATM   11  C   UNL     1     -10.679   5.920  72.772  1.00  0.00    -0.274 C  
HETATM   12  C   UNL     1      -8.851   7.993  71.925  1.00  0.00    -0.142 C  
HETATM   13  C   UNL     1     -10.414   7.076  73.721  1.00  0.00    -0.392 C  
HETATM   14  H   UNL     1      -7.184   7.171  73.720  1.00  0.00     0.000 HD 
ENDROOT
BRANCH   3  15
HETATM   15  C   UNL     1      -8.259   8.841  67.797  1.00  0.00    -0.111 C  
BRANCH  15  16
HETATM   16  C   UNL     1      -9.124   9.994  67.215  1.00  0.00    -0.138 C  
BRANCH  16  17
HETATM   17  N   UNL     1      -9.752  10.879  68.210  1.00  0.00    -0.159 NA 
HETATM   18  C   UNL     1      -9.347  13.085  67.132  1.00  0.00    -0.230 C  
HETATM   19  C   UNL     1     -11.648  12.115  66.987  1.00  0.00    -0.406 C  
HETATM   20  C   UNL     1      -9.110  12.189  68.343  1.00  0.00    -0.151 C  
HETATM   21  C   UNL     1     -10.840  13.423  67.018  1.00  0.00    -0.280 C  
HETATM   22  C   UNL     1     -11.207  11.049  68.011  1.00  0.00    -0.309 C  
BRANCH  21  23
HETATM   23  C   UNL     1     -11.187  14.433  68.084  1.00  0.00    -0.281 A  
HETATM   24  N   UNL     1     -11.179  15.753  67.858  1.00  0.00    -0.336 NA 
HETATM   25  O   UNL     1     -11.882  16.321  68.911  1.00  0.00    -0.284 OA 
HETATM   26  C   UNL     1     -12.279  15.348  69.775  1.00  0.00    -0.306 A  
HETATM   27  C   UNL     1     -11.789  14.130  69.339  1.00  0.00    -0.378 A  
HETATM   28  C   UNL     1     -12.068  12.973  70.092  1.00  0.00    -0.377 A  
HETATM   29  C   UNL     1     -12.853  13.104  71.244  1.00  0.00    -0.384 A  
HETATM   30  C   UNL     1     -13.357  14.349  71.620  1.00  0.00    -0.363 A  
HETATM   31  C   UNL     1     -13.080  15.512  70.900  1.00  0.00    -0.508 A  
HETATM   32  F   UNL     1     -14.141  14.426  72.703  1.00  0.00    -0.516 F  
ENDBRANCH  21  23
ENDBRANCH  16  17
ENDBRANCH  15  16
ENDBRANCH   3  15
TORSDOF 4
ENDMDL
MODEL       73
REMARK 921   NORMALIZED FREE ENERGY PREDICTED BY IDOCK:   -6.44 KCAL/MOL
REMARK 922        TOTAL FREE ENERGY PREDICTED BY IDOCK:   -8.22 KCAL/MOL
REMARK 923 INTER-LIGAND FREE ENERGY PREDICTED BY IDOCK:   -7.55 KCAL/MOL
REMARK 924 INTRA-LIGAND FREE ENERGY PREDICTED BY IDOCK:   -0.66 KCAL/MOL
REMARK 927      BINDING AFFINITY PREDICTED BY RF-SCORE:    0.00 PKD
ROOT
HETATM    1  C   UNL     1     -11.909  13.576  70.287  1.00  0.00    -0.327 C  
HETATM    2  C   UNL     1     -11.623  12.929  68.957  1.00  0.00    -0.322 C  
HETATM    3  C   UNL     1     -11.042  11.726  68.779  1.00  0.00    -0.293 C  
HETATM    4  C   UNL     1     -10.891  11.258  67.375  1.00  0.00    -0.262 C  
HETATM    5  O   UNL     1     -13.755  14.233  65.431  1.00  0.00    -0.424 OA 
HETATM    6  C   UNL     1     -12.338  14.262  65.576  1.00  0.00    -0.408 C  
HETATM    7  O   UNL     1     -10.354  10.175  67.140  1.00  0.00    -0.212 OA 
HETATM    8  N   UNL     1     -11.365  12.091  66.382  1.00  0.00    -0.341 N  
HETATM    9  C   UNL     1     -11.089  11.679  65.010  1.00  0.00    -0.249 C  
HETATM   10  N   UNL     1     -12.012  13.738  67.920  1.00  0.00    -0.372 NA 
HETATM   11  C   UNL     1     -11.827  12.468  63.944  1.00  0.00    -0.544 C  
HETATM   12  C   UNL     1     -11.860  13.330  66.704  1.00  0.00    -0.395 C  
HETATM   13  C   UNL     1     -11.693  13.952  64.235  1.00  0.00    -0.406 C  
HETATM   14  H   UNL     1     -14.158  14.427  66.269  1.00  0.00     0.000 HD 
ENDROOT
BRANCH   3  15
HETATM   15  C   UNL     1     -10.593  10.732  69.828  1.00  0.00    -0.191 C  
BRANCH  15  16
HETATM   16  C   UNL     1     -11.738   9.877  70.440  1.00  0.00    -0.258 C  
BRANCH  16  17
HETATM   17  N   UNL     1     -11.491   8.426  70.483  1.00  0.00    -0.228 NA 
HETATM   18  C   UNL     1      -9.849   8.329  72.350  1.00  0.00    -0.375 C  
HETATM   19  C   UNL     1     -12.205   7.638  72.826  1.00  0.00     0.042 C  
HETATM   20  C   UNL     1     -10.129   8.057  70.876  1.00  0.00    -0.191 C  
HETATM   21  C   UNL     1     -10.735   7.431  73.224  1.00  0.00    -0.441 C  
HETATM   22  C   UNL     1     -12.471   7.687  71.307  1.00  0.00    -0.298 C  
BRANCH  21  23
HETATM   23  C   UNL     1     -10.190   6.025  73.175  1.00  0.00    -0.197 A  
HETATM   24  N   UNL     1     -10.800   5.037  72.508  1.00  0.00    -0.213 NA 
HETATM   25  O   UNL     1      -9.855   4.027  72.381  1.00  0.00    -0.144 OA 
HETATM   26  C   UNL     1      -8.701   4.400  72.996  1.00  0.00    -0.104 A  
HETATM   27  C   UNL     1      -8.885   5.634  73.595  1.00  0.00    -0.121 A  
HETATM   28  C   UNL     1      -7.817   6.215  74.305  1.00  0.00    -0.098 A  
HETATM   29  C   UNL     1      -6.601   5.523  74.357  1.00  0.00    -0.072 A  
HETATM   30  C   UNL     1      -6.453   4.300  73.704  1.00  0.00    -0.050 A  
HETATM   31  C   UNL     1      -7.501   3.696  73.008  1.00  0.00    -0.060 A  
HETATM   32  F   UNL     1      -5.260   3.691  73.738  1.00  0.00     0.000 F  
ENDBRANCH  21  23
ENDBRANCH  16  17
ENDBRANCH  15  16
ENDBRANCH   3  15
TORSDOF 4
ENDMDL
MODEL       74
REMARK 921   NORMALIZED FREE ENERGY PREDICTED BY IDOCK:   -6.43 KCAL/MOL
REMARK 922        TOTAL FREE ENERGY PREDICTED BY IDOCK:   -8.21 KCAL/MOL
REMARK 923 INTER-LIGAND FREE ENERGY PREDICTED BY IDOCK:   -8.33 KCAL/MOL
REMARK 924 INTRA-LIGAND FREE ENERGY PREDICTED BY IDOCK:    0.12 KCAL/MOL
REMARK 927      BINDING AFFINITY PREDICTED BY RF-SCORE:    0.00 PKD
ROOT
HETATM    1  C   UNL     1     -12.169  13.310  70.530  1.00  0.00    -0.416 C  
HETATM    2  C   UNL     1     -11.769  12.652  69.236  1.00  0.00    -0.322 C  
HETATM    3  C   UNL     1     -11.219  11.426  69.117  1.00  0.00    -0.335 C  
HETATM    4  C   UNL     1     -10.939  10.951  67.736  1.00  0.00    -0.283 C  
HETATM    5  O   UNL     1     -13.462  14.034  65.508  1.00  0.00    -0.705 OA 
HETATM    6  C   UNL     1     -12.069  14.007  65.803  1.00  0.00    -0.427 C  
HETATM    7  O   UNL     1     -10.422   9.848  67.556  1.00  0.00    -0.220 OA 
HETATM    8  N   UNL     1     -11.272  11.801  66.701  1.00  0.00    -0.315 N  
HETATM    9  C   UNL     1     -10.868  11.377  65.365  1.00  0.00    -0.229 C  
HETATM   10  N   UNL     1     -12.014  13.474  68.166  1.00  0.00    -0.361 NA 
HETATM   11  C   UNL     1     -11.457  12.193  64.229  1.00  0.00    -0.437 C  
HETATM   12  C   UNL     1     -11.750  13.059  66.972  1.00  0.00    -0.383 C  
HETATM   13  C   UNL     1     -11.298  13.672  64.537  1.00  0.00    -0.393 C  
HETATM   14  H   UNL     1     -13.945  14.244  66.299  1.00  0.00     0.000 HD 
ENDROOT
BRANCH   3  15
HETATM   15  C   UNL     1     -10.923  10.418  70.205  1.00  0.00    -0.365 C  
BRANCH  15  16
HETATM   16  C   UNL     1     -12.183   9.828  70.900  1.00  0.00    -0.302 C  
BRANCH  16  17
HETATM   17  N   UNL     1     -12.207   8.362  71.030  1.00  0.00    -0.223 NA 
HETATM   18  C   UNL     1      -9.817   7.854  70.556  1.00  0.00    -0.186 C  
HETATM   19  C   UNL     1     -10.580   7.777  72.936  1.00  0.00    -0.428 C  
HETATM   20  C   UNL     1     -11.273   7.662  70.145  1.00  0.00    -0.180 C  
HETATM   21  C   UNL     1      -9.572   7.206  71.926  1.00  0.00    -0.161 C  
HETATM   22  C   UNL     1     -12.029   7.892  72.421  1.00  0.00    -0.320 C  
BRANCH  21  23
HETATM   23  C   UNL     1      -9.532   5.709  71.749  1.00  0.00    -0.149 A  
HETATM   24  N   UNL     1     -10.191   4.868  72.557  1.00  0.00    -0.189 NA 
HETATM   25  O   UNL     1     -10.222   3.650  71.891  1.00  0.00    -0.146 OA 
HETATM   26  C   UNL     1      -9.560   3.758  70.708  1.00  0.00    -0.179 A  
HETATM   27  C   UNL     1      -9.025   5.029  70.603  1.00  0.00    -0.164 A  
HETATM   28  C   UNL     1      -8.281   5.365  69.455  1.00  0.00    -0.096 A  
HETATM   29  C   UNL     1      -8.133   4.397  68.455  1.00  0.00    -0.082 A  
HETATM   30  C   UNL     1      -8.726   3.142  68.590  1.00  0.00    -0.103 A  
HETATM   31  C   UNL     1      -9.453   2.780  69.724  1.00  0.00    -0.155 A  
HETATM   32  F   UNL     1      -8.600   2.259  67.590  1.00  0.00    -0.082 F  
ENDBRANCH  21  23
ENDBRANCH  16  17
ENDBRANCH  15  16
ENDBRANCH   3  15
TORSDOF 4
ENDMDL
MODEL       75
REMARK 921   NORMALIZED FREE ENERGY PREDICTED BY IDOCK:   -6.43 KCAL/MOL
REMARK 922        TOTAL FREE ENERGY PREDICTED BY IDOCK:   -8.20 KCAL/MOL
REMARK 923 INTER-LIGAND FREE ENERGY PREDICTED BY IDOCK:   -7.52 KCAL/MOL
REMARK 924 INTRA-LIGAND FREE ENERGY PREDICTED BY IDOCK:   -0.68 KCAL/MOL
REMARK 927      BINDING AFFINITY PREDICTED BY RF-SCORE:    0.00 PKD
ROOT
HETATM    1  C   UNL     1      -9.750  15.882  69.172  1.00  0.00    -0.249 C  
HETATM    2  C   UNL     1      -8.662  16.594  68.410  1.00  0.00    -0.225 C  
HETATM    3  C   UNL     1      -7.577  16.008  67.864  1.00  0.00    -0.144 C  
HETATM    4  C   UNL     1      -6.646  16.895  67.116  1.00  0.00    -0.189 C  
HETATM    5  O   UNL     1      -9.423  20.496  66.716  1.00  0.00    -0.570 OA 
HETATM    6  C   UNL     1      -8.397  20.211  67.662  1.00  0.00    -0.298 C  
HETATM    7  O   UNL     1      -5.627  16.429  66.606  1.00  0.00    -0.328 OA 
HETATM    8  N   UNL     1      -6.978  18.233  67.042  1.00  0.00    -0.188 N  
HETATM    9  C   UNL     1      -5.989  19.108  66.423  1.00  0.00    -0.165 C  
HETATM   10  N   UNL     1      -8.898  17.943  68.355  1.00  0.00    -0.285 NA 
HETATM   11  C   UNL     1      -6.474  20.515  66.128  1.00  0.00    -0.272 C  
HETATM   12  C   UNL     1      -8.074  18.707  67.719  1.00  0.00    -0.251 C  
HETATM   13  C   UNL     1      -7.181  21.069  67.352  1.00  0.00    -0.354 C  
HETATM   14  H   UNL     1     -10.184  19.959  66.909  1.00  0.00     0.000 HD 
ENDROOT
BRANCH   3  15
HETATM   15  C   UNL     1      -7.215  14.540  67.831  1.00  0.00    -0.169 C  
BRANCH  15  16
HETATM   16  C   UNL     1      -8.177  13.655  66.990  1.00  0.00    -0.037 C  
BRANCH  16  17
HETATM   17  N   UNL     1      -8.179  12.223  67.330  1.00  0.00    -0.169 NA 
HETATM   18  C   UNL     1     -10.291  12.099  68.641  1.00  0.00    -0.211 C  
HETATM   19  C   UNL     1     -10.317  11.235  66.294  1.00  0.00    -0.294 C  
HETATM   20  C   UNL     1      -8.777  11.911  68.630  1.00  0.00    -0.033 C  
HETATM   21  C   UNL     1     -10.948  11.091  67.688  1.00  0.00    -0.332 C  
HETATM   22  C   UNL     1      -8.781  11.370  66.282  1.00  0.00    -0.173 C  
BRANCH  21  23
HETATM   23  C   UNL     1     -10.913   9.727  68.333  1.00  0.00    -0.152 A  
HETATM   24  N   UNL     1     -10.223   8.702  67.818  1.00  0.00    -0.212 NA 
HETATM   25  O   UNL     1     -10.125   7.763  68.836  1.00  0.00    -0.185 OA 
HETATM   26  C   UNL     1     -10.780   8.214  69.940  1.00  0.00    -0.241 A  
HETATM   27  C   UNL     1     -11.375   9.428  69.648  1.00  0.00    -0.023 A  
HETATM   28  C   UNL     1     -12.122  10.080  70.648  1.00  0.00    -0.381 A  
HETATM   29  C   UNL     1     -12.213   9.476  71.908  1.00  0.00    -0.432 A  
HETATM   30  C   UNL     1     -11.562   8.270  72.164  1.00  0.00    -0.364 A  
HETATM   31  C   UNL     1     -10.829   7.597  71.186  1.00  0.00    -0.251 A  
HETATM   32  F   UNL     1     -11.634   7.748  73.395  1.00  0.00    -0.344 F  
ENDBRANCH  21  23
ENDBRANCH  16  17
ENDBRANCH  15  16
ENDBRANCH   3  15
TORSDOF 4
ENDMDL
MODEL       76
REMARK 921   NORMALIZED FREE ENERGY PREDICTED BY IDOCK:   -6.42 KCAL/MOL
REMARK 922        TOTAL FREE ENERGY PREDICTED BY IDOCK:   -8.20 KCAL/MOL
REMARK 923 INTER-LIGAND FREE ENERGY PREDICTED BY IDOCK:   -7.71 KCAL/MOL
REMARK 924 INTRA-LIGAND FREE ENERGY PREDICTED BY IDOCK:   -0.49 KCAL/MOL
REMARK 927      BINDING AFFINITY PREDICTED BY RF-SCORE:    0.00 PKD
ROOT
HETATM    1  C   UNL     1     -13.393  10.054  71.012  1.00  0.00    -0.334 C  
HETATM    2  C   UNL     1     -12.726  11.373  70.720  1.00  0.00    -0.253 C  
HETATM    3  C   UNL     1     -11.883  11.615  69.695  1.00  0.00    -0.419 C  
HETATM    4  C   UNL     1     -11.369  13.005  69.568  1.00  0.00    -0.155 C  
HETATM    5  O   UNL     1     -14.357  15.019  72.370  1.00  0.00    -0.471 OA 
HETATM    6  C   UNL     1     -13.033  14.547  72.602  1.00  0.00    -0.449 C  
HETATM    7  O   UNL     1     -10.583  13.291  68.664  1.00  0.00    -0.253 OA 
HETATM    8  N   UNL     1     -11.804  13.922  70.502  1.00  0.00    -0.283 N  
HETATM    9  C   UNL     1     -11.188  15.243  70.443  1.00  0.00    -0.299 C  
HETATM   10  N   UNL     1     -13.066  12.317  71.654  1.00  0.00    -0.380 NA 
HETATM   11  C   UNL     1     -11.852  16.299  71.307  1.00  0.00    -0.349 C  
HETATM   12  C   UNL     1     -12.600  13.516  71.545  1.00  0.00    -0.266 C  
HETATM   13  C   UNL     1     -12.090  15.736  72.696  1.00  0.00    -0.591 C  
HETATM   14  H   UNL     1     -14.947  14.276  72.311  1.00  0.00     0.000 HD 
ENDROOT
BRANCH   3  15
HETATM   15  C   UNL     1     -11.450  10.677  68.590  1.00  0.00    -0.332 C  
BRANCH  15  16
HETATM   16  C   UNL     1     -10.282   9.725  68.971  1.00  0.00    -0.203 C  
BRANCH  16  17
HETATM   17  N   UNL     1     -10.283   9.247  70.364  1.00  0.00    -0.214 NA 
HETATM   18  C   UNL     1      -9.831   6.829  69.985  1.00  0.00    -0.179 C  
HETATM   19  C   UNL     1      -7.946   8.260  70.793  1.00  0.00    -0.100 C  
HETATM   20  C   UNL     1     -10.788   7.883  70.535  1.00  0.00    -0.241 C  
HETATM   21  C   UNL     1      -8.526   6.837  70.794  1.00  0.00    -0.133 C  
HETATM   22  C   UNL     1      -8.972   9.386  71.035  1.00  0.00    -0.047 C  
BRANCH  21  23
HETATM   23  C   UNL     1      -8.787   6.190  72.132  1.00  0.00    -0.138 A  
HETATM   24  N   UNL     1      -8.823   6.885  73.276  1.00  0.00    -0.125 NA 
HETATM   25  O   UNL     1      -9.432   6.053  74.205  1.00  0.00    -0.138 OA 
HETATM   26  C   UNL     1      -9.729   4.858  73.625  1.00  0.00    -0.137 A  
HETATM   27  C   UNL     1      -9.262   4.860  72.323  1.00  0.00    -0.151 A  
HETATM   28  C   UNL     1      -9.450   3.712  71.530  1.00  0.00    -0.220 A  
HETATM   29  C   UNL     1     -10.123   2.620  72.090  1.00  0.00    -0.213 A  
HETATM   30  C   UNL     1     -10.610   2.683  73.396  1.00  0.00    -0.161 A  
HETATM   31  C   UNL     1     -10.423   3.802  74.208  1.00  0.00    -0.270 A  
HETATM   32  F   UNL     1     -11.290   1.635  73.881  1.00  0.00    -0.205 F  
ENDBRANCH  21  23
ENDBRANCH  16  17
ENDBRANCH  15  16
ENDBRANCH   3  15
TORSDOF 4
ENDMDL
MODEL       77
REMARK 921   NORMALIZED FREE ENERGY PREDICTED BY IDOCK:   -6.42 KCAL/MOL
REMARK 922        TOTAL FREE ENERGY PREDICTED BY IDOCK:   -8.19 KCAL/MOL
REMARK 923 INTER-LIGAND FREE ENERGY PREDICTED BY IDOCK:   -8.03 KCAL/MOL
REMARK 924 INTRA-LIGAND FREE ENERGY PREDICTED BY IDOCK:   -0.16 KCAL/MOL
REMARK 927      BINDING AFFINITY PREDICTED BY RF-SCORE:    0.00 PKD
ROOT
HETATM    1  C   UNL     1     -10.400   8.825  66.364  1.00  0.00    -0.169 C  
HETATM    2  C   UNL     1      -9.452   9.226  65.265  1.00  0.00    -0.164 C  
HETATM    3  C   UNL     1      -9.634  10.251  64.408  1.00  0.00    -0.378 C  
HETATM    4  C   UNL     1      -8.548  10.498  63.422  1.00  0.00    -0.172 C  
HETATM    5  O   UNL     1      -5.323   7.957  65.416  1.00  0.00    -0.028 OA 
HETATM    6  C   UNL     1      -6.224   7.655  64.354  1.00  0.00    -0.048 C  
HETATM    7  O   UNL     1      -8.657  11.408  62.600  1.00  0.00    -0.182 OA 
HETATM    8  N   UNL     1      -7.451   9.663  63.475  1.00  0.00    -0.115 N  
HETATM    9  C   UNL     1      -6.461   9.833  62.417  1.00  0.00    -0.103 C  
HETATM   10  N   UNL     1      -8.365   8.391  65.219  1.00  0.00    -0.153 NA 
HETATM   11  C   UNL     1      -5.158   9.085  62.633  1.00  0.00    -0.069 C  
HETATM   12  C   UNL     1      -7.437   8.603  64.347  1.00  0.00    -0.108 C  
HETATM   13  C   UNL     1      -5.461   7.654  63.039  1.00  0.00    -0.046 C  
HETATM   14  H   UNL     1      -5.800   7.958  66.239  1.00  0.00     0.000 HD 
ENDROOT
BRANCH   3  15
HETATM   15  C   UNL     1     -10.765  11.255  64.367  1.00  0.00    -0.407 C  
BRANCH  15  16
HETATM   16  C   UNL     1     -10.505  12.556  65.177  1.00  0.00    -0.293 C  
BRANCH  16  17
HETATM   17  N   UNL     1     -11.551  12.916  66.149  1.00  0.00    -0.352 NA 
HETATM   18  C   UNL     1     -10.988  11.334  67.986  1.00  0.00    -0.302 C  
HETATM   19  C   UNL     1     -10.328  13.731  68.261  1.00  0.00    -0.247 C  
HETATM   20  C   UNL     1     -12.026  11.799  66.968  1.00  0.00     0.150 C  
HETATM   21  C   UNL     1     -10.727  12.448  69.009  1.00  0.00    -0.140 C  
HETATM   22  C   UNL     1     -11.180  14.055  67.017  1.00  0.00    -0.313 C  
BRANCH  21  23
HETATM   23  C   UNL     1     -11.905  12.525  69.947  1.00  0.00    -0.303 A  
HETATM   24  N   UNL     1     -12.464  11.438  70.495  1.00  0.00    -0.311 NA 
HETATM   25  O   UNL     1     -13.244  11.903  71.546  1.00  0.00    -0.358 OA 
HETATM   26  C   UNL     1     -13.174  13.261  71.603  1.00  0.00    -0.359 A  
HETATM   27  C   UNL     1     -12.399  13.718  70.551  1.00  0.00    -0.429 A  
HETATM   28  C   UNL     1     -12.198  15.103  70.404  1.00  0.00    -0.391 A  
HETATM   29  C   UNL     1     -12.777  15.962  71.346  1.00  0.00    -0.403 A  
HETATM   30  C   UNL     1     -13.517  15.449  72.411  1.00  0.00    -0.490 A  
HETATM   31  C   UNL     1     -13.745  14.082  72.570  1.00  0.00    -0.651 A  
HETATM   32  F   UNL     1     -14.017  16.300  73.317  1.00  0.00    -0.696 F  
ENDBRANCH  21  23
ENDBRANCH  16  17
ENDBRANCH  15  16
ENDBRANCH   3  15
TORSDOF 4
ENDMDL
MODEL       78
REMARK 921   NORMALIZED FREE ENERGY PREDICTED BY IDOCK:   -6.39 KCAL/MOL
REMARK 922        TOTAL FREE ENERGY PREDICTED BY IDOCK:   -8.16 KCAL/MOL
REMARK 923 INTER-LIGAND FREE ENERGY PREDICTED BY IDOCK:   -7.49 KCAL/MOL
REMARK 924 INTRA-LIGAND FREE ENERGY PREDICTED BY IDOCK:   -0.67 KCAL/MOL
REMARK 927      BINDING AFFINITY PREDICTED BY RF-SCORE:    0.00 PKD
ROOT
HETATM    1  C   UNL     1     -10.533   8.680  69.174  1.00  0.00    -0.223 C  
HETATM    2  C   UNL     1      -9.891   8.089  67.946  1.00  0.00    -0.167 C  
HETATM    3  C   UNL     1      -8.957   8.693  67.183  1.00  0.00    -0.148 C  
HETATM    4  C   UNL     1      -8.425   7.910  66.036  1.00  0.00    -0.138 C  
HETATM    5  O   UNL     1      -9.980   3.815  67.319  1.00  0.00    -0.252 OA 
HETATM    6  C   UNL     1     -10.520   4.776  66.417  1.00  0.00    -0.239 C  
HETATM    7  O   UNL     1      -7.582   8.406  65.288  1.00  0.00    -0.083 OA 
HETATM    8  N   UNL     1      -8.928   6.637  65.858  1.00  0.00    -0.119 N  
HETATM    9  C   UNL     1      -8.496   5.936  64.653  1.00  0.00    -0.029 C  
HETATM   10  N   UNL     1     -10.396   6.844  67.674  1.00  0.00    -0.183 NA 
HETATM   11  C   UNL     1      -8.858   4.463  64.606  1.00  0.00    -0.147 C  
HETATM   12  C   UNL     1      -9.941   6.180  66.664  1.00  0.00    -0.158 C  
HETATM   13  C   UNL     1     -10.316   4.291  64.991  1.00  0.00    -0.203 C  
HETATM   14  H   UNL     1     -10.108   4.118  68.211  1.00  0.00     0.000 HD 
ENDROOT
BRANCH   3  15
HETATM   15  C   UNL     1      -8.302  10.041  67.386  1.00  0.00    -0.118 C  
BRANCH  15  16
HETATM   16  C   UNL     1      -9.134  11.248  66.870  1.00  0.00    -0.167 C  
BRANCH  16  17
HETATM   17  N   UNL     1      -9.364  12.324  67.850  1.00  0.00    -0.184 NA 
HETATM   18  C   UNL     1      -9.747  14.234  66.302  1.00  0.00    -0.321 C  
HETATM   19  C   UNL     1     -11.740  13.208  67.411  1.00  0.00    -0.419 C  
HETATM   20  C   UNL     1      -8.894  13.643  67.420  1.00  0.00    -0.221 C  
HETATM   21  C   UNL     1     -11.168  14.505  66.818  1.00  0.00    -0.336 C  
HETATM   22  C   UNL     1     -10.767  12.413  68.307  1.00  0.00    -0.230 C  
BRANCH  21  23
HETATM   23  C   UNL     1     -11.132  15.724  67.706  1.00  0.00    -0.313 A  
HETATM   24  N   UNL     1     -11.115  15.643  69.043  1.00  0.00    -0.259 NA 
HETATM   25  O   UNL     1     -10.720  16.896  69.493  1.00  0.00    -0.326 OA 
HETATM   26  C   UNL     1     -10.534  17.726  68.431  1.00  0.00    -0.347 A  
HETATM   27  C   UNL     1     -10.865  17.054  67.268  1.00  0.00    -0.123 A  
HETATM   28  C   UNL     1     -10.759  17.727  66.036  1.00  0.00    -0.119 A  
HETATM   29  C   UNL     1     -10.300  19.050  66.041  1.00  0.00    -0.512 A  
HETATM   30  C   UNL     1      -9.941  19.671  67.237  1.00  0.00    -0.395 A  
HETATM   31  C   UNL     1     -10.053  19.030  68.471  1.00  0.00    -0.467 A  
HETATM   32  F   UNL     1      -9.463  20.922  67.195  1.00  0.00    -0.546 F  
ENDBRANCH  21  23
ENDBRANCH  16  17
ENDBRANCH  15  16
ENDBRANCH   3  15
TORSDOF 4
ENDMDL
MODEL       79
REMARK 921   NORMALIZED FREE ENERGY PREDICTED BY IDOCK:   -6.37 KCAL/MOL
REMARK 922        TOTAL FREE ENERGY PREDICTED BY IDOCK:   -8.13 KCAL/MOL
REMARK 923 INTER-LIGAND FREE ENERGY PREDICTED BY IDOCK:   -7.63 KCAL/MOL
REMARK 924 INTRA-LIGAND FREE ENERGY PREDICTED BY IDOCK:   -0.51 KCAL/MOL
REMARK 927      BINDING AFFINITY PREDICTED BY RF-SCORE:    0.00 PKD
ROOT
HETATM    1  C   UNL     1     -12.635  11.932  64.061  1.00  0.00    -0.388 C  
HETATM    2  C   UNL     1     -11.557  12.635  64.844  1.00  0.00    -0.334 C  
HETATM    3  C   UNL     1     -10.535  12.032  65.485  1.00  0.00    -0.307 C  
HETATM    4  C   UNL     1      -9.556  12.922  66.165  1.00  0.00    -0.210 C  
HETATM    5  O   UNL     1     -10.786  16.831  64.154  1.00  0.00    -0.792 OA 
HETATM    6  C   UNL     1     -11.156  16.272  65.411  1.00  0.00    -0.087 C  
HETATM    7  O   UNL     1      -8.608  12.437  66.782  1.00  0.00    -0.190 OA 
HETATM    8  N   UNL     1      -9.776  14.281  66.074  1.00  0.00    -0.305 N  
HETATM    9  C   UNL     1      -8.885  15.131  66.857  1.00  0.00    -0.256 C  
HETATM   10  N   UNL     1     -11.753  13.992  64.849  1.00  0.00    -0.361 NA 
HETATM   11  C   UNL     1      -8.982  16.614  66.550  1.00  0.00    -0.310 C  
HETATM   12  C   UNL     1     -10.908  14.754  65.458  1.00  0.00    -0.351 C  
HETATM   13  C   UNL     1     -10.443  17.027  66.521  1.00  0.00    -0.250 C  
HETATM   14  H   UNL     1     -11.232  16.359  63.459  1.00  0.00     0.000 HD 
ENDROOT
BRANCH   3  15
HETATM   15  C   UNL     1     -10.193  10.560  65.536  1.00  0.00    -0.325 C  
BRANCH  15  16
HETATM   16  C   UNL     1     -10.537   9.862  66.881  1.00  0.00    -0.178 C  
BRANCH  16  17
HETATM   17  N   UNL     1      -9.587   8.825  67.318  1.00  0.00    -0.157 NA 
HETATM   18  C   UNL     1     -10.874   7.837  69.206  1.00  0.00    -0.091 C  
HETATM   19  C   UNL     1     -10.799   6.572  67.050  1.00  0.00    -0.465 C  
HETATM   20  C   UNL     1      -9.605   8.557  68.758  1.00  0.00    -0.149 C  
HETATM   21  C   UNL     1     -10.929   6.438  68.576  1.00  0.00    -0.396 C  
HETATM   22  C   UNL     1      -9.714   7.557  66.568  1.00  0.00    -0.168 C  
BRANCH  21  23
HETATM   23  C   UNL     1      -9.936   5.552  69.286  1.00  0.00    -0.196 A  
HETATM   24  N   UNL     1      -8.842   5.066  68.685  1.00  0.00    -0.097 NA 
HETATM   25  O   UNL     1      -8.013   4.624  69.708  1.00  0.00    -0.064 OA 
HETATM   26  C   UNL     1      -8.624   4.819  70.908  1.00  0.00    -0.111 A  
HETATM   27  C   UNL     1      -9.891   5.331  70.694  1.00  0.00    -0.264 A  
HETATM   28  C   UNL     1     -10.715   5.601  71.802  1.00  0.00    -0.305 A  
HETATM   29  C   UNL     1     -10.205   5.357  73.083  1.00  0.00    -0.216 A  
HETATM   30  C   UNL     1      -8.906   4.877  73.249  1.00  0.00    -0.107 A  
HETATM   31  C   UNL     1      -8.076   4.587  72.166  1.00  0.00    -0.101 A  
HETATM   32  F   UNL     1      -8.438   4.701  74.491  1.00  0.00    -0.101 F  
ENDBRANCH  21  23
ENDBRANCH  16  17
ENDBRANCH  15  16
ENDBRANCH   3  15
TORSDOF 4
ENDMDL
MODEL       80
REMARK 921   NORMALIZED FREE ENERGY PREDICTED BY IDOCK:   -6.32 KCAL/MOL
REMARK 922        TOTAL FREE ENERGY PREDICTED BY IDOCK:   -8.07 KCAL/MOL
REMARK 923 INTER-LIGAND FREE ENERGY PREDICTED BY IDOCK:   -7.49 KCAL/MOL
REMARK 924 INTRA-LIGAND FREE ENERGY PREDICTED BY IDOCK:   -0.58 KCAL/MOL
REMARK 927      BINDING AFFINITY PREDICTED BY RF-SCORE:    0.00 PKD
ROOT
HETATM    1  C   UNL     1     -12.026  14.126  67.248  1.00  0.00    -0.449 C  
HETATM    2  C   UNL     1     -10.890  15.027  67.655  1.00  0.00    -0.291 C  
HETATM    3  C   UNL     1      -9.672  14.617  68.064  1.00  0.00    -0.216 C  
HETATM    4  C   UNL     1      -8.681  15.680  68.380  1.00  0.00    -0.178 C  
HETATM    5  O   UNL     1     -10.865  19.160  66.391  1.00  0.00    -0.367 OA 
HETATM    6  C   UNL     1     -10.839  18.729  67.749  1.00  0.00    -0.269 C  
HETATM    7  O   UNL     1      -7.555  15.375  68.775  1.00  0.00    -0.125 OA 
HETATM    8  N   UNL     1      -9.091  16.987  68.219  1.00  0.00    -0.234 N  
HETATM    9  C   UNL     1      -8.154  18.015  68.660  1.00  0.00    -0.284 C  
HETATM   10  N   UNL     1     -11.254  16.347  67.580  1.00  0.00    -0.153 NA 
HETATM   11  C   UNL     1      -8.515  19.430  68.249  1.00  0.00    -0.376 C  
HETATM   12  C   UNL     1     -10.391  17.262  67.875  1.00  0.00    -0.360 C  
HETATM   13  C   UNL     1      -9.980  19.685  68.559  1.00  0.00    -0.542 C  
HETATM   14  H   UNL     1     -11.402  18.562  65.884  1.00  0.00     0.000 HD 
ENDROOT
BRANCH   3  15
HETATM   15  C   UNL     1      -9.139  13.205  68.165  1.00  0.00    -0.200 C  
BRANCH  15  16
HETATM   16  C   UNL     1      -8.887  12.509  66.798  1.00  0.00    -0.177 C  
BRANCH  16  17
HETATM   17  N   UNL     1      -8.264  11.177  66.871  1.00  0.00    -0.143 NA 
HETATM   18  C   UNL     1     -10.173   9.862  67.776  1.00  0.00    -0.241 C  
HETATM   19  C   UNL     1      -9.650   9.643  65.341  1.00  0.00    -0.361 C  
HETATM   20  C   UNL     1      -8.741  10.347  67.979  1.00  0.00    -0.123 C  
HETATM   21  C   UNL     1     -10.239   8.923  66.564  1.00  0.00    -0.319 C  
HETATM   22  C   UNL     1      -8.344  10.420  65.604  1.00  0.00    -0.163 C  
BRANCH  21  23
HETATM   23  C   UNL     1      -9.633   7.596  66.952  1.00  0.00    -0.193 A  
HETATM   24  N   UNL     1      -8.506   7.128  66.400  1.00  0.00    -0.123 NA 
HETATM   25  O   UNL     1      -8.073   6.106  67.235  1.00  0.00    -0.105 OA 
HETATM   26  C   UNL     1      -8.954   5.947  68.259  1.00  0.00    -0.112 A  
HETATM   27  C   UNL     1     -10.016   6.817  68.082  1.00  0.00    -0.161 A  
HETATM   28  C   UNL     1     -11.062   6.818  69.024  1.00  0.00    -0.254 A  
HETATM   29  C   UNL     1     -10.972   5.948  70.117  1.00  0.00    -0.412 A  
HETATM   30  C   UNL     1      -9.861   5.118  70.272  1.00  0.00    -0.225 A  
HETATM   31  C   UNL     1      -8.820   5.087  69.344  1.00  0.00    -0.116 A  
HETATM   32  F   UNL     1      -9.790   4.333  71.355  1.00  0.00    -0.218 F  
ENDBRANCH  21  23
ENDBRANCH  16  17
ENDBRANCH  15  16
ENDBRANCH   3  15
TORSDOF 4
ENDMDL
MODEL       81
REMARK 921   NORMALIZED FREE ENERGY PREDICTED BY IDOCK:   -6.32 KCAL/MOL
REMARK 922        TOTAL FREE ENERGY PREDICTED BY IDOCK:   -8.07 KCAL/MOL
REMARK 923 INTER-LIGAND FREE ENERGY PREDICTED BY IDOCK:   -7.64 KCAL/MOL
REMARK 924 INTRA-LIGAND FREE ENERGY PREDICTED BY IDOCK:   -0.42 KCAL/MOL
REMARK 927      BINDING AFFINITY PREDICTED BY RF-SCORE:    0.00 PKD
ROOT
HETATM    1  C   UNL     1      -6.592   7.665  66.787  1.00  0.00    -0.061 C  
HETATM    2  C   UNL     1      -7.771   6.776  66.491  1.00  0.00    -0.102 C  
HETATM    3  C   UNL     1      -8.930   6.756  67.181  1.00  0.00    -0.116 C  
HETATM    4  C   UNL     1      -9.982   5.825  66.690  1.00  0.00    -0.176 C  
HETATM    5  O   UNL     1      -8.181   4.978  62.583  1.00  0.00    -0.085 OA 
HETATM    6  C   UNL     1      -8.101   4.249  63.804  1.00  0.00    -0.093 C  
HETATM    7  O   UNL     1     -11.059   5.745  67.282  1.00  0.00    -0.189 OA 
HETATM    8  N   UNL     1      -9.683   5.073  65.573  1.00  0.00    -0.111 N  
HETATM    9  C   UNL     1     -10.671   4.071  65.187  1.00  0.00     0.020 C  
HETATM   10  N   UNL     1      -7.514   5.951  65.426  1.00  0.00    -0.079 NA 
HETATM   11  C   UNL     1     -10.442   3.436  63.829  1.00  0.00    -0.256 C  
HETATM   12  C   UNL     1      -8.428   5.134  65.020  1.00  0.00    -0.148 C  
HETATM   13  C   UNL     1      -8.987   3.018  63.709  1.00  0.00    -0.096 C  
HETATM   14  H   UNL     1      -7.627   5.748  62.642  1.00  0.00     0.000 HD 
ENDROOT
BRANCH   3  15
HETATM   15  C   UNL     1      -9.347   7.623  68.347  1.00  0.00    -0.146 C  
BRANCH  15  16
HETATM   16  C   UNL     1      -9.886   9.026  67.950  1.00  0.00    -0.171 C  
BRANCH  16  17
HETATM   17  N   UNL     1      -9.772  10.065  68.987  1.00  0.00    -0.189 NA 
HETATM   18  C   UNL     1     -10.505  12.053  67.680  1.00  0.00    -0.226 C  
HETATM   19  C   UNL     1     -12.131  11.046  69.292  1.00  0.00    -0.363 C  
HETATM   20  C   UNL     1      -9.390  11.385  68.480  1.00  0.00    -0.180 C  
HETATM   21  C   UNL     1     -11.700  12.348  68.598  1.00  0.00    -0.372 C  
HETATM   22  C   UNL     1     -10.976  10.182  69.838  1.00  0.00    -0.293 C  
BRANCH  21  23
HETATM   23  C   UNL     1     -11.352  13.526  69.475  1.00  0.00    -0.202 A  
HETATM   24  N   UNL     1     -10.484  14.474  69.100  1.00  0.00    -0.238 NA 
HETATM   25  O   UNL     1     -10.693  15.541  69.964  1.00  0.00    -0.277 OA 
HETATM   26  C   UNL     1     -11.658  15.217  70.866  1.00  0.00    -0.338 A  
HETATM   27  C   UNL     1     -12.056  13.909  70.654  1.00  0.00    -0.417 A  
HETATM   28  C   UNL     1     -13.045  13.352  71.486  1.00  0.00    -0.427 A  
HETATM   29  C   UNL     1     -13.603  14.159  72.485  1.00  0.00    -0.644 A  
HETATM   30  C   UNL     1     -13.196  15.485  72.634  1.00  0.00    -0.486 A  
HETATM   31  C   UNL     1     -12.206  16.054  71.833  1.00  0.00    -0.560 A  
HETATM   32  F   UNL     1     -13.786  16.238  73.572  1.00  0.00    -0.623 F  
ENDBRANCH  21  23
ENDBRANCH  16  17
ENDBRANCH  15  16
ENDBRANCH   3  15
TORSDOF 4
ENDMDL
MODEL       82
REMARK 921   NORMALIZED FREE ENERGY PREDICTED BY IDOCK:   -6.28 KCAL/MOL
REMARK 922        TOTAL FREE ENERGY PREDICTED BY IDOCK:   -8.02 KCAL/MOL
REMARK 923 INTER-LIGAND FREE ENERGY PREDICTED BY IDOCK:   -7.67 KCAL/MOL
REMARK 924 INTRA-LIGAND FREE ENERGY PREDICTED BY IDOCK:   -0.35 KCAL/MOL
REMARK 927      BINDING AFFINITY PREDICTED BY RF-SCORE:    0.00 PKD
ROOT
HETATM    1  C   UNL     1      -6.820   9.593  64.392  1.00  0.00    -0.111 C  
HETATM    2  C   UNL     1      -7.610   8.660  65.272  1.00  0.00    -0.088 C  
HETATM    3  C   UNL     1      -8.196   8.993  66.440  1.00  0.00    -0.111 C  
HETATM    4  C   UNL     1      -8.965   7.922  67.130  1.00  0.00    -0.129 C  
HETATM    5  O   UNL     1      -9.241   5.014  63.623  1.00  0.00    -0.349 OA 
HETATM    6  C   UNL     1      -8.331   5.070  64.718  1.00  0.00    -0.140 C  
HETATM    7  O   UNL     1      -9.512   8.154  68.208  1.00  0.00    -0.141 OA 
HETATM    8  N   UNL     1      -9.015   6.690  66.512  1.00  0.00    -0.140 N  
HETATM    9  C   UNL     1      -9.658   5.618  67.266  1.00  0.00    -0.119 C  
HETATM   10  N   UNL     1      -7.644   7.394  64.746  1.00  0.00    -0.096 NA 
HETATM   11  C   UNL     1      -9.922   4.350  66.476  1.00  0.00    -0.245 C  
HETATM   12  C   UNL     1      -8.299   6.467  65.363  1.00  0.00    -0.140 C  
HETATM   13  C   UNL     1      -8.671   3.967  65.706  1.00  0.00    -0.114 C  
HETATM   14  H   UNL     1      -9.028   5.704  63.005  1.00  0.00     0.000 HD 
ENDROOT
BRANCH   3  15
HETATM   15  C   UNL     1      -8.255  10.347  67.112  1.00  0.00    -0.122 C  
BRANCH  15  16
HETATM   16  C   UNL     1      -9.472  11.221  66.701  1.00  0.00    -0.186 C  
BRANCH  16  17
HETATM   17  N   UNL     1      -9.881  12.239  67.682  1.00  0.00    -0.193 NA 
HETATM   18  C   UNL     1      -9.349  14.305  66.399  1.00  0.00    -0.270 C  
HETATM   19  C   UNL     1     -11.747  13.615  66.566  1.00  0.00    -0.414 C  
HETATM   20  C   UNL     1      -9.083  13.467  67.647  1.00  0.00    -0.205 C  
HETATM   21  C   UNL     1     -10.798  14.813  66.412  1.00  0.00    -0.322 C  
HETATM   22  C   UNL     1     -11.321  12.573  67.620  1.00  0.00    -0.306 C  
BRANCH  21  23
HETATM   23  C   UNL     1     -10.907  15.926  67.426  1.00  0.00    -0.291 A  
HETATM   24  N   UNL     1     -10.947  15.700  68.745  1.00  0.00    -0.264 NA 
HETATM   25  O   UNL     1     -10.682  16.923  69.346  1.00  0.00    -0.335 OA 
HETATM   26  C   UNL     1     -10.515  17.877  68.391  1.00  0.00    -0.330 A  
HETATM   27  C   UNL     1     -10.733  17.313  67.146  1.00  0.00    -0.181 A  
HETATM   28  C   UNL     1     -10.625  18.124  66.001  1.00  0.00    -0.278 A  
HETATM   29  C   UNL     1     -10.280  19.470  66.171  1.00  0.00    -0.588 A  
HETATM   30  C   UNL     1     -10.032  19.982  67.445  1.00  0.00    -0.433 A  
HETATM   31  C   UNL     1     -10.148  19.203  68.596  1.00  0.00    -0.471 A  
HETATM   32  F   UNL     1      -9.660  21.263  67.562  1.00  0.00    -0.557 F  
ENDBRANCH  21  23
ENDBRANCH  16  17
ENDBRANCH  15  16
ENDBRANCH   3  15
TORSDOF 4
ENDMDL
MODEL       83
REMARK 921   NORMALIZED FREE ENERGY PREDICTED BY IDOCK:   -6.28 KCAL/MOL
REMARK 922        TOTAL FREE ENERGY PREDICTED BY IDOCK:   -8.02 KCAL/MOL
REMARK 923 INTER-LIGAND FREE ENERGY PREDICTED BY IDOCK:   -7.92 KCAL/MOL
REMARK 924 INTRA-LIGAND FREE ENERGY PREDICTED BY IDOCK:   -0.10 KCAL/MOL
REMARK 927      BINDING AFFINITY PREDICTED BY RF-SCORE:    0.00 PKD
ROOT
HETATM    1  C   UNL     1     -10.979   7.168  67.749  1.00  0.00    -0.187 C  
HETATM    2  C   UNL     1      -9.954   7.782  66.831  1.00  0.00    -0.261 C  
HETATM    3  C   UNL     1      -9.714   9.102  66.697  1.00  0.00    -0.287 C  
HETATM    4  C   UNL     1      -8.625   9.490  65.761  1.00  0.00    -0.138 C  
HETATM    5  O   UNL     1      -6.681   5.381  65.350  1.00  0.00    -0.040 OA 
HETATM    6  C   UNL     1      -7.631   6.050  64.525  1.00  0.00    -0.092 C  
HETATM    7  O   UNL     1      -8.363  10.680  65.578  1.00  0.00    -0.165 OA 
HETATM    8  N   UNL     1      -7.955   8.468  65.120  1.00  0.00    -0.122 N  
HETATM    9  C   UNL     1      -6.984   8.871  64.107  1.00  0.00    -0.089 C  
HETATM   10  N   UNL     1      -9.293   6.820  66.112  1.00  0.00    -0.106 NA 
HETATM   11  C   UNL     1      -6.090   7.755  63.600  1.00  0.00    -0.058 C  
HETATM   12  C   UNL     1      -8.363   7.169  65.288  1.00  0.00    -0.096 C  
HETATM   13  C   UNL     1      -6.939   6.542  63.265  1.00  0.00    -0.051 C  
HETATM   14  H   UNL     1      -7.113   5.073  66.138  1.00  0.00     0.000 HD 
ENDROOT
BRANCH   3  15
HETATM   15  C   UNL     1     -10.348  10.256  67.442  1.00  0.00    -0.282 C  
BRANCH  15  16
HETATM   16  C   UNL     1     -11.323  11.118  66.591  1.00  0.00    -0.001 C  
BRANCH  16  17
HETATM   17  N   UNL     1     -11.793  12.358  67.230  1.00  0.00    -0.519 NA 
HETATM   18  C   UNL     1      -9.615  13.510  67.578  1.00  0.00    -0.221 C  
HETATM   19  C   UNL     1     -11.063  14.287  65.693  1.00  0.00    -0.316 C  
HETATM   20  C   UNL     1     -10.867  12.918  68.217  1.00  0.00    -0.242 C  
HETATM   21  C   UNL     1      -9.995  14.718  66.710  1.00  0.00    -0.256 C  
HETATM   22  C   UNL     1     -12.191  13.404  66.264  1.00  0.00    -0.398 C  
BRANCH  21  23
HETATM   23  C   UNL     1     -10.322  15.878  67.618  1.00  0.00    -0.281 A  
HETATM   24  N   UNL     1     -10.397  15.754  68.950  1.00  0.00    -0.214 NA 
HETATM   25  O   UNL     1     -10.348  17.047  69.453  1.00  0.00    -0.299 OA 
HETATM   26  C   UNL     1     -10.276  17.936  68.426  1.00  0.00    -0.394 A  
HETATM   27  C   UNL     1     -10.342  17.249  67.227  1.00  0.00    -0.331 A  
HETATM   28  C   UNL     1     -10.297  17.973  66.021  1.00  0.00    -0.333 A  
HETATM   29  C   UNL     1     -10.165  19.365  66.088  1.00  0.00    -0.570 A  
HETATM   30  C   UNL     1     -10.064  20.009  67.321  1.00  0.00    -0.437 A  
HETATM   31  C   UNL     1     -10.123  19.315  68.530  1.00  0.00    -0.513 A  
HETATM   32  F   UNL     1      -9.894  21.337  67.342  1.00  0.00    -0.618 F  
ENDBRANCH  21  23
ENDBRANCH  16  17
ENDBRANCH  15  16
ENDBRANCH   3  15
TORSDOF 4
ENDMDL
MODEL       84
REMARK 921   NORMALIZED FREE ENERGY PREDICTED BY IDOCK:   -6.27 KCAL/MOL
REMARK 922        TOTAL FREE ENERGY PREDICTED BY IDOCK:   -8.01 KCAL/MOL
REMARK 923 INTER-LIGAND FREE ENERGY PREDICTED BY IDOCK:   -7.29 KCAL/MOL
REMARK 924 INTRA-LIGAND FREE ENERGY PREDICTED BY IDOCK:   -0.72 KCAL/MOL
REMARK 927      BINDING AFFINITY PREDICTED BY RF-SCORE:    0.00 PKD
ROOT
HETATM    1  C   UNL     1      -8.652   3.018  72.160  1.00  0.00    -0.092 C  
HETATM    2  C   UNL     1      -9.109   3.572  70.836  1.00  0.00    -0.112 C  
HETATM    3  C   UNL     1      -9.935   4.626  70.670  1.00  0.00    -0.293 C  
HETATM    4  C   UNL     1     -10.225   5.032  69.269  1.00  0.00    -0.174 C  
HETATM    5  O   UNL     1      -6.869   2.690  67.248  1.00  0.00    -0.043 OA 
HETATM    6  C   UNL     1      -8.243   2.369  67.442  1.00  0.00    -0.072 C  
HETATM    7  O   UNL     1     -10.983   5.976  69.045  1.00  0.00    -0.321 OA 
HETATM    8  N   UNL     1      -9.620   4.302  68.266  1.00  0.00    -0.153 N  
HETATM    9  C   UNL     1     -10.021   4.627  66.902  1.00  0.00    -0.211 C  
HETATM   10  N   UNL     1      -8.594   2.847  69.792  1.00  0.00    -0.061 NA 
HETATM   11  C   UNL     1      -9.170   3.994  65.817  1.00  0.00    -0.151 C  
HETATM   12  C   UNL     1      -8.868   3.197  68.580  1.00  0.00    -0.119 C  
HETATM   13  C   UNL     1      -8.982   2.518  66.122  1.00  0.00    -0.123 C  
HETATM   14  H   UNL     1      -6.407   2.596  68.073  1.00  0.00     0.000 HD 
ENDROOT
BRANCH   3  15
HETATM   15  C   UNL     1     -10.546   5.519  71.727  1.00  0.00    -0.296 C  
BRANCH  15  16
HETATM   16  C   UNL     1      -9.643   6.704  72.173  1.00  0.00    -0.147 C  
BRANCH  16  17
HETATM   17  N   UNL     1     -10.358   7.909  72.625  1.00  0.00    -0.281 NA 
HETATM   18  C   UNL     1     -10.566   9.117  70.459  1.00  0.00    -0.287 C  
HETATM   19  C   UNL     1     -12.591   7.948  71.348  1.00  0.00    -0.319 C  
HETATM   20  C   UNL     1     -10.020   9.126  71.883  1.00  0.00    -0.094 C  
HETATM   21  C   UNL     1     -12.101   9.126  70.490  1.00  0.00    -0.014 C  
HETATM   22  C   UNL     1     -11.826   7.740  72.671  1.00  0.00    -0.262 C  
BRANCH  21  23
HETATM   23  C   UNL     1     -12.566  10.510  70.872  1.00  0.00    -0.398 A  
HETATM   24  N   UNL     1     -13.093  10.789  72.071  1.00  0.00    -0.464 NA 
HETATM   25  O   UNL     1     -13.056  12.172  72.188  1.00  0.00    -0.434 OA 
HETATM   26  C   UNL     1     -12.537  12.713  71.053  1.00  0.00    -0.262 A  
HETATM   27  C   UNL     1     -12.285  11.702  70.143  1.00  0.00    -0.367 A  
HETATM   28  C   UNL     1     -11.753  12.034  68.883  1.00  0.00    -0.383 A  
HETATM   29  C   UNL     1     -11.480  13.380  68.612  1.00  0.00    -0.345 A  
HETATM   30  C   UNL     1     -11.716  14.359  69.577  1.00  0.00    -0.313 A  
HETATM   31  C   UNL     1     -12.258  14.057  70.827  1.00  0.00    -0.438 A  
HETATM   32  F   UNL     1     -11.399  15.630  69.296  1.00  0.00    -0.260 F  
ENDBRANCH  21  23
ENDBRANCH  16  17
ENDBRANCH  15  16
ENDBRANCH   3  15
TORSDOF 4
ENDMDL
MODEL       85
REMARK 921   NORMALIZED FREE ENERGY PREDICTED BY IDOCK:   -6.27 KCAL/MOL
REMARK 922        TOTAL FREE ENERGY PREDICTED BY IDOCK:   -8.01 KCAL/MOL
REMARK 923 INTER-LIGAND FREE ENERGY PREDICTED BY IDOCK:   -7.30 KCAL/MOL
REMARK 924 INTRA-LIGAND FREE ENERGY PREDICTED BY IDOCK:   -0.70 KCAL/MOL
REMARK 927      BINDING AFFINITY PREDICTED BY RF-SCORE:    0.00 PKD
ROOT
HETATM    1  C   UNL     1      -6.950  15.108  69.135  1.00  0.00    -0.147 C  
HETATM    2  C   UNL     1      -8.007  16.106  68.741  1.00  0.00    -0.216 C  
HETATM    3  C   UNL     1      -9.338  15.921  68.851  1.00  0.00    -0.233 C  
HETATM    4  C   UNL     1     -10.205  17.058  68.440  1.00  0.00    -0.331 C  
HETATM    5  O   UNL     1      -6.978  20.284  68.346  1.00  0.00    -0.289 OA 
HETATM    6  C   UNL     1      -7.527  19.485  67.303  1.00  0.00    -0.231 C  
HETATM    7  O   UNL     1     -11.431  16.952  68.500  1.00  0.00    -0.130 OA 
HETATM    8  N   UNL     1      -9.573  18.199  67.991  1.00  0.00    -0.289 N  
HETATM    9  C   UNL     1     -10.437  19.251  67.467  1.00  0.00    -0.459 C  
HETATM   10  N   UNL     1      -7.445  17.244  68.223  1.00  0.00    -0.215 NA 
HETATM   11  C   UNL     1      -9.749  20.579  67.215  1.00  0.00    -0.600 C  
HETATM   12  C   UNL     1      -8.207  18.218  67.852  1.00  0.00    -0.253 C  
HETATM   13  C   UNL     1      -8.456  20.339  66.456  1.00  0.00    -0.262 C  
HETATM   14  H   UNL     1      -6.397  19.751  68.876  1.00  0.00     0.000 HD 
ENDROOT
BRANCH   3  15
HETATM   15  C   UNL     1     -10.081  14.735  69.424  1.00  0.00    -0.120 C  
BRANCH  15  16
HETATM   16  C   UNL     1     -10.500  13.667  68.376  1.00  0.00    -0.246 C  
BRANCH  16  17
HETATM   17  N   UNL     1      -9.488  12.639  68.079  1.00  0.00    -0.204 NA 
HETATM   18  C   UNL     1     -10.977  10.712  67.563  1.00  0.00    -0.371 C  
HETATM   19  C   UNL     1      -9.894  11.902  65.648  1.00  0.00    -0.266 C  
HETATM   20  C   UNL     1      -9.879  11.279  68.458  1.00  0.00    -0.197 C  
HETATM   21  C   UNL     1     -10.450  10.553  66.130  1.00  0.00    -0.237 C  
HETATM   22  C   UNL     1      -9.025  12.657  66.675  1.00  0.00    -0.164 C  
BRANCH  21  23
HETATM   23  C   UNL     1      -9.525   9.361  66.088  1.00  0.00    -0.226 A  
HETATM   24  N   UNL     1      -8.233   9.461  65.749  1.00  0.00    -0.114 NA 
HETATM   25  O   UNL     1      -7.639   8.279  66.168  1.00  0.00    -0.083 OA 
HETATM   26  C   UNL     1      -8.578   7.467  66.726  1.00  0.00    -0.127 A  
HETATM   27  C   UNL     1      -9.818   8.074  66.625  1.00  0.00    -0.322 A  
HETATM   28  C   UNL     1     -10.949   7.404  67.130  1.00  0.00    -0.225 A  
HETATM   29  C   UNL     1     -10.765   6.155  67.735  1.00  0.00    -0.382 A  
HETATM   30  C   UNL     1      -9.489   5.604  67.848  1.00  0.00    -0.113 A  
HETATM   31  C   UNL     1      -8.355   6.239  67.341  1.00  0.00    -0.109 A  
HETATM   32  F   UNL     1      -9.349   4.428  68.475  1.00  0.00    -0.142 F  
ENDBRANCH  21  23
ENDBRANCH  16  17
ENDBRANCH  15  16
ENDBRANCH   3  15
TORSDOF 4
ENDMDL
MODEL       86
REMARK 921   NORMALIZED FREE ENERGY PREDICTED BY IDOCK:   -6.26 KCAL/MOL
REMARK 922        TOTAL FREE ENERGY PREDICTED BY IDOCK:   -7.99 KCAL/MOL
REMARK 923 INTER-LIGAND FREE ENERGY PREDICTED BY IDOCK:   -7.21 KCAL/MOL
REMARK 924 INTRA-LIGAND FREE ENERGY PREDICTED BY IDOCK:   -0.78 KCAL/MOL
REMARK 927      BINDING AFFINITY PREDICTED BY RF-SCORE:    0.00 PKD
ROOT
HETATM    1  C   UNL     1     -12.406  11.516  70.457  1.00  0.00    -0.432 C  
HETATM    2  C   UNL     1     -11.465  10.739  69.574  1.00  0.00    -0.294 C  
HETATM    3  C   UNL     1     -11.324  10.903  68.243  1.00  0.00    -0.374 C  
HETATM    4  C   UNL     1     -10.302  10.056  67.571  1.00  0.00    -0.232 C  
HETATM    5  O   UNL     1      -8.091   8.678  71.319  1.00  0.00    -0.122 OA 
HETATM    6  C   UNL     1      -9.118   8.049  70.558  1.00  0.00    -0.153 C  
HETATM    7  O   UNL     1     -10.133  10.143  66.354  1.00  0.00    -0.220 OA 
HETATM    8  N   UNL     1      -9.588   9.185  68.368  1.00  0.00    -0.150 N  
HETATM    9  C   UNL     1      -8.688   8.269  67.674  1.00  0.00    -0.133 C  
HETATM   10  N   UNL     1     -10.767   9.806  70.296  1.00  0.00    -0.279 NA 
HETATM   11  C   UNL     1      -7.738   7.501  68.574  1.00  0.00    -0.120 C  
HETATM   12  C   UNL     1      -9.896   9.062  69.699  1.00  0.00    -0.178 C  
HETATM   13  C   UNL     1      -8.513   6.918  69.742  1.00  0.00    -0.133 C  
HETATM   14  H   UNL     1      -8.469   9.385  71.829  1.00  0.00     0.000 HD 
ENDROOT
BRANCH   3  15
HETATM   15  C   UNL     1     -12.008  11.905  67.340  1.00  0.00    -0.090 C  
BRANCH  15  16
HETATM   16  C   UNL     1     -11.558  13.378  67.550  1.00  0.00    -0.344 C  
BRANCH  16  17
HETATM   17  N   UNL     1     -10.169  13.678  67.165  1.00  0.00    -0.242 NA 
HETATM   18  C   UNL     1     -10.251  16.166  67.178  1.00  0.00    -0.281 C  
HETATM   19  C   UNL     1      -9.150  15.020  69.109  1.00  0.00    -0.183 C  
HETATM   20  C   UNL     1     -10.013  14.896  66.366  1.00  0.00    -0.275 C  
HETATM   21  C   UNL     1      -9.172  16.301  68.261  1.00  0.00    -0.197 C  
HETATM   22  C   UNL     1      -9.233  13.704  68.309  1.00  0.00    -0.198 C  
BRANCH  21  23
HETATM   23  C   UNL     1      -7.882  16.725  67.603  1.00  0.00    -0.175 A  
HETATM   24  N   UNL     1      -6.876  15.872  67.369  1.00  0.00    -0.179 NA 
HETATM   25  O   UNL     1      -6.047  16.507  66.455  1.00  0.00    -0.297 OA 
HETATM   26  C   UNL     1      -6.540  17.743  66.170  1.00  0.00    -0.274 A  
HETATM   27  C   UNL     1      -7.667  17.969  66.941  1.00  0.00    -0.245 A  
HETATM   28  C   UNL     1      -8.341  19.198  66.820  1.00  0.00    -0.305 A  
HETATM   29  C   UNL     1      -7.852  20.137  65.904  1.00  0.00    -0.218 A  
HETATM   30  C   UNL     1      -6.734  19.846  65.121  1.00  0.00    -0.272 A  
HETATM   31  C   UNL     1      -6.039  18.642  65.234  1.00  0.00    -0.309 A  
HETATM   32  F   UNL     1      -6.324  20.751  64.223  1.00  0.00    -0.306 F  
ENDBRANCH  21  23
ENDBRANCH  16  17
ENDBRANCH  15  16
ENDBRANCH   3  15
TORSDOF 4
ENDMDL
MODEL       87
REMARK 921   NORMALIZED FREE ENERGY PREDICTED BY IDOCK:   -6.24 KCAL/MOL
REMARK 922        TOTAL FREE ENERGY PREDICTED BY IDOCK:   -7.98 KCAL/MOL
REMARK 923 INTER-LIGAND FREE ENERGY PREDICTED BY IDOCK:   -7.22 KCAL/MOL
REMARK 924 INTRA-LIGAND FREE ENERGY PREDICTED BY IDOCK:   -0.76 KCAL/MOL
REMARK 927      BINDING AFFINITY PREDICTED BY RF-SCORE:    0.00 PKD
ROOT
HETATM    1  C   UNL     1     -11.204  12.753  66.200  1.00  0.00    -0.336 C  
HETATM    2  C   UNL     1     -10.198  13.710  66.783  1.00  0.00    -0.268 C  
HETATM    3  C   UNL     1      -8.939  13.395  67.152  1.00  0.00    -0.227 C  
HETATM    4  C   UNL     1      -8.098  14.508  67.668  1.00  0.00    -0.179 C  
HETATM    5  O   UNL     1     -10.706  17.966  66.227  1.00  0.00    -0.276 OA 
HETATM    6  C   UNL     1     -10.632  17.318  67.494  1.00  0.00    -0.329 C  
HETATM    7  O   UNL     1      -6.944  14.287  68.038  1.00  0.00    -0.111 OA 
HETATM    8  N   UNL     1      -8.674  15.760  67.716  1.00  0.00    -0.169 N  
HETATM    9  C   UNL     1      -7.882  16.810  68.349  1.00  0.00    -0.214 C  
HETATM   10  N   UNL     1     -10.731  14.966  66.919  1.00  0.00    -0.302 NA 
HETATM   11  C   UNL     1      -8.423  18.216  68.169  1.00  0.00    -0.282 C  
HETATM   12  C   UNL     1      -9.997  15.921  67.386  1.00  0.00    -0.239 C  
HETATM   13  C   UNL     1      -9.910  18.226  68.476  1.00  0.00    -0.400 C  
HETATM   14  H   UNL     1     -11.157  17.398  65.613  1.00  0.00     0.000 HD 
ENDROOT
BRANCH   3  15
HETATM   15  C   UNL     1      -8.227  12.067  67.031  1.00  0.00    -0.169 C  
BRANCH  15  16
HETATM   16  C   UNL     1      -8.063  11.297  68.372  1.00  0.00    -0.143 C  
BRANCH  16  17
HETATM   17  N   UNL     1      -8.551   9.908  68.368  1.00  0.00    -0.114 NA 
HETATM   18  C   UNL     1      -9.471   9.774  70.676  1.00  0.00    -0.065 C  
HETATM   19  C   UNL     1     -11.087  10.029  68.784  1.00  0.00    -0.219 C  
HETATM   20  C   UNL     1      -8.465   9.233  69.665  1.00  0.00    -0.140 C  
HETATM   21  C   UNL     1     -10.900   9.469  70.203  1.00  0.00    -0.300 C  
HETATM   22  C   UNL     1      -9.916   9.765  67.816  1.00  0.00    -0.168 C  
BRANCH  21  23
HETATM   23  C   UNL     1     -11.173   8.001  70.416  1.00  0.00    -0.229 A  
HETATM   24  N   UNL     1     -11.372   7.149  69.402  1.00  0.00    -0.042 NA 
HETATM   25  O   UNL     1     -11.226   5.878  69.941  1.00  0.00    -0.378 OA 
HETATM   26  C   UNL     1     -10.971   5.973  71.275  1.00  0.00    -0.278 A  
HETATM   27  C   UNL     1     -11.010   7.304  71.649  1.00  0.00    -0.253 A  
HETATM   28  C   UNL     1     -10.786   7.641  72.997  1.00  0.00    -0.449 A  
HETATM   29  C   UNL     1     -10.509   6.609  73.902  1.00  0.00    -0.351 A  
HETATM   30  C   UNL     1     -10.442   5.285  73.467  1.00  0.00    -0.241 A  
HETATM   31  C   UNL     1     -10.677   4.924  72.140  1.00  0.00    -0.193 A  
HETATM   32  F   UNL     1     -10.130   4.332  74.355  1.00  0.00    -0.155 F  
ENDBRANCH  21  23
ENDBRANCH  16  17
ENDBRANCH  15  16
ENDBRANCH   3  15
TORSDOF 4
ENDMDL
MODEL       88
REMARK 921   NORMALIZED FREE ENERGY PREDICTED BY IDOCK:   -6.24 KCAL/MOL
REMARK 922        TOTAL FREE ENERGY PREDICTED BY IDOCK:   -7.97 KCAL/MOL
REMARK 923 INTER-LIGAND FREE ENERGY PREDICTED BY IDOCK:   -7.16 KCAL/MOL
REMARK 924 INTRA-LIGAND FREE ENERGY PREDICTED BY IDOCK:   -0.82 KCAL/MOL
REMARK 927      BINDING AFFINITY PREDICTED BY RF-SCORE:    0.00 PKD
ROOT
HETATM    1  C   UNL     1      -8.678   7.978  73.674  1.00  0.00    -0.332 C  
HETATM    2  C   UNL     1      -9.133   6.950  72.672  1.00  0.00    -0.134 C  
HETATM    3  C   UNL     1     -10.182   7.083  71.834  1.00  0.00    -0.205 C  
HETATM    4  C   UNL     1     -10.431   5.958  70.893  1.00  0.00    -0.244 C  
HETATM    5  O   UNL     1      -6.409   3.855  71.377  1.00  0.00    -0.014 OA 
HETATM    6  C   UNL     1      -7.667   3.616  72.001  1.00  0.00    -0.059 C  
HETATM    7  O   UNL     1     -11.382   6.007  70.112  1.00  0.00    -0.372 OA 
HETATM    8  N   UNL     1      -9.567   4.885  70.956  1.00  0.00    -0.164 N  
HETATM    9  C   UNL     1      -9.905   3.736  70.123  1.00  0.00    -0.047 C  
HETATM   10  N   UNL     1      -8.352   5.825  72.727  1.00  0.00    -0.119 NA 
HETATM   11  C   UNL     1      -8.821   2.680  70.017  1.00  0.00    -0.145 C  
HETATM   12  C   UNL     1      -8.589   4.846  71.919  1.00  0.00    -0.127 C  
HETATM   13  C   UNL     1      -8.290   2.365  71.404  1.00  0.00    -0.077 C  
HETATM   14  H   UNL     1      -6.020   4.638  71.749  1.00  0.00     0.000 HD 
ENDROOT
BRANCH   3  15
HETATM   15  C   UNL     1     -11.100   8.272  71.656  1.00  0.00    -0.326 C  
BRANCH  15  16
HETATM   16  C   UNL     1     -10.508   9.423  70.796  1.00  0.00    -0.304 C  
BRANCH  16  17
HETATM   17  N   UNL     1     -10.941   9.450  69.389  1.00  0.00    -0.192 NA 
HETATM   18  C   UNL     1     -10.083  11.689  68.722  1.00  0.00    -0.169 C  
HETATM   19  C   UNL     1      -8.802   9.675  67.976  1.00  0.00    -0.119 C  
HETATM   20  C   UNL     1     -11.297  10.781  68.891  1.00  0.00    -0.284 C  
HETATM   21  C   UNL     1      -9.161  11.129  67.629  1.00  0.00    -0.151 C  
HETATM   22  C   UNL     1      -9.981   8.808  68.465  1.00  0.00    -0.182 C  
BRANCH  21  23
HETATM   23  C   UNL     1      -9.795  11.391  66.285  1.00  0.00    -0.218 A  
HETATM   24  N   UNL     1     -10.155  10.406  65.453  1.00  0.00    -0.290 NA 
HETATM   25  O   UNL     1     -11.006  10.989  64.523  1.00  0.00    -0.270 OA 
HETATM   26  C   UNL     1     -11.126  12.319  64.784  1.00  0.00    -0.311 A  
HETATM   27  C   UNL     1     -10.307  12.647  65.848  1.00  0.00    -0.295 A  
HETATM   28  C   UNL     1     -10.261  13.984  66.288  1.00  0.00    -0.300 A  
HETATM   29  C   UNL     1     -11.068  14.924  65.638  1.00  0.00    -0.348 A  
HETATM   30  C   UNL     1     -11.908  14.536  64.594  1.00  0.00    -0.453 A  
HETATM   31  C   UNL     1     -11.959  13.221  64.129  1.00  0.00    -0.505 A  
HETATM   32  F   UNL     1     -12.699  15.456  64.027  1.00  0.00    -0.398 F  
ENDBRANCH  21  23
ENDBRANCH  16  17
ENDBRANCH  15  16
ENDBRANCH   3  15
TORSDOF 4
ENDMDL
MODEL       89
REMARK 921   NORMALIZED FREE ENERGY PREDICTED BY IDOCK:   -6.24 KCAL/MOL
REMARK 922        TOTAL FREE ENERGY PREDICTED BY IDOCK:   -7.97 KCAL/MOL
REMARK 923 INTER-LIGAND FREE ENERGY PREDICTED BY IDOCK:   -7.32 KCAL/MOL
REMARK 924 INTRA-LIGAND FREE ENERGY PREDICTED BY IDOCK:   -0.65 KCAL/MOL
REMARK 927      BINDING AFFINITY PREDICTED BY RF-SCORE:    0.00 PKD
ROOT
HETATM    1  C   UNL     1     -12.642  11.606  63.681  1.00  0.00    -0.309 C  
HETATM    2  C   UNL     1     -11.615  12.401  64.443  1.00  0.00    -0.354 C  
HETATM    3  C   UNL     1     -10.517  11.893  65.041  1.00  0.00    -0.333 C  
HETATM    4  C   UNL     1      -9.610  12.866  65.706  1.00  0.00    -0.074 C  
HETATM    5  O   UNL     1     -11.288  16.663  63.807  1.00  0.00    -1.457 OA 
HETATM    6  C   UNL     1     -11.560  16.051  65.065  1.00  0.00     0.098 C  
HETATM    7  O   UNL     1      -8.598  12.469  66.285  1.00  0.00     0.030 OA 
HETATM    8  N   UNL     1      -9.967  14.198  65.648  1.00  0.00    -0.323 N  
HETATM    9  C   UNL     1      -9.140  15.121  66.418  1.00  0.00    -0.296 C  
HETATM   10  N   UNL     1     -11.945  13.731  64.479  1.00  0.00    -0.407 NA 
HETATM   11  C   UNL     1      -9.394  16.591  66.142  1.00  0.00    -0.339 C  
HETATM   12  C   UNL     1     -11.160  14.565  65.076  1.00  0.00    -0.387 C  
HETATM   13  C   UNL     1     -10.889  16.856  66.166  1.00  0.00     0.009 C  
HETATM   14  H   UNL     1     -11.707  16.160  63.119  1.00  0.00     0.000 HD 
ENDROOT
BRANCH   3  15
HETATM   15  C   UNL     1     -10.028  10.462  65.054  1.00  0.00    -0.399 C  
BRANCH  15  16
HETATM   16  C   UNL     1     -10.604   9.592  66.207  1.00  0.00     0.019 C  
BRANCH  16  17
HETATM   17  N   UNL     1      -9.631   9.173  67.230  1.00  0.00    -0.147 NA 
HETATM   18  C   UNL     1     -10.930   9.691  69.289  1.00  0.00    -0.194 C  
HETATM   19  C   UNL     1     -10.763   7.298  68.580  1.00  0.00    -0.172 C  
HETATM   20  C   UNL     1      -9.675   9.961  68.464  1.00  0.00    -0.154 C  
HETATM   21  C   UNL     1     -10.924   8.238  69.785  1.00  0.00    -0.132 C  
HETATM   22  C   UNL     1      -9.699   7.731  67.550  1.00  0.00    -0.158 C  
BRANCH  21  23
HETATM   23  C   UNL     1      -9.920   8.118  70.905  1.00  0.00    -0.187 A  
HETATM   24  N   UNL     1      -9.518   9.169  71.631  1.00  0.00    -0.316 NA 
HETATM   25  O   UNL     1      -8.906   8.638  72.759  1.00  0.00    -0.374 OA 
HETATM   26  C   UNL     1      -8.917   7.279  72.689  1.00  0.00    -0.131 A  
HETATM   27  C   UNL     1      -9.478   6.893  71.484  1.00  0.00    -0.155 A  
HETATM   28  C   UNL     1      -9.582   5.520  71.189  1.00  0.00    -0.207 A  
HETATM   29  C   UNL     1      -9.130   4.600  72.142  1.00  0.00    -0.151 A  
HETATM   30  C   UNL     1      -8.609   5.039  73.359  1.00  0.00    -0.109 A  
HETATM   31  C   UNL     1      -8.480   6.394  73.669  1.00  0.00    -0.127 A  
HETATM   32  F   UNL     1      -8.230   4.127  74.264  1.00  0.00    -0.087 F  
ENDBRANCH  21  23
ENDBRANCH  16  17
ENDBRANCH  15  16
ENDBRANCH   3  15
TORSDOF 4
ENDMDL
MODEL       90
REMARK 921   NORMALIZED FREE ENERGY PREDICTED BY IDOCK:   -6.23 KCAL/MOL
REMARK 922        TOTAL FREE ENERGY PREDICTED BY IDOCK:   -7.96 KCAL/MOL
REMARK 923 INTER-LIGAND FREE ENERGY PREDICTED BY IDOCK:   -7.47 KCAL/MOL
REMARK 924 INTRA-LIGAND FREE ENERGY PREDICTED BY IDOCK:   -0.49 KCAL/MOL
REMARK 927      BINDING AFFINITY PREDICTED BY RF-SCORE:    0.00 PKD
ROOT
HETATM    1  C   UNL     1     -11.790  15.837  69.866  1.00  0.00    -0.355 C  
HETATM    2  C   UNL     1     -11.399  15.617  68.429  1.00  0.00    -0.364 C  
HETATM    3  C   UNL     1     -10.641  16.450  67.687  1.00  0.00    -0.313 C  
HETATM    4  C   UNL     1     -10.339  16.018  66.296  1.00  0.00    -0.321 C  
HETATM    5  O   UNL     1     -11.566  11.643  66.738  1.00  0.00    -0.503 OA 
HETATM    6  C   UNL     1     -12.284  12.767  66.237  1.00  0.00    -0.219 C  
HETATM    7  O   UNL     1      -9.666  16.738  65.558  1.00  0.00    -0.537 OA 
HETATM    8  N   UNL     1     -10.854  14.803  65.892  1.00  0.00    -0.319 N  
HETATM    9  C   UNL     1     -10.663  14.458  64.487  1.00  0.00    -0.214 C  
HETATM   10  N   UNL     1     -11.935  14.453  67.942  1.00  0.00    -0.343 NA 
HETATM   11  C   UNL     1     -11.012  13.026  64.126  1.00  0.00    -0.438 C  
HETATM   12  C   UNL     1     -11.682  14.096  66.727  1.00  0.00    -0.410 C  
HETATM   13  C   UNL     1     -12.363  12.672  64.722  1.00  0.00    -0.556 C  
HETATM   14  H   UNL     1     -11.517  11.702  67.686  1.00  0.00     0.000 HD 
ENDROOT
BRANCH   3  15
HETATM   15  C   UNL     1      -9.973  17.740  68.106  1.00  0.00    -0.342 C  
BRANCH  15  16
HETATM   16  C   UNL     1      -8.427  17.653  68.245  1.00  0.00    -0.271 C  
BRANCH  16  17
HETATM   17  N   UNL     1      -7.936  16.780  69.324  1.00  0.00    -0.119 NA 
HETATM   18  C   UNL     1      -7.293  14.778  67.992  1.00  0.00    -0.140 C  
HETATM   19  C   UNL     1      -5.467  16.288  68.792  1.00  0.00    -0.109 C  
HETATM   20  C   UNL     1      -8.172  15.352  69.100  1.00  0.00    -0.243 C  
HETATM   21  C   UNL     1      -5.818  14.841  68.412  1.00  0.00    -0.104 C  
HETATM   22  C   UNL     1      -6.515  17.008  69.665  1.00  0.00    -0.175 C  
BRANCH  21  23
HETATM   23  C   UNL     1      -5.566  13.767  69.441  1.00  0.00    -0.087 A  
HETATM   24  N   UNL     1      -5.501  14.026  70.754  1.00  0.00    -0.141 NA 
HETATM   25  O   UNL     1      -5.625  12.798  71.388  1.00  0.00    -0.367 OA 
HETATM   26  C   UNL     1      -5.733  11.811  70.458  1.00  0.00    -0.150 A  
HETATM   27  C   UNL     1      -5.615  12.364  69.196  1.00  0.00    -0.071 A  
HETATM   28  C   UNL     1      -5.684  11.520  68.071  1.00  0.00    -0.043 A  
HETATM   29  C   UNL     1      -5.892  10.151  68.281  1.00  0.00    -0.041 A  
HETATM   30  C   UNL     1      -6.043   9.647  69.572  1.00  0.00    -0.040 A  
HETATM   31  C   UNL     1      -5.962  10.460  70.703  1.00  0.00    -0.105 A  
HETATM   32  F   UNL     1      -6.286   8.339  69.729  1.00  0.00    -0.031 F  
ENDBRANCH  21  23
ENDBRANCH  16  17
ENDBRANCH  15  16
ENDBRANCH   3  15
TORSDOF 4
ENDMDL
MODEL       91
REMARK 921   NORMALIZED FREE ENERGY PREDICTED BY IDOCK:   -6.22 KCAL/MOL
REMARK 922        TOTAL FREE ENERGY PREDICTED BY IDOCK:   -7.94 KCAL/MOL
REMARK 923 INTER-LIGAND FREE ENERGY PREDICTED BY IDOCK:   -7.31 KCAL/MOL
REMARK 924 INTRA-LIGAND FREE ENERGY PREDICTED BY IDOCK:   -0.63 KCAL/MOL
REMARK 927      BINDING AFFINITY PREDICTED BY RF-SCORE:    0.00 PKD
ROOT
HETATM    1  C   UNL     1     -12.039  15.326  69.794  1.00  0.00    -0.357 C  
HETATM    2  C   UNL     1     -11.074  15.684  68.695  1.00  0.00    -0.317 C  
HETATM    3  C   UNL     1     -11.073  15.160  67.452  1.00  0.00    -0.325 C  
HETATM    4  C   UNL     1     -10.053  15.688  66.506  1.00  0.00    -0.282 C  
HETATM    5  O   UNL     1      -8.878  19.401  68.887  1.00  0.00    -0.364 OA 
HETATM    6  C   UNL     1      -8.279  18.110  68.817  1.00  0.00    -0.225 C  
HETATM    7  O   UNL     1      -9.986  15.243  65.360  1.00  0.00    -0.347 OA 
HETATM    8  N   UNL     1      -9.206  16.669  66.980  1.00  0.00    -0.214 N  
HETATM    9  C   UNL     1      -8.129  17.078  66.085  1.00  0.00    -0.257 C  
HETATM   10  N   UNL     1     -10.159  16.611  69.122  1.00  0.00    -0.283 NA 
HETATM   11  C   UNL     1      -7.371  18.318  66.520  1.00  0.00    -0.264 C  
HETATM   12  C   UNL     1      -9.266  17.049  68.298  1.00  0.00    -0.255 C  
HETATM   13  C   UNL     1      -7.007  18.195  67.989  1.00  0.00    -0.217 C  
HETATM   14  H   UNL     1      -9.673  19.348  69.405  1.00  0.00     0.000 HD 
ENDROOT
BRANCH   3  15
HETATM   15  C   UNL     1     -12.034  14.159  66.851  1.00  0.00    -0.479 C  
BRANCH  15  16
HETATM   16  C   UNL     1     -11.569  12.678  66.946  1.00  0.00    -0.373 C  
BRANCH  16  17
HETATM   17  N   UNL     1     -10.637  12.377  68.046  1.00  0.00    -0.214 NA 
HETATM   18  C   UNL     1     -11.865  10.512  69.146  1.00  0.00    -0.218 C  
HETATM   19  C   UNL     1      -9.894   9.936  67.718  1.00  0.00    -0.184 C  
HETATM   20  C   UNL     1     -11.283  11.917  69.277  1.00  0.00    -0.242 C  
HETATM   21  C   UNL     1     -10.733   9.498  68.929  1.00  0.00    -0.220 C  
HETATM   22  C   UNL     1      -9.559  11.440  67.663  1.00  0.00    -0.169 C  
BRANCH  21  23
HETATM   23  C   UNL     1     -10.014   9.294  70.239  1.00  0.00    -0.219 A  
HETATM   24  N   UNL     1     -10.617   9.441  71.425  1.00  0.00    -0.340 NA 
HETATM   25  O   UNL     1      -9.783   8.834  72.353  1.00  0.00    -0.283 OA 
HETATM   26  C   UNL     1      -8.674   8.355  71.727  1.00  0.00    -0.180 A  
HETATM   27  C   UNL     1      -8.728   8.695  70.388  1.00  0.00    -0.165 A  
HETATM   28  C   UNL     1      -7.671   8.310  69.541  1.00  0.00    -0.101 A  
HETATM   29  C   UNL     1      -6.614   7.576  70.093  1.00  0.00    -0.042 A  
HETATM   30  C   UNL     1      -6.624   7.223  71.442  1.00  0.00    -0.050 A  
HETATM   31  C   UNL     1      -7.652   7.607  72.304  1.00  0.00    -0.092 A  
HETATM   32  F   UNL     1      -5.617   6.481  71.921  1.00  0.00    -0.032 F  
ENDBRANCH  21  23
ENDBRANCH  16  17
ENDBRANCH  15  16
ENDBRANCH   3  15
TORSDOF 4
ENDMDL
MODEL       92
REMARK 921   NORMALIZED FREE ENERGY PREDICTED BY IDOCK:   -6.21 KCAL/MOL
REMARK 922        TOTAL FREE ENERGY PREDICTED BY IDOCK:   -7.93 KCAL/MOL
REMARK 923 INTER-LIGAND FREE ENERGY PREDICTED BY IDOCK:   -7.29 KCAL/MOL
REMARK 924 INTRA-LIGAND FREE ENERGY PREDICTED BY IDOCK:   -0.64 KCAL/MOL
REMARK 927      BINDING AFFINITY PREDICTED BY RF-SCORE:    0.00 PKD
ROOT
HETATM    1  C   UNL     1     -11.232   6.328  67.293  1.00  0.00    -0.254 C  
HETATM    2  C   UNL     1     -10.706   6.905  68.580  1.00  0.00    -0.216 C  
HETATM    3  C   UNL     1      -9.839   7.933  68.682  1.00  0.00    -0.177 C  
HETATM    4  C   UNL     1      -9.482   8.372  70.057  1.00  0.00    -0.164 C  
HETATM    5  O   UNL     1     -12.840   6.217  72.275  1.00  0.00    -0.525 OA 
HETATM    6  C   UNL     1     -11.486   5.841  72.041  1.00  0.00    -0.197 C  
HETATM    7  O   UNL     1      -8.683   9.294  70.223  1.00  0.00    -0.178 OA 
HETATM    8  N   UNL     1     -10.074   7.696  71.105  1.00  0.00    -0.185 N  
HETATM    9  C   UNL     1      -9.611   8.049  72.442  1.00  0.00    -0.232 C  
HETATM   10  N   UNL     1     -11.207   6.233  69.665  1.00  0.00    -0.413 NA 
HETATM   11  C   UNL     1     -10.442   7.481  73.578  1.00  0.00    -0.362 C  
HETATM   12  C   UNL     1     -10.876   6.610  70.855  1.00  0.00    -0.252 C  
HETATM   13  C   UNL     1     -10.693   6.005  73.327  1.00  0.00    -0.284 C  
HETATM   14  H   UNL     1     -13.336   6.115  71.471  1.00  0.00     0.000 HD 
ENDROOT
BRANCH   3  15
HETATM   15  C   UNL     1      -9.237   8.770  67.575  1.00  0.00    -0.154 C  
BRANCH  15  16
HETATM   16  C   UNL     1     -10.232   9.749  66.891  1.00  0.00    -0.245 C  
BRANCH  16  17
HETATM   17  N   UNL     1      -9.713  11.103  66.636  1.00  0.00    -0.192 NA 
HETATM   18  C   UNL     1     -11.609  12.457  67.513  1.00  0.00    -0.431 C  
HETATM   19  C   UNL     1      -9.556  12.262  68.927  1.00  0.00     0.165 C  
HETATM   20  C   UNL     1     -10.743  12.093  66.311  1.00  0.00    -0.261 C  
HETATM   21  C   UNL     1     -10.754  13.159  68.578  1.00  0.00    -0.277 C  
HETATM   22  C   UNL     1      -8.847  11.615  67.720  1.00  0.00    -0.159 C  
BRANCH  21  23
HETATM   23  C   UNL     1     -10.463  14.563  68.111  1.00  0.00    -0.239 A  
HETATM   24  N   UNL     1     -11.421  15.396  67.685  1.00  0.00    -0.298 NA 
HETATM   25  O   UNL     1     -10.853  16.663  67.694  1.00  0.00    -0.324 OA 
HETATM   26  C   UNL     1      -9.555  16.580  68.092  1.00  0.00    -0.226 A  
HETATM   27  C   UNL     1      -9.227  15.250  68.290  1.00  0.00    -0.189 A  
HETATM   28  C   UNL     1      -7.920  14.923  68.697  1.00  0.00    -0.144 A  
HETATM   29  C   UNL     1      -7.009  15.965  68.905  1.00  0.00    -0.143 A  
HETATM   30  C   UNL     1      -7.399  17.292  68.730  1.00  0.00    -0.250 A  
HETATM   31  C   UNL     1      -8.683  17.642  68.312  1.00  0.00    -0.276 A  
HETATM   32  F   UNL     1      -6.512  18.264  68.984  1.00  0.00    -0.210 F  
ENDBRANCH  21  23
ENDBRANCH  16  17
ENDBRANCH  15  16
ENDBRANCH   3  15
TORSDOF 4
ENDMDL
MODEL       93
REMARK 921   NORMALIZED FREE ENERGY PREDICTED BY IDOCK:   -6.19 KCAL/MOL
REMARK 922        TOTAL FREE ENERGY PREDICTED BY IDOCK:   -7.92 KCAL/MOL
REMARK 923 INTER-LIGAND FREE ENERGY PREDICTED BY IDOCK:   -7.23 KCAL/MOL
REMARK 924 INTRA-LIGAND FREE ENERGY PREDICTED BY IDOCK:   -0.68 KCAL/MOL
REMARK 927      BINDING AFFINITY PREDICTED BY RF-SCORE:    0.00 PKD
ROOT
HETATM    1  C   UNL     1     -10.957  12.070  64.864  1.00  0.00    -0.356 C  
HETATM    2  C   UNL     1     -11.122  11.750  66.326  1.00  0.00    -0.311 C  
HETATM    3  C   UNL     1     -11.605  12.592  67.263  1.00  0.00    -0.434 C  
HETATM    4  C   UNL     1     -11.722  12.056  68.645  1.00  0.00    -0.326 C  
HETATM    5  O   UNL     1     -11.262   7.631  67.625  1.00  0.00    -0.480 OA 
HETATM    6  C   UNL     1     -10.307   8.588  68.073  1.00  0.00    -0.217 C  
HETATM    7  O   UNL     1     -12.141  12.776  69.552  1.00  0.00    -0.280 OA 
HETATM    8  N   UNL     1     -11.333  10.747  68.845  1.00  0.00    -0.263 N  
HETATM    9  C   UNL     1     -11.327  10.281  70.228  1.00  0.00    -0.323 C  
HETATM   10  N   UNL     1     -10.690  10.479  66.607  1.00  0.00    -0.196 NA 
HETATM   11  C   UNL     1     -11.140   8.785  70.399  1.00  0.00    -0.261 C  
HETATM   12  C   UNL     1     -10.779  10.030  67.815  1.00  0.00    -0.280 C  
HETATM   13  C   UNL     1      -9.982   8.321  69.534  1.00  0.00    -0.187 C  
HETATM   14  H   UNL     1     -11.466   7.797  66.711  1.00  0.00     0.000 HD 
ENDROOT
BRANCH   3  15
HETATM   15  C   UNL     1     -12.135  13.997  67.083  1.00  0.00    -0.436 C  
BRANCH  15  16
HETATM   16  C   UNL     1     -11.103  15.009  66.509  1.00  0.00    -0.329 C  
BRANCH  16  17
HETATM   17  N   UNL     1     -10.315  15.746  67.510  1.00  0.00    -0.274 NA 
HETATM   18  C   UNL     1      -8.279  14.317  67.586  1.00  0.00    -0.193 C  
HETATM   19  C   UNL     1      -8.148  16.477  66.332  1.00  0.00    -0.362 C  
HETATM   20  C   UNL     1      -9.463  14.901  68.350  1.00  0.00    -0.209 C  
HETATM   21  C   UNL     1      -7.340  15.446  67.137  1.00  0.00    -0.203 C  
HETATM   22  C   UNL     1      -9.518  16.850  66.935  1.00  0.00    -0.251 C  
BRANCH  21  23
HETATM   23  C   UNL     1      -6.576  15.942  68.339  1.00  0.00    -0.116 A  
HETATM   24  N   UNL     1      -6.456  17.243  68.633  1.00  0.00    -0.170 NA 
HETATM   25  O   UNL     1      -6.025  17.294  69.952  1.00  0.00    -0.241 OA 
HETATM   26  C   UNL     1      -5.860  16.031  70.430  1.00  0.00    -0.061 A  
HETATM   27  C   UNL     1      -6.116  15.127  69.415  1.00  0.00    -0.112 A  
HETATM   28  C   UNL     1      -5.994  13.750  69.680  1.00  0.00    -0.113 A  
HETATM   29  C   UNL     1      -5.638  13.352  70.974  1.00  0.00    -0.202 A  
HETATM   30  C   UNL     1      -5.428  14.302  71.974  1.00  0.00    -0.171 A  
HETATM   31  C   UNL     1      -5.527  15.673  71.732  1.00  0.00     0.307 A  
HETATM   32  F   UNL     1      -5.133  13.881  73.211  1.00  0.00    -0.186 F  
ENDBRANCH  21  23
ENDBRANCH  16  17
ENDBRANCH  15  16
ENDBRANCH   3  15
TORSDOF 4
ENDMDL
MODEL       94
REMARK 921   NORMALIZED FREE ENERGY PREDICTED BY IDOCK:   -6.16 KCAL/MOL
REMARK 922        TOTAL FREE ENERGY PREDICTED BY IDOCK:   -7.88 KCAL/MOL
REMARK 923 INTER-LIGAND FREE ENERGY PREDICTED BY IDOCK:   -7.28 KCAL/MOL
REMARK 924 INTRA-LIGAND FREE ENERGY PREDICTED BY IDOCK:   -0.59 KCAL/MOL
REMARK 927      BINDING AFFINITY PREDICTED BY RF-SCORE:    0.00 PKD
ROOT
HETATM    1  C   UNL     1     -12.103  11.454  70.597  1.00  0.00    -0.469 C  
HETATM    2  C   UNL     1     -11.323  10.168  70.511  1.00  0.00    -0.338 C  
HETATM    3  C   UNL     1     -10.427   9.858  69.551  1.00  0.00    -0.261 C  
HETATM    4  C   UNL     1      -9.738   8.546  69.681  1.00  0.00    -0.179 C  
HETATM    5  O   UNL     1     -10.853   7.698  74.025  1.00  0.00    -0.408 OA 
HETATM    6  C   UNL     1     -11.453   7.266  72.807  1.00  0.00    -0.230 C  
HETATM    7  O   UNL     1      -8.920   8.193  68.831  1.00  0.00    -0.140 OA 
HETATM    8  N   UNL     1     -10.071   7.768  70.771  1.00  0.00    -0.192 N  
HETATM    9  C   UNL     1      -9.487   6.431  70.809  1.00  0.00    -0.169 C  
HETATM   10  N   UNL     1     -11.656   9.317  71.533  1.00  0.00    -0.356 NA 
HETATM   11  C   UNL     1      -9.662   5.694  72.124  1.00  0.00    -0.178 C  
HETATM   12  C   UNL     1     -11.065   8.173  71.626  1.00  0.00    -0.255 C  
HETATM   13  C   UNL     1     -11.109   5.804  72.573  1.00  0.00    -0.327 C  
HETATM   14  H   UNL     1     -11.067   8.612  74.172  1.00  0.00     0.000 HD 
ENDROOT
BRANCH   3  15
HETATM   15  C   UNL     1      -9.955  10.709  68.394  1.00  0.00    -0.176 C  
BRANCH  15  16
HETATM   16  C   UNL     1      -8.578  11.396  68.615  1.00  0.00    -0.126 C  
BRANCH  16  17
HETATM   17  N   UNL     1      -8.241  12.462  67.657  1.00  0.00    -0.157 NA 
HETATM   18  C   UNL     1      -9.235  14.418  68.833  1.00  0.00    -0.084 C  
HETATM   19  C   UNL     1      -6.752  14.132  68.927  1.00  0.00    -0.103 C  
HETATM   20  C   UNL     1      -9.228  13.542  67.584  1.00  0.00    -0.214 C  
HETATM   21  C   UNL     1      -7.895  15.159  68.956  1.00  0.00    -0.181 C  
HETATM   22  C   UNL     1      -6.890  13.029  67.859  1.00  0.00    -0.130 C  
BRANCH  21  23
HETATM   23  C   UNL     1      -7.864  16.269  67.935  1.00  0.00    -0.145 A  
HETATM   24  N   UNL     1      -7.187  16.172  66.783  1.00  0.00    -0.197 NA 
HETATM   25  O   UNL     1      -7.675  17.187  65.971  1.00  0.00    -0.401 OA 
HETATM   26  C   UNL     1      -8.615  17.902  66.647  1.00  0.00    -0.262 A  
HETATM   27  C   UNL     1      -8.715  17.412  67.937  1.00  0.00    -0.237 A  
HETATM   28  C   UNL     1      -9.625  18.014  68.827  1.00  0.00    -0.309 A  
HETATM   29  C   UNL     1     -10.409  19.075  68.358  1.00  0.00    -0.382 A  
HETATM   30  C   UNL     1     -10.298  19.507  67.036  1.00  0.00    -0.453 A  
HETATM   31  C   UNL     1      -9.393  18.938  66.140  1.00  0.00    -0.201 A  
HETATM   32  F   UNL     1     -11.098  20.494  66.613  1.00  0.00    -0.022 F  
ENDBRANCH  21  23
ENDBRANCH  16  17
ENDBRANCH  15  16
ENDBRANCH   3  15
TORSDOF 4
ENDMDL
MODEL       95
REMARK 921   NORMALIZED FREE ENERGY PREDICTED BY IDOCK:   -6.13 KCAL/MOL
REMARK 922        TOTAL FREE ENERGY PREDICTED BY IDOCK:   -7.83 KCAL/MOL
REMARK 923 INTER-LIGAND FREE ENERGY PREDICTED BY IDOCK:   -7.17 KCAL/MOL
REMARK 924 INTRA-LIGAND FREE ENERGY PREDICTED BY IDOCK:   -0.67 KCAL/MOL
REMARK 927      BINDING AFFINITY PREDICTED BY RF-SCORE:    0.00 PKD
ROOT
HETATM    1  C   UNL     1      -7.128  13.822  68.702  1.00  0.00    -0.104 C  
HETATM    2  C   UNL     1      -8.136  14.688  67.993  1.00  0.00    -0.135 C  
HETATM    3  C   UNL     1      -9.260  14.250  67.390  1.00  0.00    -0.200 C  
HETATM    4  C   UNL     1     -10.139  15.285  66.784  1.00  0.00    -0.258 C  
HETATM    5  O   UNL     1      -8.295  18.926  68.827  1.00  0.00    -0.347 OA 
HETATM    6  C   UNL     1      -8.064  18.363  67.539  1.00  0.00    -0.247 C  
HETATM    7  O   UNL     1     -11.173  14.952  66.203  1.00  0.00    -0.335 OA 
HETATM    8  N   UNL     1      -9.732  16.598  66.898  1.00  0.00    -0.245 N  
HETATM    9  C   UNL     1     -10.535  17.585  66.183  1.00  0.00    -0.288 C  
HETATM   10  N   UNL     1      -7.757  16.006  68.013  1.00  0.00    -0.130 NA 
HETATM   11  C   UNL     1     -10.222  19.031  66.521  1.00  0.00    -0.487 C  
HETATM   12  C   UNL     1      -8.519  16.894  67.467  1.00  0.00    -0.194 C  
HETATM   13  C   UNL     1      -8.719  19.242  66.486  1.00  0.00    -0.362 C  
HETATM   14  H   UNL     1      -7.885  18.377  69.486  1.00  0.00     0.000 HD 
ENDROOT
BRANCH   3  15
HETATM   15  C   UNL     1      -9.802  12.839  67.320  1.00  0.00    -0.207 C  
BRANCH  15  16
HETATM   16  C   UNL     1     -10.716  12.438  68.511  1.00  0.00    -0.238 C  
BRANCH  16  17
HETATM   17  N   UNL     1     -11.208  11.050  68.492  1.00  0.00    -0.244 NA 
HETATM   18  C   UNL     1      -9.415   9.946  69.819  1.00  0.00    -0.254 C  
HETATM   19  C   UNL     1     -11.603  10.387  70.947  1.00  0.00    -0.428 C  
HETATM   20  C   UNL     1     -10.151  10.035  68.486  1.00  0.00    -0.169 C  
HETATM   21  C   UNL     1     -10.376   9.463  70.914  1.00  0.00    -0.380 C  
HETATM   22  C   UNL     1     -12.182  10.756  69.565  1.00  0.00    -0.221 C  
BRANCH  21  23
HETATM   23  C   UNL     1     -10.619   7.986  70.722  1.00  0.00    -0.214 A  
HETATM   24  N   UNL     1     -11.822   7.486  70.412  1.00  0.00    -0.111 NA 
HETATM   25  O   UNL     1     -11.590   6.192  69.967  1.00  0.00    -0.392 OA 
HETATM   26  C   UNL     1     -10.261   5.913  70.042  1.00  0.00    -0.224 A  
HETATM   27  C   UNL     1      -9.602   6.995  70.598  1.00  0.00    -0.165 A  
HETATM   28  C   UNL     1      -8.208   6.924  70.784  1.00  0.00    -0.122 A  
HETATM   29  C   UNL     1      -7.543   5.762  70.375  1.00  0.00    -0.090 A  
HETATM   30  C   UNL     1      -8.247   4.714  69.783  1.00  0.00    -0.067 A  
HETATM   31  C   UNL     1      -9.630   4.753  69.603  1.00  0.00    -0.253 A  
HETATM   32  F   UNL     1      -7.567   3.638  69.364  1.00  0.00    -0.051 F  
ENDBRANCH  21  23
ENDBRANCH  16  17
ENDBRANCH  15  16
ENDBRANCH   3  15
TORSDOF 4
ENDMDL
MODEL       96
REMARK 921   NORMALIZED FREE ENERGY PREDICTED BY IDOCK:   -6.11 KCAL/MOL
REMARK 922        TOTAL FREE ENERGY PREDICTED BY IDOCK:   -7.81 KCAL/MOL
REMARK 923 INTER-LIGAND FREE ENERGY PREDICTED BY IDOCK:   -7.19 KCAL/MOL
REMARK 924 INTRA-LIGAND FREE ENERGY PREDICTED BY IDOCK:   -0.62 KCAL/MOL
REMARK 927      BINDING AFFINITY PREDICTED BY RF-SCORE:    0.00 PKD
ROOT
HETATM    1  C   UNL     1     -13.301  10.212  71.425  1.00  0.00    -0.413 C  
HETATM    2  C   UNL     1     -12.679  11.486  70.916  1.00  0.00    -0.278 C  
HETATM    3  C   UNL     1     -11.899  11.595  69.821  1.00  0.00    -0.428 C  
HETATM    4  C   UNL     1     -11.423  12.961  69.475  1.00  0.00    -0.225 C  
HETATM    5  O   UNL     1     -14.294  15.304  72.140  1.00  0.00    -0.527 OA 
HETATM    6  C   UNL     1     -12.949  14.887  72.358  1.00  0.00    -0.352 C  
HETATM    7  O   UNL     1     -10.694  13.129  68.496  1.00  0.00    -0.247 OA 
HETATM    8  N   UNL     1     -11.825  13.993  70.297  1.00  0.00    -0.309 N  
HETATM    9  C   UNL     1     -11.240  15.301  70.021  1.00  0.00    -0.287 C  
HETATM   10  N   UNL     1     -12.987  12.546  71.729  1.00  0.00    -0.357 NA 
HETATM   11  C   UNL     1     -11.879  16.457  70.768  1.00  0.00     0.042 C  
HETATM   12  C   UNL     1     -12.553  13.725  71.430  1.00  0.00    -0.348 C  
HETATM   13  C   UNL     1     -12.027  16.089  72.233  1.00  0.00    -0.633 C  
HETATM   14  H   UNL     1     -14.870  14.552  72.218  1.00  0.00     0.000 HD 
ENDROOT
BRANCH   3  15
HETATM   15  C   UNL     1     -11.508  10.519  68.833  1.00  0.00    -0.292 C  
BRANCH  15  16
HETATM   16  C   UNL     1     -10.358   9.589  69.312  1.00  0.00    -0.208 C  
BRANCH  16  17
HETATM   17  N   UNL     1     -10.566   8.151  69.073  1.00  0.00    -0.192 NA 
HETATM   18  C   UNL     1      -9.097   7.832  67.089  1.00  0.00    -0.154 C  
HETATM   19  C   UNL     1      -8.259   7.036  69.306  1.00  0.00    -0.125 C  
HETATM   20  C   UNL     1     -10.509   7.758  67.663  1.00  0.00    -0.239 C  
HETATM   21  C   UNL     1      -8.196   6.805  67.788  1.00  0.00    -0.120 C  
HETATM   22  C   UNL     1      -9.671   7.286  69.873  1.00  0.00    -0.174 C  
BRANCH  21  23
HETATM   23  C   UNL     1      -8.547   5.430  67.276  1.00  0.00    -0.108 A  
HETATM   24  N   UNL     1      -9.074   4.480  68.059  1.00  0.00    -0.117 NA 
HETATM   25  O   UNL     1      -9.588   3.521  67.197  1.00  0.00    -0.207 OA 
HETATM   26  C   UNL     1      -9.341   3.884  65.909  1.00  0.00    -0.165 A  
HETATM   27  C   UNL     1      -8.604   5.054  65.902  1.00  0.00    -0.124 A  
HETATM   28  C   UNL     1      -8.220   5.612  64.668  1.00  0.00    -0.129 A  
HETATM   29  C   UNL     1      -8.624   4.966  63.493  1.00  0.00    -0.128 A  
HETATM   30  C   UNL     1      -9.401   3.809  63.553  1.00  0.00    -0.129 A  
HETATM   31  C   UNL     1      -9.779   3.227  64.763  1.00  0.00    -0.131 A  
HETATM   32  F   UNL     1      -9.805   3.246  62.406  1.00  0.00    -0.092 F  
ENDBRANCH  21  23
ENDBRANCH  16  17
ENDBRANCH  15  16
ENDBRANCH   3  15
TORSDOF 4
ENDMDL
MODEL       97
REMARK 921   NORMALIZED FREE ENERGY PREDICTED BY IDOCK:   -6.11 KCAL/MOL
REMARK 922        TOTAL FREE ENERGY PREDICTED BY IDOCK:   -7.81 KCAL/MOL
REMARK 923 INTER-LIGAND FREE ENERGY PREDICTED BY IDOCK:   -7.07 KCAL/MOL
REMARK 924 INTRA-LIGAND FREE ENERGY PREDICTED BY IDOCK:   -0.74 KCAL/MOL
REMARK 927      BINDING AFFINITY PREDICTED BY RF-SCORE:    0.00 PKD
ROOT
HETATM    1  C   UNL     1      -8.871  14.473  68.332  1.00  0.00    -0.180 C  
HETATM    2  C   UNL     1      -9.319  13.552  67.227  1.00  0.00    -0.233 C  
HETATM    3  C   UNL     1      -8.778  12.351  66.940  1.00  0.00    -0.191 C  
HETATM    4  C   UNL     1      -9.403  11.585  65.828  1.00  0.00    -0.221 C  
HETATM    5  O   UNL     1     -13.265  13.999  65.524  1.00  0.00    -0.710 OA 
HETATM    6  C   UNL     1     -12.051  14.086  64.784  1.00  0.00    -0.437 C  
HETATM    7  O   UNL     1      -8.949  10.488  65.504  1.00  0.00    -0.168 OA 
HETATM    8  N   UNL     1     -10.482  12.168  65.196  1.00  0.00    -0.272 N  
HETATM    9  C   UNL     1     -10.997  11.467  64.024  1.00  0.00    -0.355 C  
HETATM   10  N   UNL     1     -10.352  14.103  66.513  1.00  0.00    -0.279 NA 
HETATM   11  C   UNL     1     -12.323  11.985  63.499  1.00  0.00    -0.661 C  
HETATM   12  C   UNL     1     -10.875  13.438  65.537  1.00  0.00    -0.289 C  
HETATM   13  C   UNL     1     -12.267  13.499  63.399  1.00  0.00    -0.338 C  
HETATM   14  H   UNL     1     -13.131  14.366  66.390  1.00  0.00     0.000 HD 
ENDROOT
BRANCH   3  15
HETATM   15  C   UNL     1      -7.663  11.624  67.659  1.00  0.00    -0.133 C  
BRANCH  15  16
HETATM   16  C   UNL     1      -8.082  10.965  69.003  1.00  0.00    -0.126 C  
BRANCH  16  17
HETATM   17  N   UNL     1      -8.951   9.782  68.884  1.00  0.00    -0.138 NA 
HETATM   18  C   UNL     1      -7.777   8.234  70.440  1.00  0.00    -0.084 C  
HETATM   19  C   UNL     1      -9.881   9.326  71.239  1.00  0.00    -0.318 C  
HETATM   20  C   UNL     1      -8.250   8.502  69.015  1.00  0.00    -0.116 C  
HETATM   21  C   UNL     1      -8.989   8.081  71.371  1.00  0.00    -0.173 C  
HETATM   22  C   UNL     1     -10.115   9.813  69.795  1.00  0.00    -0.239 C  
BRANCH  21  23
HETATM   23  C   UNL     1      -9.623   6.737  71.116  1.00  0.00    -0.173 A  
HETATM   24  N   UNL     1     -10.895   6.602  70.718  1.00  0.00    -0.240 NA 
HETATM   25  O   UNL     1     -11.008   5.302  70.245  1.00  0.00    -0.166 OA 
HETATM   26  C   UNL     1      -9.818   4.657  70.389  1.00  0.00    -0.236 A  
HETATM   27  C   UNL     1      -8.920   5.500  71.019  1.00  0.00    -0.153 A  
HETATM   28  C   UNL     1      -7.618   5.036  71.285  1.00  0.00    -0.090 A  
HETATM   29  C   UNL     1      -7.280   3.740  70.878  1.00  0.00    -0.033 A  
HETATM   30  C   UNL     1      -8.210   2.942  70.210  1.00  0.00    -0.041 A  
HETATM   31  C   UNL     1      -9.511   3.373  69.950  1.00  0.00    -0.236 A  
HETATM   32  F   UNL     1      -7.834   1.724  69.797  1.00  0.00    -0.042 F  
ENDBRANCH  21  23
ENDBRANCH  16  17
ENDBRANCH  15  16
ENDBRANCH   3  15
TORSDOF 4
ENDMDL
MODEL       98
REMARK 921   NORMALIZED FREE ENERGY PREDICTED BY IDOCK:   -6.08 KCAL/MOL
REMARK 922        TOTAL FREE ENERGY PREDICTED BY IDOCK:   -7.77 KCAL/MOL
REMARK 923 INTER-LIGAND FREE ENERGY PREDICTED BY IDOCK:   -7.13 KCAL/MOL
REMARK 924 INTRA-LIGAND FREE ENERGY PREDICTED BY IDOCK:   -0.64 KCAL/MOL
REMARK 927      BINDING AFFINITY PREDICTED BY RF-SCORE:    0.00 PKD
ROOT
HETATM    1  C   UNL     1     -11.639   8.218  70.783  1.00  0.00    -0.250 C  
HETATM    2  C   UNL     1     -11.077   6.821  70.824  1.00  0.00    -0.276 C  
HETATM    3  C   UNL     1     -10.753   6.075  69.748  1.00  0.00    -0.399 C  
HETATM    4  C   UNL     1     -10.172   4.732  70.018  1.00  0.00    -0.181 C  
HETATM    5  O   UNL     1      -9.193   5.367  74.431  1.00  0.00    -0.120 OA 
HETATM    6  C   UNL     1     -10.318   4.758  73.804  1.00  0.00    -0.220 C  
HETATM    7  O   UNL     1      -9.868   3.992  69.082  1.00  0.00    -0.153 OA 
HETATM    8  N   UNL     1     -10.011   4.373  71.340  1.00  0.00    -0.189 N  
HETATM    9  C   UNL     1      -9.568   3.005  71.586  1.00  0.00    -0.151 C  
HETATM   10  N   UNL     1     -10.952   6.376  72.114  1.00  0.00    -0.239 NA 
HETATM   11  C   UNL     1      -9.161   2.712  73.019  1.00  0.00    -0.103 C  
HETATM   12  C   UNL     1     -10.464   5.201  72.337  1.00  0.00    -0.216 C  
HETATM   13  C   UNL     1     -10.221   3.249  73.963  1.00  0.00    -0.209 C  
HETATM   14  H   UNL     1      -9.253   6.310  74.332  1.00  0.00     0.000 HD 
ENDROOT
BRANCH   3  15
HETATM   15  C   UNL     1     -10.817   6.454  68.285  1.00  0.00    -0.384 C  
BRANCH  15  16
HETATM   16  C   UNL     1      -9.774   7.520  67.847  1.00  0.00    -0.146 C  
BRANCH  16  17
HETATM   17  N   UNL     1     -10.280   8.563  66.938  1.00  0.00    -0.290 NA 
HETATM   18  C   UNL     1      -9.453  10.593  68.118  1.00  0.00    -0.158 C  
HETATM   19  C   UNL     1      -8.217   9.838  66.079  1.00  0.00    -0.117 C  
HETATM   20  C   UNL     1     -10.658   9.812  67.603  1.00  0.00    -0.276 C  
HETATM   21  C   UNL     1      -8.590  11.058  66.937  1.00  0.00    -0.143 C  
HETATM   22  C   UNL     1      -9.370   8.850  65.808  1.00  0.00    -0.219 C  
BRANCH  21  23
HETATM   23  C   UNL     1      -9.291  12.205  66.252  1.00  0.00    -0.218 A  
HETATM   24  N   UNL     1     -10.071  12.036  65.177  1.00  0.00    -0.263 NA 
HETATM   25  O   UNL     1     -10.810  13.205  65.058  1.00  0.00    -0.292 OA 
HETATM   26  C   UNL     1     -10.449  14.076  66.039  1.00  0.00    -0.304 A  
HETATM   27  C   UNL     1      -9.421  13.522  66.780  1.00  0.00    -0.272 A  
HETATM   28  C   UNL     1      -8.876  14.258  67.849  1.00  0.00    -0.179 A  
HETATM   29  C   UNL     1      -9.417  15.519  68.130  1.00  0.00    -0.198 A  
HETATM   30  C   UNL     1     -10.480  16.017  67.378  1.00  0.00    -0.308 A  
HETATM   31  C   UNL     1     -11.026  15.314  66.303  1.00  0.00    -0.300 A  
HETATM   32  F   UNL     1     -11.000  17.207  67.707  1.00  0.00    -0.354 F  
ENDBRANCH  21  23
ENDBRANCH  16  17
ENDBRANCH  15  16
ENDBRANCH   3  15
TORSDOF 4
ENDMDL
MODEL       99
REMARK 921   NORMALIZED FREE ENERGY PREDICTED BY IDOCK:   -6.07 KCAL/MOL
REMARK 922        TOTAL FREE ENERGY PREDICTED BY IDOCK:   -7.76 KCAL/MOL
REMARK 923 INTER-LIGAND FREE ENERGY PREDICTED BY IDOCK:   -7.32 KCAL/MOL
REMARK 924 INTRA-LIGAND FREE ENERGY PREDICTED BY IDOCK:   -0.44 KCAL/MOL
REMARK 927      BINDING AFFINITY PREDICTED BY RF-SCORE:    0.00 PKD
ROOT
HETATM    1  C   UNL     1      -7.806  15.334  69.663  1.00  0.00    -0.144 C  
HETATM    2  C   UNL     1      -8.082  16.616  68.923  1.00  0.00    -0.235 C  
HETATM    3  C   UNL     1      -9.245  16.936  68.318  1.00  0.00    -0.241 C  
HETATM    4  C   UNL     1      -9.315  18.277  67.678  1.00  0.00    -0.267 C  
HETATM    5  O   UNL     1      -5.623  20.093  69.652  1.00  0.00    -0.240 OA 
HETATM    6  C   UNL     1      -5.790  19.473  68.381  1.00  0.00    -0.217 C  
HETATM    7  O   UNL     1     -10.342  18.628  67.094  1.00  0.00    -0.360 OA 
HETATM    8  N   UNL     1      -8.192  19.074  67.764  1.00  0.00    -0.271 N  
HETATM    9  C   UNL     1      -8.232  20.326  67.017  1.00  0.00    -0.318 C  
HETATM   10  N   UNL     1      -6.979  17.430  68.914  1.00  0.00    -0.235 NA 
HETATM   11  C   UNL     1      -7.102  21.291  67.324  1.00  0.00    -0.231 C  
HETATM   12  C   UNL     1      -7.046  18.584  68.339  1.00  0.00    -0.272 C  
HETATM   13  C   UNL     1      -5.782  20.542  67.300  1.00  0.00    -0.216 C  
HETATM   14  H   UNL     1      -5.628  19.426  70.328  1.00  0.00     0.000 HD 
ENDROOT
BRANCH   3  15
HETATM   15  C   UNL     1     -10.533  16.146  68.276  1.00  0.00    -0.276 C  
BRANCH  15  16
HETATM   16  C   UNL     1     -10.635  15.137  67.098  1.00  0.00    -0.295 C  
BRANCH  16  17
HETATM   17  N   UNL     1      -9.961  13.845  67.312  1.00  0.00    -0.240 NA 
HETATM   18  C   UNL     1     -11.689  12.684  68.676  1.00  0.00    -0.364 C  
HETATM   19  C   UNL     1     -11.482  12.053  66.265  1.00  0.00    -0.408 C  
HETATM   20  C   UNL     1     -10.260  13.213  68.599  1.00  0.00    -0.170 C  
HETATM   21  C   UNL     1     -11.880  11.548  67.661  1.00  0.00    -0.194 C  
HETATM   22  C   UNL     1     -10.180  12.879  66.214  1.00  0.00    -0.278 C  
BRANCH  21  23
HETATM   23  C   UNL     1     -11.183  10.316  68.183  1.00  0.00    -0.229 A  
HETATM   24  N   UNL     1     -11.404   9.827  69.410  1.00  0.00    -0.112 NA 
HETATM   25  O   UNL     1     -10.895   8.535  69.400  1.00  0.00    -0.196 OA 
HETATM   26  C   UNL     1     -10.347   8.269  68.183  1.00  0.00    -0.202 A  
HETATM   27  C   UNL     1     -10.428   9.402  67.393  1.00  0.00    -0.343 A  
HETATM   28  C   UNL     1      -9.907   9.360  66.085  1.00  0.00    -0.356 A  
HETATM   29  C   UNL     1      -9.347   8.160  65.631  1.00  0.00     0.032 A  
HETATM   30  C   UNL     1      -9.325   7.034  66.453  1.00  0.00    -0.138 A  
HETATM   31  C   UNL     1      -9.819   7.054  67.758  1.00  0.00    -0.166 A  
HETATM   32  F   UNL     1      -8.822   5.892  65.967  1.00  0.00    -0.132 F  
ENDBRANCH  21  23
ENDBRANCH  16  17
ENDBRANCH  15  16
ENDBRANCH   3  15
TORSDOF 4
ENDMDL
MODEL      100
REMARK 921   NORMALIZED FREE ENERGY PREDICTED BY IDOCK:   -6.06 KCAL/MOL
REMARK 922        TOTAL FREE ENERGY PREDICTED BY IDOCK:   -7.75 KCAL/MOL
REMARK 923 INTER-LIGAND FREE ENERGY PREDICTED BY IDOCK:   -7.14 KCAL/MOL
REMARK 924 INTRA-LIGAND FREE ENERGY PREDICTED BY IDOCK:   -0.61 KCAL/MOL
REMARK 927      BINDING AFFINITY PREDICTED BY RF-SCORE:    0.00 PKD
ROOT
HETATM    1  C   UNL     1     -11.371  14.832  64.222  1.00  0.00    -0.097 C  
HETATM    2  C   UNL     1     -11.089  15.461  65.562  1.00  0.00    -0.298 C  
HETATM    3  C   UNL     1     -11.206  14.847  66.756  1.00  0.00    -0.338 C  
HETATM    4  C   UNL     1     -10.836  15.644  67.956  1.00  0.00    -0.308 C  
HETATM    5  O   UNL     1      -8.622  19.002  65.798  1.00  0.00    -0.410 OA 
HETATM    6  C   UNL     1      -9.966  18.920  66.263  1.00  0.00    -0.388 C  
HETATM    7  O   UNL     1     -10.935  15.149  69.079  1.00  0.00    -0.223 OA 
HETATM    8  N   UNL     1     -10.400  16.935  67.741  1.00  0.00    -0.315 N  
HETATM    9  C   UNL     1     -10.171  17.744  68.933  1.00  0.00    -0.345 C  
HETATM   10  N   UNL     1     -10.712  16.772  65.423  1.00  0.00    -0.531 NA 
HETATM   11  C   UNL     1      -9.461  19.062  68.685  1.00  0.00    -0.457 C  
HETATM   12  C   UNL     1     -10.411  17.461  66.473  1.00  0.00    -0.312 C  
HETATM   13  C   UNL     1     -10.114  19.772  67.513  1.00  0.00    -0.554 C  
HETATM   14  H   UNL     1      -8.529  18.469  65.017  1.00  0.00     0.000 HD 
ENDROOT
BRANCH   3  15
HETATM   15  C   UNL     1     -11.584  13.411  67.043  1.00  0.00    -0.396 C  
BRANCH  15  16
HETATM   16  C   UNL     1     -10.417  12.394  66.902  1.00  0.00    -0.224 C  
BRANCH  16  17
HETATM   17  N   UNL     1      -9.737  12.031  68.157  1.00  0.00    -0.194 NA 
HETATM   18  C   UNL     1     -10.837   9.848  68.621  1.00  0.00    -0.244 C  
HETATM   19  C   UNL     1      -8.511   9.816  67.704  1.00  0.00    -0.122 C  
HETATM   20  C   UNL     1     -10.567  11.272  69.096  1.00  0.00    -0.187 C  
HETATM   21  C   UNL     1      -9.523   9.055  68.575  1.00  0.00    -0.148 C  
HETATM   22  C   UNL     1      -8.448  11.337  67.949  1.00  0.00    -0.133 C  
BRANCH  21  23
HETATM   23  C   UNL     1      -9.115   8.720  69.989  1.00  0.00    -0.160 A  
HETATM   24  N   UNL     1      -9.977   8.742  71.014  1.00  0.00    -0.213 NA 
HETATM   25  O   UNL     1      -9.358   8.045  72.043  1.00  0.00    -0.149 OA 
HETATM   26  C   UNL     1      -8.123   7.638  71.643  1.00  0.00    -0.102 A  
HETATM   27  C   UNL     1      -7.881   8.115  70.367  1.00  0.00    -0.090 A  
HETATM   28  C   UNL     1      -6.649   7.824  69.751  1.00  0.00    -0.035 A  
HETATM   29  C   UNL     1      -5.725   7.042  70.454  1.00  0.00    -0.024 A  
HETATM   30  C   UNL     1      -6.032   6.552  71.723  1.00  0.00    -0.037 A  
HETATM   31  C   UNL     1      -7.239   6.840  72.361  1.00  0.00    -0.086 A  
HETATM   32  F   UNL     1      -5.140   5.769  72.344  1.00  0.00    -0.015 F  
ENDBRANCH  21  23
ENDBRANCH  16  17
ENDBRANCH  15  16
ENDBRANCH   3  15
TORSDOF 4
ENDMDL
MODEL      101
REMARK 921   NORMALIZED FREE ENERGY PREDICTED BY IDOCK:   -6.02 KCAL/MOL
REMARK 922        TOTAL FREE ENERGY PREDICTED BY IDOCK:   -7.70 KCAL/MOL
REMARK 923 INTER-LIGAND FREE ENERGY PREDICTED BY IDOCK:   -7.03 KCAL/MOL
REMARK 924 INTRA-LIGAND FREE ENERGY PREDICTED BY IDOCK:   -0.68 KCAL/MOL
REMARK 927      BINDING AFFINITY PREDICTED BY RF-SCORE:    0.00 PKD
ROOT
HETATM    1  C   UNL     1      -6.534   9.359  70.647  1.00  0.00    -0.081 C  
HETATM    2  C   UNL     1      -7.876   8.692  70.497  1.00  0.00    -0.096 C  
HETATM    3  C   UNL     1      -8.459   8.360  69.327  1.00  0.00    -0.125 C  
HETATM    4  C   UNL     1      -9.773   7.668  69.409  1.00  0.00    -0.165 C  
HETATM    5  O   UNL     1      -9.598   6.549  73.831  1.00  0.00    -0.165 OA 
HETATM    6  C   UNL     1     -10.215   7.651  73.172  1.00  0.00    -0.342 C  
HETATM    7  O   UNL     1     -10.368   7.350  68.379  1.00  0.00    -0.186 OA 
HETATM    8  N   UNL     1     -10.275   7.423  70.671  1.00  0.00    -0.198 N  
HETATM    9  C   UNL     1     -11.623   6.867  70.731  1.00  0.00    -0.349 C  
HETATM   10  N   UNL     1      -8.462   8.478  71.718  1.00  0.00    -0.167 NA 
HETATM   11  C   UNL     1     -12.052   6.377  72.102  1.00  0.00    -0.316 C  
HETATM   12  C   UNL     1      -9.612   7.894  71.777  1.00  0.00    -0.165 C  
HETATM   13  C   UNL     1     -11.719   7.433  73.140  1.00  0.00     0.166 C  
HETATM   14  H   UNL     1      -8.657   6.684  73.851  1.00  0.00     0.000 HD 
ENDROOT
BRANCH   3  15
HETATM   15  C   UNL     1      -7.914   8.516  67.925  1.00  0.00    -0.108 C  
BRANCH  15  16
HETATM   16  C   UNL     1      -8.544   9.681  67.112  1.00  0.00    -0.132 C  
BRANCH  16  17
HETATM   17  N   UNL     1      -9.380  10.614  67.886  1.00  0.00    -0.147 NA 
HETATM   18  C   UNL     1      -8.986  12.707  66.598  1.00  0.00    -0.164 C  
HETATM   19  C   UNL     1     -11.158  11.515  66.260  1.00  0.00    -0.321 C  
HETATM   20  C   UNL     1      -8.866  11.985  67.937  1.00  0.00    -0.174 C  
HETATM   21  C   UNL     1     -10.466  12.887  66.233  1.00  0.00    -0.282 C  
HETATM   22  C   UNL     1     -10.797  10.623  67.465  1.00  0.00    -0.296 C  
BRANCH  21  23
HETATM   23  C   UNL     1     -11.045  13.978  67.100  1.00  0.00    -0.303 A  
HETATM   24  N   UNL     1     -11.785  13.722  68.186  1.00  0.00    -0.338 NA 
HETATM   25  O   UNL     1     -11.824  14.908  68.906  1.00  0.00    -0.311 OA 
HETATM   26  C   UNL     1     -11.137  15.873  68.236  1.00  0.00    -0.345 A  
HETATM   27  C   UNL     1     -10.689  15.357  67.033  1.00  0.00    -0.321 A  
HETATM   28  C   UNL     1      -9.958  16.188  66.164  1.00  0.00    -0.357 A  
HETATM   29  C   UNL     1      -9.696  17.503  66.567  1.00  0.00    -0.302 A  
HETATM   30  C   UNL     1     -10.136  17.964  67.807  1.00  0.00    -0.348 A  
HETATM   31  C   UNL     1     -10.876  17.166  68.680  1.00  0.00    -0.250 A  
HETATM   32  F   UNL     1      -9.826  19.214  68.176  1.00  0.00    -0.337 F  
ENDBRANCH  21  23
ENDBRANCH  16  17
ENDBRANCH  15  16
ENDBRANCH   3  15
TORSDOF 4
ENDMDL
MODEL      102
REMARK 921   NORMALIZED FREE ENERGY PREDICTED BY IDOCK:   -5.99 KCAL/MOL
REMARK 922        TOTAL FREE ENERGY PREDICTED BY IDOCK:   -7.66 KCAL/MOL
REMARK 923 INTER-LIGAND FREE ENERGY PREDICTED BY IDOCK:   -7.50 KCAL/MOL
REMARK 924 INTRA-LIGAND FREE ENERGY PREDICTED BY IDOCK:   -0.16 KCAL/MOL
REMARK 927      BINDING AFFINITY PREDICTED BY RF-SCORE:    0.00 PKD
ROOT
HETATM    1  C   UNL     1     -12.072  15.105  70.077  1.00  0.00    -0.384 C  
HETATM    2  C   UNL     1     -11.377  15.800  68.935  1.00  0.00    -0.356 C  
HETATM    3  C   UNL     1     -11.334  15.361  67.660  1.00  0.00    -0.292 C  
HETATM    4  C   UNL     1     -10.625  16.226  66.680  1.00  0.00    -0.252 C  
HETATM    5  O   UNL     1     -10.435  20.007  69.231  1.00  0.00    -0.615 OA 
HETATM    6  C   UNL     1      -9.475  18.976  69.019  1.00  0.00    -0.277 C  
HETATM    7  O   UNL     1     -10.534  15.878  65.503  1.00  0.00    -0.359 OA 
HETATM    8  N   UNL     1     -10.083  17.401  67.158  1.00  0.00    -0.298 N  
HETATM    9  C   UNL     1      -9.278  18.170  66.215  1.00  0.00    -0.199 C  
HETATM   10  N   UNL     1     -10.758  16.948  69.357  1.00  0.00    -0.319 NA 
HETATM   11  C   UNL     1      -8.904  19.565  66.680  1.00  0.00    -0.388 C  
HETATM   12  C   UNL     1     -10.129  17.683  68.501  1.00  0.00    -0.375 C  
HETATM   13  C   UNL     1      -8.379  19.496  68.103  1.00  0.00    -0.359 C  
HETATM   14  H   UNL     1     -11.120  19.682  69.803  1.00  0.00     0.000 HD 
ENDROOT
BRANCH   3  15
HETATM   15  C   UNL     1     -11.990  14.136  67.064  1.00  0.00    -0.471 C  
BRANCH  15  16
HETATM   16  C   UNL     1     -11.821  12.838  67.903  1.00  0.00    -0.339 C  
BRANCH  16  17
HETATM   17  N   UNL     1     -10.475  12.242  67.883  1.00  0.00    -0.208 NA 
HETATM   18  C   UNL     1     -11.020   9.934  68.638  1.00  0.00    -0.222 C  
HETATM   19  C   UNL     1     -10.568  10.295  66.205  1.00  0.00    -0.124 C  
HETATM   20  C   UNL     1     -10.250  11.223  68.911  1.00  0.00    -0.180 C  
HETATM   21  C   UNL     1     -10.496   9.276  67.354  1.00  0.00    -0.340 C  
HETATM   22  C   UNL     1     -10.083  11.715  66.558  1.00  0.00    -0.207 C  
BRANCH  21  23
HETATM   23  C   UNL     1      -9.156   8.649  67.648  1.00  0.00    -0.134 A  
HETATM   24  N   UNL     1      -8.672   8.529  68.891  1.00  0.00    -0.131 NA 
HETATM   25  O   UNL     1      -7.636   7.609  68.807  1.00  0.00    -0.097 OA 
HETATM   26  C   UNL     1      -7.485   7.206  67.516  1.00  0.00    -0.101 A  
HETATM   27  C   UNL     1      -8.374   7.903  66.718  1.00  0.00    -0.120 A  
HETATM   28  C   UNL     1      -8.386   7.657  65.332  1.00  0.00    -0.134 A  
HETATM   29  C   UNL     1      -7.507   6.695  64.821  1.00  0.00    -0.095 A  
HETATM   30  C   UNL     1      -6.656   5.990  65.673  1.00  0.00    -0.047 A  
HETATM   31  C   UNL     1      -6.613   6.228  67.047  1.00  0.00    -0.059 A  
HETATM   32  F   UNL     1      -5.861   5.046  65.153  1.00  0.00    -0.015 F  
ENDBRANCH  21  23
ENDBRANCH  16  17
ENDBRANCH  15  16
ENDBRANCH   3  15
TORSDOF 4
ENDMDL
MODEL      103
REMARK 921   NORMALIZED FREE ENERGY PREDICTED BY IDOCK:   -5.98 KCAL/MOL
REMARK 922        TOTAL FREE ENERGY PREDICTED BY IDOCK:   -7.65 KCAL/MOL
REMARK 923 INTER-LIGAND FREE ENERGY PREDICTED BY IDOCK:   -7.31 KCAL/MOL
REMARK 924 INTRA-LIGAND FREE ENERGY PREDICTED BY IDOCK:   -0.35 KCAL/MOL
REMARK 927      BINDING AFFINITY PREDICTED BY RF-SCORE:    0.00 PKD
ROOT
HETATM    1  C   UNL     1     -10.837   9.922  69.799  1.00  0.00    -0.300 C  
HETATM    2  C   UNL     1     -10.259   9.638  68.437  1.00  0.00    -0.188 C  
HETATM    3  C   UNL     1     -10.581  10.285  67.298  1.00  0.00    -0.324 C  
HETATM    4  C   UNL     1      -9.856   9.870  66.068  1.00  0.00    -0.264 C  
HETATM    5  O   UNL     1      -6.502   7.529  68.095  1.00  0.00    -0.046 OA 
HETATM    6  C   UNL     1      -7.731   7.091  67.522  1.00  0.00    -0.111 C  
HETATM    7  O   UNL     1     -10.112  10.408  64.990  1.00  0.00    -0.309 OA 
HETATM    8  N   UNL     1      -8.916   8.868  66.201  1.00  0.00    -0.165 N  
HETATM    9  C   UNL     1      -8.313   8.382  64.964  1.00  0.00    -0.158 C  
HETATM   10  N   UNL     1      -9.360   8.603  68.487  1.00  0.00    -0.138 NA 
HETATM   11  C   UNL     1      -7.116   7.469  65.151  1.00  0.00    -0.063 C  
HETATM   12  C   UNL     1      -8.750   8.238  67.409  1.00  0.00    -0.124 C  
HETATM   13  C   UNL     1      -7.447   6.413  66.192  1.00  0.00    -0.082 C  
HETATM   14  H   UNL     1      -6.679   7.953  68.927  1.00  0.00     0.000 HD 
ENDROOT
BRANCH   3  15
HETATM   15  C   UNL     1     -11.527  11.449  67.112  1.00  0.00    -0.268 C  
BRANCH  15  16
HETATM   16  C   UNL     1     -11.176  12.709  67.953  1.00  0.00    -0.266 C  
BRANCH  16  17
HETATM   17  N   UNL     1     -11.140  13.978  67.207  1.00  0.00    -0.295 NA 
HETATM   18  C   UNL     1     -10.487  15.531  69.039  1.00  0.00    -0.231 C  
HETATM   19  C   UNL     1      -8.730  14.859  67.391  1.00  0.00    -0.208 C  
HETATM   20  C   UNL     1     -11.530  15.152  67.992  1.00  0.00    -0.342 C  
HETATM   21  C   UNL     1      -9.189  15.972  68.347  1.00  0.00    -0.196 C  
HETATM   22  C   UNL     1      -9.847  14.229  66.535  1.00  0.00    -0.288 C  
BRANCH  21  23
HETATM   23  C   UNL     1      -9.398  17.349  67.768  1.00  0.00    -0.255 A  
HETATM   24  N   UNL     1     -10.384  18.160  68.171  1.00  0.00    -0.380 NA 
HETATM   25  O   UNL     1     -10.049  19.424  67.705  1.00  0.00    -0.350 OA 
HETATM   26  C   UNL     1      -8.886  19.359  67.002  1.00  0.00    -0.300 A  
HETATM   27  C   UNL     1      -8.469  18.041  66.937  1.00  0.00    -0.262 A  
HETATM   28  C   UNL     1      -7.285  17.732  66.242  1.00  0.00    -0.331 A  
HETATM   29  C   UNL     1      -6.564  18.782  65.660  1.00  0.00    -0.308 A  
HETATM   30  C   UNL     1      -7.005  20.099  65.787  1.00  0.00    -0.288 A  
HETATM   31  C   UNL     1      -8.184  20.429  66.456  1.00  0.00    -0.194 A  
HETATM   32  F   UNL     1      -6.264  21.080  65.256  1.00  0.00    -0.271 F  
ENDBRANCH  21  23
ENDBRANCH  16  17
ENDBRANCH  15  16
ENDBRANCH   3  15
TORSDOF 4
ENDMDL
MODEL      104
REMARK 921   NORMALIZED FREE ENERGY PREDICTED BY IDOCK:   -5.96 KCAL/MOL
REMARK 922        TOTAL FREE ENERGY PREDICTED BY IDOCK:   -7.63 KCAL/MOL
REMARK 923 INTER-LIGAND FREE ENERGY PREDICTED BY IDOCK:   -7.54 KCAL/MOL
REMARK 924 INTRA-LIGAND FREE ENERGY PREDICTED BY IDOCK:   -0.09 KCAL/MOL
REMARK 927      BINDING AFFINITY PREDICTED BY RF-SCORE:    0.00 PKD
ROOT
HETATM    1  C   UNL     1      -8.664   5.724  67.464  1.00  0.00    -0.107 C  
HETATM    2  C   UNL     1      -9.144   6.502  68.661  1.00  0.00    -0.128 C  
HETATM    3  C   UNL     1     -10.022   7.524  68.631  1.00  0.00    -0.178 C  
HETATM    4  C   UNL     1     -10.391   8.127  69.940  1.00  0.00    -0.214 C  
HETATM    5  O   UNL     1      -8.773   4.803  72.618  1.00  0.00    -0.114 OA 
HETATM    6  C   UNL     1      -8.191   6.038  72.210  1.00  0.00    -0.110 C  
HETATM    7  O   UNL     1     -11.176   9.075  69.983  1.00  0.00    -0.221 OA 
HETATM    8  N   UNL     1      -9.808   7.583  71.066  1.00  0.00    -0.179 N  
HETATM    9  C   UNL     1     -10.076   8.271  72.325  1.00  0.00    -0.300 C  
HETATM   10  N   UNL     1      -8.551   6.053  69.813  1.00  0.00    -0.129 NA 
HETATM   11  C   UNL     1      -9.637   7.522  73.570  1.00  0.00    -0.339 C  
HETATM   12  C   UNL     1      -8.863   6.596  70.943  1.00  0.00    -0.146 C  
HETATM   13  C   UNL     1      -8.220   7.012  73.376  1.00  0.00    -0.126 C  
HETATM   14  H   UNL     1      -8.755   4.194  71.889  1.00  0.00     0.000 HD 
ENDROOT
BRANCH   3  15
HETATM   15  C   UNL     1     -10.762   8.095  67.442  1.00  0.00    -0.247 C  
BRANCH  15  16
HETATM   16  C   UNL     1      -9.851   8.754  66.368  1.00  0.00    -0.282 C  
BRANCH  16  17
HETATM   17  N   UNL     1      -9.430  10.135  66.657  1.00  0.00    -0.165 NA 
HETATM   18  C   UNL     1     -10.528  11.319  64.763  1.00  0.00    -0.384 C  
HETATM   19  C   UNL     1     -11.587  11.489  67.022  1.00  0.00    -0.203 C  
HETATM   20  C   UNL     1      -9.222  10.964  65.467  1.00  0.00    -0.209 C  
HETATM   21  C   UNL     1     -11.389  12.203  65.676  1.00  0.00    -0.395 C  
HETATM   22  C   UNL     1     -10.319  10.835  67.609  1.00  0.00    -0.201 C  
BRANCH  21  23
HETATM   23  C   UNL     1     -10.794  13.590  65.701  1.00  0.00    -0.287 A  
HETATM   24  N   UNL     1     -10.592  14.309  64.590  1.00  0.00    -0.403 NA 
HETATM   25  O   UNL     1     -10.391  15.615  65.017  1.00  0.00    -0.413 OA 
HETATM   26  C   UNL     1     -10.442  15.666  66.376  1.00  0.00    -0.305 A  
HETATM   27  C   UNL     1     -10.613  14.386  66.870  1.00  0.00    -0.278 A  
HETATM   28  C   UNL     1     -10.683  14.195  68.263  1.00  0.00    -0.256 A  
HETATM   29  C   UNL     1     -10.596  15.320  69.092  1.00  0.00    -0.250 A  
HETATM   30  C   UNL     1     -10.464  16.596  68.542  1.00  0.00    -0.319 A  
HETATM   31  C   UNL     1     -10.376  16.809  67.166  1.00  0.00    -0.297 A  
HETATM   32  F   UNL     1     -10.430  17.651  69.367  1.00  0.00    -0.351 F  
ENDBRANCH  21  23
ENDBRANCH  16  17
ENDBRANCH  15  16
ENDBRANCH   3  15
TORSDOF 4
ENDMDL
MODEL      105
REMARK 921   NORMALIZED FREE ENERGY PREDICTED BY IDOCK:   -5.96 KCAL/MOL
REMARK 922        TOTAL FREE ENERGY PREDICTED BY IDOCK:   -7.62 KCAL/MOL
REMARK 923 INTER-LIGAND FREE ENERGY PREDICTED BY IDOCK:   -7.14 KCAL/MOL
REMARK 924 INTRA-LIGAND FREE ENERGY PREDICTED BY IDOCK:   -0.48 KCAL/MOL
REMARK 927      BINDING AFFINITY PREDICTED BY RF-SCORE:    0.00 PKD
ROOT
HETATM    1  C   UNL     1     -11.645  14.335  66.924  1.00  0.00    -0.405 C  
HETATM    2  C   UNL     1     -10.623  15.351  67.363  1.00  0.00    -0.289 C  
HETATM    3  C   UNL     1      -9.478  15.076  68.021  1.00  0.00    -0.193 C  
HETATM    4  C   UNL     1      -8.589  16.231  68.323  1.00  0.00    -0.196 C  
HETATM    5  O   UNL     1     -10.524  19.246  65.495  1.00  0.00    -0.502 OA 
HETATM    6  C   UNL     1     -10.712  19.022  66.889  1.00  0.00    -0.399 C  
HETATM    7  O   UNL     1      -7.536  16.054  68.935  1.00  0.00    -0.161 OA 
HETATM    8  N   UNL     1      -9.010  17.474  67.898  1.00  0.00    -0.246 N  
HETATM    9  C   UNL     1      -8.195  18.608  68.319  1.00  0.00    -0.323 C  
HETATM   10  N   UNL     1     -11.013  16.621  67.028  1.00  0.00    -0.078 NA 
HETATM   11  C   UNL     1      -8.529  19.924  67.640  1.00  0.00    -0.374 C  
HETATM   12  C   UNL     1     -10.243  17.618  67.311  1.00  0.00    -0.343 C  
HETATM   13  C   UNL     1     -10.032  20.136  67.669  1.00  0.00    -0.560 C  
HETATM   14  H   UNL     1     -10.949  18.550  65.007  1.00  0.00     0.000 HD 
ENDROOT
BRANCH   3  15
HETATM   15  C   UNL     1      -8.923  13.729  68.424  1.00  0.00    -0.166 C  
BRANCH  15  16
HETATM   16  C   UNL     1      -8.431  12.851  67.238  1.00  0.00    -0.197 C  
BRANCH  16  17
HETATM   17  N   UNL     1      -8.181  11.436  67.560  1.00  0.00    -0.126 NA 
HETATM   18  C   UNL     1     -10.412  10.476  67.017  1.00  0.00    -0.304 C  
HETATM   19  C   UNL     1      -8.555  10.121  65.380  1.00  0.00    -0.165 C  
HETATM   20  C   UNL     1      -9.347  10.720  68.082  1.00  0.00    -0.155 C  
HETATM   21  C   UNL     1      -9.862   9.534  65.936  1.00  0.00    -0.360 C  
HETATM   22  C   UNL     1      -7.583  10.676  66.441  1.00  0.00    -0.138 C  
BRANCH  21  23
HETATM   23  C   UNL     1      -9.817   8.134  66.497  1.00  0.00    -0.239 A  
HETATM   24  N   UNL     1     -10.859   7.572  67.122  1.00  0.00    -0.300 NA 
HETATM   25  O   UNL     1     -10.587   6.212  67.164  1.00  0.00    -0.228 OA 
HETATM   26  C   UNL     1      -9.375   5.969  66.594  1.00  0.00    -0.144 A  
HETATM   27  C   UNL     1      -8.800   7.173  66.226  1.00  0.00    -0.166 A  
HETATM   28  C   UNL     1      -7.528   7.165  65.623  1.00  0.00    -0.082 A  
HETATM   29  C   UNL     1      -6.906   5.931  65.401  1.00  0.00    -0.055 A  
HETATM   30  C   UNL     1      -7.545   4.742  65.754  1.00  0.00    -0.086 A  
HETATM   31  C   UNL     1      -8.798   4.724  66.368  1.00  0.00    -0.113 A  
HETATM   32  F   UNL     1      -6.938   3.579  65.484  1.00  0.00    -0.052 F  
ENDBRANCH  21  23
ENDBRANCH  16  17
ENDBRANCH  15  16
ENDBRANCH   3  15
TORSDOF 4
ENDMDL
MODEL      106
REMARK 921   NORMALIZED FREE ENERGY PREDICTED BY IDOCK:   -5.95 KCAL/MOL
REMARK 922        TOTAL FREE ENERGY PREDICTED BY IDOCK:   -7.61 KCAL/MOL
REMARK 923 INTER-LIGAND FREE ENERGY PREDICTED BY IDOCK:   -6.91 KCAL/MOL
REMARK 924 INTRA-LIGAND FREE ENERGY PREDICTED BY IDOCK:   -0.70 KCAL/MOL
REMARK 927      BINDING AFFINITY PREDICTED BY RF-SCORE:    0.00 PKD
ROOT
HETATM    1  C   UNL     1     -11.820  12.871  69.761  1.00  0.00    -0.380 C  
HETATM    2  C   UNL     1     -11.145  13.653  68.664  1.00  0.00    -0.272 C  
HETATM    3  C   UNL     1     -11.003  13.246  67.386  1.00  0.00    -0.287 C  
HETATM    4  C   UNL     1     -10.338  14.196  66.454  1.00  0.00    -0.287 C  
HETATM    5  O   UNL     1     -10.625  17.923  69.073  1.00  0.00    -0.393 OA 
HETATM    6  C   UNL     1      -9.562  16.993  68.889  1.00  0.00    -0.248 C  
HETATM    7  O   UNL     1     -10.162  13.882  65.276  1.00  0.00    -0.336 OA 
HETATM    8  N   UNL     1      -9.933  15.407  66.976  1.00  0.00    -0.235 N  
HETATM    9  C   UNL     1      -9.165  16.268  66.084  1.00  0.00    -0.341 C  
HETATM   10  N   UNL     1     -10.658  14.845  69.133  1.00  0.00    -0.241 NA 
HETATM   11  C   UNL     1      -8.947  17.682  66.589  1.00  0.00    -0.283 C  
HETATM   12  C   UNL     1     -10.066  15.654  68.320  1.00  0.00    -0.218 C  
HETATM   13  C   UNL     1      -8.481  17.634  68.033  1.00  0.00    -0.244 C  
HETATM   14  H   UNL     1     -11.301  17.523  69.608  1.00  0.00     0.000 HD 
ENDROOT
BRANCH   3  15
HETATM   15  C   UNL     1     -11.512  11.977  66.739  1.00  0.00    -0.410 C  
BRANCH  15  16
HETATM   16  C   UNL     1     -10.485  10.811  66.707  1.00  0.00    -0.251 C  
BRANCH  16  17
HETATM   17  N   UNL     1     -10.887   9.593  67.431  1.00  0.00    -0.240 NA 
HETATM   18  C   UNL     1      -8.851   8.203  67.088  1.00  0.00    -0.138 C  
HETATM   19  C   UNL     1      -9.174   9.276  69.324  1.00  0.00    -0.152 C  
HETATM   20  C   UNL     1     -10.354   8.351  66.866  1.00  0.00    -0.307 C  
HETATM   21  C   UNL     1      -8.556   8.076  68.589  1.00  0.00    -0.128 C  
HETATM   22  C   UNL     1     -10.603   9.650  68.881  1.00  0.00    -0.217 C  
BRANCH  21  23
HETATM   23  C   UNL     1      -8.961   6.695  69.043  1.00  0.00    -0.130 A  
HETATM   24  N   UNL     1     -10.087   6.461  69.730  1.00  0.00    -0.171 NA 
HETATM   25  O   UNL     1     -10.303   5.092  69.648  1.00  0.00    -0.264 OA 
HETATM   26  C   UNL     1      -9.295   4.511  68.943  1.00  0.00    -0.147 A  
HETATM   27  C   UNL     1      -8.365   5.477  68.603  1.00  0.00    -0.101 A  
HETATM   28  C   UNL     1      -7.221   5.098  67.875  1.00  0.00    -0.067 A  
HETATM   29  C   UNL     1      -7.085   3.754  67.505  1.00  0.00    -0.059 A  
HETATM   30  C   UNL     1      -8.071   2.825  67.838  1.00  0.00    -0.069 A  
HETATM   31  C   UNL     1      -9.205   3.173  68.573  1.00  0.00    -0.230 A  
HETATM   32  F   UNL     1      -7.927   1.558  67.426  1.00  0.00    -0.058 F  
ENDBRANCH  21  23
ENDBRANCH  16  17
ENDBRANCH  15  16
ENDBRANCH   3  15
TORSDOF 4
ENDMDL
MODEL      107
REMARK 921   NORMALIZED FREE ENERGY PREDICTED BY IDOCK:   -5.94 KCAL/MOL
REMARK 922        TOTAL FREE ENERGY PREDICTED BY IDOCK:   -7.61 KCAL/MOL
REMARK 923 INTER-LIGAND FREE ENERGY PREDICTED BY IDOCK:   -6.97 KCAL/MOL
REMARK 924 INTRA-LIGAND FREE ENERGY PREDICTED BY IDOCK:   -0.64 KCAL/MOL
REMARK 927      BINDING AFFINITY PREDICTED BY RF-SCORE:    0.00 PKD
ROOT
HETATM    1  C   UNL     1     -12.836  14.507  69.884  1.00  0.00     0.015 C  
HETATM    2  C   UNL     1     -11.685  14.749  68.944  1.00  0.00    -0.309 C  
HETATM    3  C   UNL     1     -11.140  13.830  68.120  1.00  0.00    -0.282 C  
HETATM    4  C   UNL     1     -10.033  14.295  67.242  1.00  0.00    -0.252 C  
HETATM    5  O   UNL     1     -10.688  18.783  67.757  1.00  0.00    -0.407 OA 
HETATM    6  C   UNL     1      -9.795  17.889  68.416  1.00  0.00    -0.355 C  
HETATM    7  O   UNL     1      -9.480  13.504  66.477  1.00  0.00    -0.268 OA 
HETATM    8  N   UNL     1      -9.667  15.621  67.343  1.00  0.00    -0.222 N  
HETATM    9  C   UNL     1      -8.494  16.026  66.576  1.00  0.00    -0.313 C  
HETATM   10  N   UNL     1     -11.228  16.038  69.042  1.00  0.00    -0.325 NA 
HETATM   11  C   UNL     1      -8.261  17.524  66.504  1.00  0.00    -0.311 C  
HETATM   12  C   UNL     1     -10.253  16.425  68.289  1.00  0.00    -0.255 C  
HETATM   13  C   UNL     1      -8.385  18.119  67.895  1.00  0.00    -0.254 C  
HETATM   14  H   UNL     1     -11.569  18.639  68.082  1.00  0.00     0.000 HD 
ENDROOT
BRANCH   3  15
HETATM   15  C   UNL     1     -11.563  12.395  67.899  1.00  0.00    -0.415 C  
BRANCH  15  16
HETATM   16  C   UNL     1     -11.524  11.506  69.174  1.00  0.00    -0.297 C  
BRANCH  16  17
HETATM   17  N   UNL     1     -10.259  10.790  69.409  1.00  0.00    -0.198 NA 
HETATM   18  C   UNL     1     -11.138   8.501  69.837  1.00  0.00    -0.114 C  
HETATM   19  C   UNL     1     -10.114   8.963  67.603  1.00  0.00    -0.274 C  
HETATM   20  C   UNL     1     -10.355   9.695  70.376  1.00  0.00    -0.291 C  
HETATM   21  C   UNL     1     -10.385   7.876  68.654  1.00  0.00    -0.224 C  
HETATM   22  C   UNL     1      -9.616  10.310  68.167  1.00  0.00    -0.140 C  
BRANCH  21  23
HETATM   23  C   UNL     1      -9.201   7.110  69.190  1.00  0.00    -0.139 A  
HETATM   24  N   UNL     1      -7.937   7.507  68.996  1.00  0.00    -0.120 NA 
HETATM   25  O   UNL     1      -7.172   6.795  69.910  1.00  0.00    -0.075 OA 
HETATM   26  C   UNL     1      -7.972   5.957  70.623  1.00  0.00    -0.110 A  
HETATM   27  C   UNL     1      -9.267   6.055  70.146  1.00  0.00    -0.165 A  
HETATM   28  C   UNL     1     -10.272   5.263  70.733  1.00  0.00    -0.317 A  
HETATM   29  C   UNL     1      -9.919   4.420  71.793  1.00  0.00    -0.257 A  
HETATM   30  C   UNL     1      -8.606   4.387  72.263  1.00  0.00    -0.113 A  
HETATM   31  C   UNL     1      -7.589   5.150  71.689  1.00  0.00    -0.101 A  
HETATM   32  F   UNL     1      -8.316   3.602  73.310  1.00  0.00    -0.079 F  
ENDBRANCH  21  23
ENDBRANCH  16  17
ENDBRANCH  15  16
ENDBRANCH   3  15
TORSDOF 4
ENDMDL
MODEL      108
REMARK 921   NORMALIZED FREE ENERGY PREDICTED BY IDOCK:   -5.94 KCAL/MOL
REMARK 922        TOTAL FREE ENERGY PREDICTED BY IDOCK:   -7.60 KCAL/MOL
REMARK 923 INTER-LIGAND FREE ENERGY PREDICTED BY IDOCK:   -7.06 KCAL/MOL
REMARK 924 INTRA-LIGAND FREE ENERGY PREDICTED BY IDOCK:   -0.54 KCAL/MOL
REMARK 927      BINDING AFFINITY PREDICTED BY RF-SCORE:    0.00 PKD
ROOT
HETATM    1  C   UNL     1     -12.449   8.819  71.699  1.00  0.00    -0.392 C  
HETATM    2  C   UNL     1     -11.703   7.556  71.358  1.00  0.00    -0.283 C  
HETATM    3  C   UNL     1     -11.087   7.303  70.185  1.00  0.00    -0.281 C  
HETATM    4  C   UNL     1     -10.372   6.003  70.075  1.00  0.00    -0.229 C  
HETATM    5  O   UNL     1     -10.297   4.967  74.519  1.00  0.00    -0.253 OA 
HETATM    6  C   UNL     1     -11.191   4.567  73.484  1.00  0.00    -0.303 C  
HETATM    7  O   UNL     1      -9.801   5.701  69.026  1.00  0.00    -0.138 OA 
HETATM    8  N   UNL     1     -10.397   5.177  71.180  1.00  0.00    -0.221 N  
HETATM    9  C   UNL     1      -9.808   3.853  71.008  1.00  0.00    -0.149 C  
HETATM   10  N   UNL     1     -11.746   6.660  72.395  1.00  0.00    -0.258 NA 
HETATM   11  C   UNL     1      -9.623   3.064  72.290  1.00  0.00    -0.204 C  
HETATM   12  C   UNL     1     -11.138   5.527  72.281  1.00  0.00    -0.237 C  
HETATM   13  C   UNL     1     -10.902   3.124  73.106  1.00  0.00    -0.242 C  
HETATM   14  H   UNL     1     -10.477   5.870  74.756  1.00  0.00     0.000 HD 
ENDROOT
BRANCH   3  15
HETATM   15  C   UNL     1     -10.945   8.207  68.981  1.00  0.00     0.093 C  
BRANCH  15  16
HETATM   16  C   UNL     1      -9.911   9.355  69.153  1.00  0.00    -0.182 C  
BRANCH  16  17
HETATM   17  N   UNL     1     -10.470  10.653  69.566  1.00  0.00    -0.223 NA 
HETATM   18  C   UNL     1      -9.725  12.065  67.656  1.00  0.00    -0.187 C  
HETATM   19  C   UNL     1     -12.121  11.353  67.722  1.00  0.00     0.150 C  
HETATM   20  C   UNL     1      -9.671  11.812  69.160  1.00  0.00     0.266 C  
HETATM   21  C   UNL     1     -11.153  12.446  67.244  1.00  0.00    -0.329 C  
HETATM   22  C   UNL     1     -11.878  10.845  69.158  1.00  0.00    -0.317 C  
BRANCH  21  23
HETATM   23  C   UNL     1     -11.421  13.862  67.693  1.00  0.00    -0.324 A  
HETATM   24  N   UNL     1     -12.203  14.151  68.741  1.00  0.00    -0.280 NA 
HETATM   25  O   UNL     1     -11.925  15.471  69.067  1.00  0.00    -0.354 OA 
HETATM   26  C   UNL     1     -11.006  15.974  68.199  1.00  0.00    -0.339 A  
HETATM   27  C   UNL     1     -10.712  15.014  67.247  1.00  0.00    -0.298 A  
HETATM   28  C   UNL     1      -9.786  15.321  66.231  1.00  0.00    -0.325 A  
HETATM   29  C   UNL     1      -9.184  16.585  66.242  1.00  0.00    -0.345 A  
HETATM   30  C   UNL     1      -9.485  17.504  67.248  1.00  0.00    -0.253 A  
HETATM   31  C   UNL     1     -10.411  17.230  68.255  1.00  0.00    -0.361 A  
HETATM   32  F   UNL     1      -8.854  18.686  67.250  1.00  0.00    -0.264 F  
ENDBRANCH  21  23
ENDBRANCH  16  17
ENDBRANCH  15  16
ENDBRANCH   3  15
TORSDOF 4
ENDMDL
MODEL      109
REMARK 921   NORMALIZED FREE ENERGY PREDICTED BY IDOCK:   -5.92 KCAL/MOL
REMARK 922        TOTAL FREE ENERGY PREDICTED BY IDOCK:   -7.58 KCAL/MOL
REMARK 923 INTER-LIGAND FREE ENERGY PREDICTED BY IDOCK:   -7.46 KCAL/MOL
REMARK 924 INTRA-LIGAND FREE ENERGY PREDICTED BY IDOCK:   -0.12 KCAL/MOL
REMARK 927      BINDING AFFINITY PREDICTED BY RF-SCORE:    0.00 PKD
ROOT
HETATM    1  C   UNL     1      -7.626  12.152  68.963  1.00  0.00     0.081 C  
HETATM    2  C   UNL     1      -8.209  10.892  68.378  1.00  0.00    -0.133 C  
HETATM    3  C   UNL     1      -9.523  10.639  68.214  1.00  0.00    -0.161 C  
HETATM    4  C   UNL     1      -9.879   9.344  67.575  1.00  0.00    -0.173 C  
HETATM    5  O   UNL     1      -5.747   8.322  65.926  1.00  0.00    -0.039 OA 
HETATM    6  C   UNL     1      -6.400   7.914  67.125  1.00  0.00    -0.055 C  
HETATM    7  O   UNL     1     -11.061   9.042  67.410  1.00  0.00    -0.026 OA 
HETATM    8  N   UNL     1      -8.836   8.521  67.202  1.00  0.00    -0.128 N  
HETATM    9  C   UNL     1      -9.204   7.201  66.702  1.00  0.00    -0.160 C  
HETATM   10  N   UNL     1      -7.223  10.000  68.044  1.00  0.00    -0.082 NA 
HETATM   11  C   UNL     1      -8.069   6.416  66.070  1.00  0.00    -0.120 C  
HETATM   12  C   UNL     1      -7.544   8.870  67.507  1.00  0.00    -0.093 C  
HETATM   13  C   UNL     1      -6.854   6.471  66.978  1.00  0.00    -0.066 C  
HETATM   14  H   UNL     1      -5.463   9.224  66.017  1.00  0.00     0.000 HD 
ENDROOT
BRANCH   3  15
HETATM   15  C   UNL     1     -10.700  11.541  68.514  1.00  0.00    -0.242 C  
BRANCH  15  16
HETATM   16  C   UNL     1     -11.646  11.792  67.306  1.00  0.00    -0.269 C  
BRANCH  16  17
HETATM   17  N   UNL     1     -11.965  13.204  67.035  1.00  0.00    -0.376 NA 
HETATM   18  C   UNL     1      -9.682  14.070  66.550  1.00  0.00    -0.305 C  
HETATM   19  C   UNL     1     -11.216  13.665  64.617  1.00  0.00    -0.383 C  
HETATM   20  C   UNL     1     -10.920  14.148  67.439  1.00  0.00    -0.299 C  
HETATM   21  C   UNL     1     -10.037  14.511  65.123  1.00  0.00    -0.361 C  
HETATM   22  C   UNL     1     -12.358  13.460  65.632  1.00  0.00    -0.470 C  
BRANCH  21  23
HETATM   23  C   UNL     1     -10.197  16.011  65.109  1.00  0.00    -0.113 A  
HETATM   24  N   UNL     1     -11.230  16.622  64.516  1.00  0.00    -0.982 NA 
HETATM   25  O   UNL     1     -11.238  17.919  65.010  1.00  0.00    -0.556 OA 
HETATM   26  C   UNL     1     -10.196  18.087  65.869  1.00  0.00    -0.229 A  
HETATM   27  C   UNL     1      -9.447  16.925  65.906  1.00  0.00    -0.148 A  
HETATM   28  C   UNL     1      -8.304  16.874  66.726  1.00  0.00    -0.269 A  
HETATM   29  C   UNL     1      -7.986  18.003  67.491  1.00  0.00    -0.224 A  
HETATM   30  C   UNL     1      -8.795  19.138  67.449  1.00  0.00    -0.293 A  
HETATM   31  C   UNL     1      -9.923  19.219  66.632  1.00  0.00    -0.461 A  
HETATM   32  F   UNL     1      -8.483  20.181  68.229  1.00  0.00    -0.318 F  
ENDBRANCH  21  23
ENDBRANCH  16  17
ENDBRANCH  15  16
ENDBRANCH   3  15
TORSDOF 4
ENDMDL
MODEL      110
REMARK 921   NORMALIZED FREE ENERGY PREDICTED BY IDOCK:   -5.91 KCAL/MOL
REMARK 922        TOTAL FREE ENERGY PREDICTED BY IDOCK:   -7.57 KCAL/MOL
REMARK 923 INTER-LIGAND FREE ENERGY PREDICTED BY IDOCK:   -7.65 KCAL/MOL
REMARK 924 INTRA-LIGAND FREE ENERGY PREDICTED BY IDOCK:    0.08 KCAL/MOL
REMARK 927      BINDING AFFINITY PREDICTED BY RF-SCORE:    0.00 PKD
ROOT
HETATM    1  C   UNL     1      -8.042   7.301  69.341  1.00  0.00    -0.130 C  
HETATM    2  C   UNL     1      -9.042   6.787  70.343  1.00  0.00    -0.153 C  
HETATM    3  C   UNL     1     -10.182   7.410  70.703  1.00  0.00    -0.202 C  
HETATM    4  C   UNL     1     -11.049   6.702  71.683  1.00  0.00    -0.250 C  
HETATM    5  O   UNL     1      -9.102   2.587  71.358  1.00  0.00    -0.081 OA 
HETATM    6  C   UNL     1      -8.901   3.642  72.293  1.00  0.00    -0.092 C  
HETATM    7  O   UNL     1     -12.097   7.222  72.067  1.00  0.00    -0.296 OA 
HETATM    8  N   UNL     1     -10.614   5.472  72.131  1.00  0.00    -0.219 N  
HETATM    9  C   UNL     1     -11.406   4.855  73.190  1.00  0.00    -0.315 C  
HETATM   10  N   UNL     1      -8.636   5.592  70.878  1.00  0.00    -0.126 NA 
HETATM   11  C   UNL     1     -11.059   3.409  73.489  1.00  0.00    -0.317 C  
HETATM   12  C   UNL     1      -9.387   4.995  71.743  1.00  0.00    -0.147 C  
HETATM   13  C   UNL     1      -9.553   3.268  73.615  1.00  0.00    -0.137 C  
HETATM   14  H   UNL     1      -8.695   2.820  70.531  1.00  0.00     0.000 HD 
ENDROOT
BRANCH   3  15
HETATM   15  C   UNL     1     -10.754   8.707  70.175  1.00  0.00    -0.244 C  
BRANCH  15  16
HETATM   16  C   UNL     1     -10.390   9.019  68.696  1.00  0.00    -0.209 C  
BRANCH  16  17
HETATM   17  N   UNL     1      -9.812  10.352  68.454  1.00  0.00    -0.157 NA 
HETATM   18  C   UNL     1     -10.800  10.845  66.223  1.00  0.00    -0.191 C  
HETATM   19  C   UNL     1     -11.797  11.972  68.221  1.00  0.00    -0.351 C  
HETATM   20  C   UNL     1      -9.531  10.641  67.045  1.00  0.00    -0.164 C  
HETATM   21  C   UNL     1     -11.542  12.098  66.711  1.00  0.00    -0.412 C  
HETATM   22  C   UNL     1     -10.602  11.452  69.046  1.00  0.00    -0.191 C  
BRANCH  21  23
HETATM   23  C   UNL     1     -10.794  13.317  66.228  1.00  0.00    -0.284 A  
HETATM   24  N   UNL     1     -10.322  13.427  64.980  1.00  0.00    -0.346 NA 
HETATM   25  O   UNL     1     -10.037  14.773  64.801  1.00  0.00    -0.308 OA 
HETATM   26  C   UNL     1     -10.309  15.456  65.946  1.00  0.00    -0.341 A  
HETATM   27  C   UNL     1     -10.716  14.561  66.920  1.00  0.00    -0.288 A  
HETATM   28  C   UNL     1     -11.040  15.046  68.201  1.00  0.00    -0.296 A  
HETATM   29  C   UNL     1     -10.957  16.425  68.429  1.00  0.00    -0.353 A  
HETATM   30  C   UNL     1     -10.579  17.290  67.402  1.00  0.00    -0.303 A  
HETATM   31  C   UNL     1     -10.237  16.833  66.130  1.00  0.00    -0.363 A  
HETATM   32  F   UNL     1     -10.555  18.607  67.647  1.00  0.00    -0.383 F  
ENDBRANCH  21  23
ENDBRANCH  16  17
ENDBRANCH  15  16
ENDBRANCH   3  15
TORSDOF 4
ENDMDL
MODEL      111
REMARK 921   NORMALIZED FREE ENERGY PREDICTED BY IDOCK:   -5.88 KCAL/MOL
REMARK 922        TOTAL FREE ENERGY PREDICTED BY IDOCK:   -7.53 KCAL/MOL
REMARK 923 INTER-LIGAND FREE ENERGY PREDICTED BY IDOCK:   -7.59 KCAL/MOL
REMARK 924 INTRA-LIGAND FREE ENERGY PREDICTED BY IDOCK:    0.06 KCAL/MOL
REMARK 927      BINDING AFFINITY PREDICTED BY RF-SCORE:    0.00 PKD
ROOT
HETATM    1  C   UNL     1      -8.752   7.402  68.130  1.00  0.00    -0.122 C  
HETATM    2  C   UNL     1      -8.566   6.631  66.849  1.00  0.00    -0.115 C  
HETATM    3  C   UNL     1      -8.290   7.169  65.644  1.00  0.00    -0.138 C  
HETATM    4  C   UNL     1      -8.104   6.218  64.515  1.00  0.00    -0.102 C  
HETATM    5  O   UNL     1      -7.624   2.416  66.995  1.00  0.00    -0.064 OA 
HETATM    6  C   UNL     1      -8.766   2.968  66.346  1.00  0.00    -0.133 C  
HETATM    7  O   UNL     1      -7.866   6.642  63.384  1.00  0.00    -0.112 OA 
HETATM    8  N   UNL     1      -8.224   4.873  64.802  1.00  0.00    -0.119 N  
HETATM    9  C   UNL     1      -8.173   3.964  63.662  1.00  0.00    -0.090 C  
HETATM   10  N   UNL     1      -8.736   5.286  67.052  1.00  0.00    -0.108 NA 
HETATM   11  C   UNL     1      -8.055   2.495  64.020  1.00  0.00    -0.082 C  
HETATM   12  C   UNL     1      -8.592   4.470  66.062  1.00  0.00    -0.114 C  
HETATM   13  C   UNL     1      -9.070   2.157  65.097  1.00  0.00    -0.121 C  
HETATM   14  H   UNL     1      -7.434   2.923  67.776  1.00  0.00     0.000 HD 
ENDROOT
BRANCH   3  15
HETATM   15  C   UNL     1      -8.053   8.621  65.292  1.00  0.00    -0.136 C  
BRANCH  15  16
HETATM   16  C   UNL     1      -9.341   9.421  64.947  1.00  0.00    -0.150 C  
BRANCH  16  17
HETATM   17  N   UNL     1      -9.179  10.883  64.881  1.00  0.00    -0.204 NA 
HETATM   18  C   UNL     1     -11.311  11.496  63.752  1.00  0.00    -0.420 C  
HETATM   19  C   UNL     1     -11.134  11.890  66.216  1.00  0.00    -0.364 C  
HETATM   20  C   UNL     1      -9.786  11.505  63.702  1.00  0.00    -0.353 C  
HETATM   21  C   UNL     1     -11.799  12.371  64.916  1.00  0.00    -0.442 C  
HETATM   22  C   UNL     1      -9.628  11.581  66.105  1.00  0.00    -0.225 C  
BRANCH  21  23
HETATM   23  C   UNL     1     -11.621  13.820  64.535  1.00  0.00    -0.392 A  
HETATM   24  N   UNL     1     -12.462  14.458  63.711  1.00  0.00    -0.786 NA 
HETATM   25  O   UNL     1     -12.206  15.812  63.884  1.00  0.00    -0.690 OA 
HETATM   26  C   UNL     1     -11.198  15.976  64.783  1.00  0.00    -0.339 A  
HETATM   27  C   UNL     1     -10.729  14.733  65.169  1.00  0.00    -0.433 A  
HETATM   28  C   UNL     1      -9.669  14.660  66.092  1.00  0.00    -0.344 A  
HETATM   29  C   UNL     1      -9.147  15.856  66.599  1.00  0.00    -0.290 A  
HETATM   30  C   UNL     1      -9.682  17.083  66.209  1.00  0.00    -0.283 A  
HETATM   31  C   UNL     1     -10.721  17.183  65.283  1.00  0.00    -0.067 A  
HETATM   32  F   UNL     1      -9.186  18.203  66.752  1.00  0.00    -0.249 F  
ENDBRANCH  21  23
ENDBRANCH  16  17
ENDBRANCH  15  16
ENDBRANCH   3  15
TORSDOF 4
ENDMDL
MODEL      112
REMARK 921   NORMALIZED FREE ENERGY PREDICTED BY IDOCK:   -5.87 KCAL/MOL
REMARK 922        TOTAL FREE ENERGY PREDICTED BY IDOCK:   -7.52 KCAL/MOL
REMARK 923 INTER-LIGAND FREE ENERGY PREDICTED BY IDOCK:   -6.87 KCAL/MOL
REMARK 924 INTRA-LIGAND FREE ENERGY PREDICTED BY IDOCK:   -0.65 KCAL/MOL
REMARK 927      BINDING AFFINITY PREDICTED BY RF-SCORE:    0.00 PKD
ROOT
HETATM    1  C   UNL     1      -9.881   4.796  68.687  1.00  0.00    -0.208 C  
HETATM    2  C   UNL     1      -9.295   4.901  67.304  1.00  0.00    -0.131 C  
HETATM    3  C   UNL     1      -8.129   5.502  66.990  1.00  0.00    -0.101 C  
HETATM    4  C   UNL     1      -7.717   5.454  65.561  1.00  0.00    -0.091 C  
HETATM    5  O   UNL     1     -10.609   2.195  64.201  1.00  0.00    -0.374 OA 
HETATM    6  C   UNL     1     -10.704   3.615  64.130  1.00  0.00    -0.210 C  
HETATM    7  O   UNL     1      -6.671   5.997  65.203  1.00  0.00    -0.042 OA 
HETATM    8  N   UNL     1      -8.558   4.796  64.688  1.00  0.00    -0.142 N  
HETATM    9  C   UNL     1      -8.208   4.875  63.274  1.00  0.00    -0.109 C  
HETATM   10  N   UNL     1     -10.118   4.321  66.372  1.00  0.00    -0.208 NA 
HETATM   11  C   UNL     1      -8.994   3.947  62.366  1.00  0.00    -0.092 C  
HETATM   12  C   UNL     1      -9.760   4.302  65.132  1.00  0.00    -0.194 C  
HETATM   13  C   UNL     1     -10.473   4.058  62.694  1.00  0.00    -0.168 C  
HETATM   14  H   UNL     1     -10.753   1.917  65.098  1.00  0.00     0.000 HD 
ENDROOT
BRANCH   3  15
HETATM   15  C   UNL     1      -7.125   6.151  67.916  1.00  0.00    -0.078 C  
BRANCH  15  16
HETATM   16  C   UNL     1      -7.358   7.668  68.163  1.00  0.00    -0.099 C  
BRANCH  16  17
HETATM   17  N   UNL     1      -8.550   8.239  67.513  1.00  0.00    -0.129 NA 
HETATM   18  C   UNL     1      -8.958  10.185  69.010  1.00  0.00    -0.168 C  
HETATM   19  C   UNL     1      -7.905  10.620  66.784  1.00  0.00    -0.126 C  
HETATM   20  C   UNL     1      -9.493   8.877  68.435  1.00  0.00    -0.140 C  
HETATM   21  C   UNL     1      -8.792  11.219  67.887  1.00  0.00    -0.142 C  
HETATM   22  C   UNL     1      -8.229   9.161  66.403  1.00  0.00    -0.114 C  
BRANCH  21  23
HETATM   23  C   UNL     1     -10.159  11.720  67.490  1.00  0.00    -0.192 A  
HETATM   24  N   UNL     1     -11.012  12.263  68.367  1.00  0.00    -0.222 NA 
HETATM   25  O   UNL     1     -11.971  12.919  67.607  1.00  0.00    -0.352 OA 
HETATM   26  C   UNL     1     -11.706  12.741  66.284  1.00  0.00    -0.402 A  
HETATM   27  C   UNL     1     -10.607  11.912  66.150  1.00  0.00    -0.295 A  
HETATM   28  C   UNL     1     -10.157  11.578  64.859  1.00  0.00    -0.314 A  
HETATM   29  C   UNL     1     -10.833  12.121  63.760  1.00  0.00    -0.490 A  
HETATM   30  C   UNL     1     -11.912  12.984  63.948  1.00  0.00    -0.485 A  
HETATM   31  C   UNL     1     -12.387  13.317  65.217  1.00  0.00    -0.525 A  
HETATM   32  F   UNL     1     -12.503  13.520  62.872  1.00  0.00    -0.521 F  
ENDBRANCH  21  23
ENDBRANCH  16  17
ENDBRANCH  15  16
ENDBRANCH   3  15
TORSDOF 4
ENDMDL
MODEL      113
REMARK 921   NORMALIZED FREE ENERGY PREDICTED BY IDOCK:   -5.87 KCAL/MOL
REMARK 922        TOTAL FREE ENERGY PREDICTED BY IDOCK:   -7.52 KCAL/MOL
REMARK 923 INTER-LIGAND FREE ENERGY PREDICTED BY IDOCK:   -6.81 KCAL/MOL
REMARK 924 INTRA-LIGAND FREE ENERGY PREDICTED BY IDOCK:   -0.70 KCAL/MOL
REMARK 927      BINDING AFFINITY PREDICTED BY RF-SCORE:    0.00 PKD
ROOT
HETATM    1  C   UNL     1      -7.249   4.516  69.968  1.00  0.00    -0.050 C  
HETATM    2  C   UNL     1      -8.540   5.292  69.937  1.00  0.00    -0.102 C  
HETATM    3  C   UNL     1      -9.277   5.543  68.836  1.00  0.00    -0.141 C  
HETATM    4  C   UNL     1     -10.544   6.296  69.038  1.00  0.00    -0.267 C  
HETATM    5  O   UNL     1     -10.824   5.812  73.569  1.00  0.00    -0.288 OA 
HETATM    6  C   UNL     1     -10.313   6.879  72.775  1.00  0.00    -0.213 C  
HETATM    7  O   UNL     1     -11.257   6.573  68.074  1.00  0.00    -0.281 OA 
HETATM    8  N   UNL     1     -10.854   6.665  70.331  1.00  0.00    -0.248 N  
HETATM    9  C   UNL     1     -12.028   7.517  70.494  1.00  0.00    -0.061 C  
HETATM   10  N   UNL     1      -8.874   5.746  71.187  1.00  0.00    -0.135 NA 
HETATM   11  C   UNL     1     -12.491   7.701  71.927  1.00  0.00    -0.338 C  
HETATM   12  C   UNL     1      -9.967   6.416  71.348  1.00  0.00    -0.184 C  
HETATM   13  C   UNL     1     -11.297   8.037  72.802  1.00  0.00    -0.439 C  
HETATM   14  H   UNL     1     -10.209   5.088  73.552  1.00  0.00     0.000 HD 
ENDROOT
BRANCH   3  15
HETATM   15  C   UNL     1      -9.036   5.082  67.416  1.00  0.00    -0.111 C  
BRANCH  15  16
HETATM   16  C   UNL     1      -7.995   5.928  66.630  1.00  0.00    -0.102 C  
BRANCH  16  17
HETATM   17  N   UNL     1      -8.543   6.755  65.542  1.00  0.00    -0.125 NA 
HETATM   18  C   UNL     1      -8.902   8.889  66.772  1.00  0.00    -0.142 C  
HETATM   19  C   UNL     1      -6.924   8.733  65.250  1.00  0.00    -0.076 C  
HETATM   20  C   UNL     1      -9.529   7.748  65.976  1.00  0.00     0.012 C  
HETATM   21  C   UNL     1      -7.952   9.692  65.871  1.00  0.00    -0.112 C  
HETATM   22  C   UNL     1      -7.503   7.407  64.717  1.00  0.00    -0.088 C  
BRANCH  21  23
HETATM   23  C   UNL     1      -8.779  10.534  64.931  1.00  0.00    -0.181 A  
HETATM   24  N   UNL     1      -8.777  10.350  63.605  1.00  0.00    -0.186 NA 
HETATM   25  O   UNL     1      -9.889  11.029  63.127  1.00  0.00    -0.315 OA 
HETATM   26  C   UNL     1     -10.533  11.638  64.159  1.00  0.00    -0.351 A  
HETATM   27  C   UNL     1      -9.819  11.426  65.325  1.00  0.00    -0.290 A  
HETATM   28  C   UNL     1     -10.295  11.980  66.528  1.00  0.00    -0.240 A  
HETATM   29  C   UNL     1     -11.491  12.709  66.495  1.00  0.00    -0.409 A  
HETATM   30  C   UNL     1     -12.194  12.861  65.301  1.00  0.00    -0.476 A  
HETATM   31  C   UNL     1     -11.734  12.336  64.093  1.00  0.00    -0.481 A  
HETATM   32  F   UNL     1     -13.357  13.526  65.319  1.00  0.00    -0.394 F  
ENDBRANCH  21  23
ENDBRANCH  16  17
ENDBRANCH  15  16
ENDBRANCH   3  15
TORSDOF 4
ENDMDL
MODEL      114
REMARK 921   NORMALIZED FREE ENERGY PREDICTED BY IDOCK:   -5.87 KCAL/MOL
REMARK 922        TOTAL FREE ENERGY PREDICTED BY IDOCK:   -7.51 KCAL/MOL
REMARK 923 INTER-LIGAND FREE ENERGY PREDICTED BY IDOCK:   -6.86 KCAL/MOL
REMARK 924 INTRA-LIGAND FREE ENERGY PREDICTED BY IDOCK:   -0.65 KCAL/MOL
REMARK 927      BINDING AFFINITY PREDICTED BY RF-SCORE:    0.00 PKD
ROOT
HETATM    1  C   UNL     1      -5.735   8.456  64.099  1.00  0.00    -0.064 C  
HETATM    2  C   UNL     1      -6.834   7.688  64.785  1.00  0.00    -0.051 C  
HETATM    3  C   UNL     1      -7.312   7.940  66.021  1.00  0.00    -0.074 C  
HETATM    4  C   UNL     1      -8.432   7.081  66.490  1.00  0.00    -0.125 C  
HETATM    5  O   UNL     1      -9.570   5.296  62.447  1.00  0.00    -0.354 OA 
HETATM    6  C   UNL     1      -8.741   4.790  63.489  1.00  0.00    -0.126 C  
HETATM    7  O   UNL     1      -8.906   7.246  67.615  1.00  0.00    -0.124 OA 
HETATM    8  N   UNL     1      -8.886   6.111  65.621  1.00  0.00    -0.131 N  
HETATM    9  C   UNL     1      -9.891   5.193  66.147  1.00  0.00    -0.185 C  
HETATM   10  N   UNL     1      -7.288   6.662  63.997  1.00  0.00    -0.071 NA 
HETATM   11  C   UNL     1     -10.550   4.303  65.111  1.00  0.00    -0.169 C  
HETATM   12  C   UNL     1      -8.248   5.910  64.422  1.00  0.00    -0.099 C  
HETATM   13  C   UNL     1      -9.483   3.686  64.225  1.00  0.00    -0.152 C  
HETATM   14  H   UNL     1      -9.106   5.986  61.986  1.00  0.00     0.000 HD 
ENDROOT
BRANCH   3  15
HETATM   15  C   UNL     1      -6.921   9.046  66.974  1.00  0.00    -0.078 C  
BRANCH  15  16
HETATM   16  C   UNL     1      -7.559  10.428  66.659  1.00  0.00    -0.114 C  
BRANCH  16  17
HETATM   17  N   UNL     1      -8.078  11.167  67.823  1.00  0.00    -0.115 NA 
HETATM   18  C   UNL     1      -9.572  12.787  66.667  1.00  0.00    -0.255 C  
HETATM   19  C   UNL     1     -10.629  10.833  67.815  1.00  0.00    -0.266 C  
HETATM   20  C   UNL     1      -8.356  12.582  67.566  1.00  0.00    -0.175 C  
HETATM   21  C   UNL     1     -10.837  12.293  67.381  1.00  0.00    -0.277 C  
HETATM   22  C   UNL     1      -9.256  10.528  68.448  1.00  0.00    -0.154 C  
BRANCH  21  23
HETATM   23  C   UNL     1     -11.208  13.292  68.449  1.00  0.00    -0.280 A  
HETATM   24  N   UNL     1     -11.171  14.615  68.244  1.00  0.00    -0.272 NA 
HETATM   25  O   UNL     1     -11.904  15.179  69.280  1.00  0.00    -0.304 OA 
HETATM   26  C   UNL     1     -12.348  14.199  70.113  1.00  0.00    -0.351 A  
HETATM   27  C   UNL     1     -11.861  12.980  69.677  1.00  0.00    -0.385 A  
HETATM   28  C   UNL     1     -12.186  11.817  70.400  1.00  0.00    -0.416 A  
HETATM   29  C   UNL     1     -13.011  11.943  71.524  1.00  0.00    -0.427 A  
HETATM   30  C   UNL     1     -13.509  13.191  71.900  1.00  0.00    -0.424 A  
HETATM   31  C   UNL     1     -13.188  14.360  71.210  1.00  0.00    -0.416 A  
HETATM   32  F   UNL     1     -14.332  13.264  72.955  1.00  0.00    -0.421 F  
ENDBRANCH  21  23
ENDBRANCH  16  17
ENDBRANCH  15  16
ENDBRANCH   3  15
TORSDOF 4
ENDMDL
MODEL      115
REMARK 921   NORMALIZED FREE ENERGY PREDICTED BY IDOCK:   -5.86 KCAL/MOL
REMARK 922        TOTAL FREE ENERGY PREDICTED BY IDOCK:   -7.51 KCAL/MOL
REMARK 923 INTER-LIGAND FREE ENERGY PREDICTED BY IDOCK:   -6.84 KCAL/MOL
REMARK 924 INTRA-LIGAND FREE ENERGY PREDICTED BY IDOCK:   -0.67 KCAL/MOL
REMARK 927      BINDING AFFINITY PREDICTED BY RF-SCORE:    0.00 PKD
ROOT
HETATM    1  C   UNL     1      -8.255   9.371  70.878  1.00  0.00    -0.103 C  
HETATM    2  C   UNL     1      -9.525   8.579  70.710  1.00  0.00    -0.178 C  
HETATM    3  C   UNL     1      -9.645   7.429  70.016  1.00  0.00    -0.168 C  
HETATM    4  C   UNL     1     -10.988   6.788  70.014  1.00  0.00    -0.295 C  
HETATM    5  O   UNL     1     -12.796   9.151  73.475  1.00  0.00     0.082 OA 
HETATM    6  C   UNL     1     -12.884   9.346  72.067  1.00  0.00    -0.414 C  
HETATM    7  O   UNL     1     -11.172   5.745  69.386  1.00  0.00    -0.321 OA 
HETATM    8  N   UNL     1     -11.986   7.421  70.726  1.00  0.00    -0.268 N  
HETATM    9  C   UNL     1     -13.324   6.853  70.602  1.00  0.00     0.692 C  
HETATM   10  N   UNL     1     -10.577   9.190  71.343  1.00  0.00    -0.317 NA 
HETATM   11  C   UNL     1     -14.346   7.406  71.579  1.00  0.00    -0.594 C  
HETATM   12  C   UNL     1     -11.742   8.635  71.319  1.00  0.00    -0.289 C  
HETATM   13  C   UNL     1     -14.263   8.922  71.589  1.00  0.00    -0.355 C  
HETATM   14  H   UNL     1     -11.934   9.416  73.774  1.00  0.00     0.000 HD 
ENDROOT
BRANCH   3  15
HETATM   15  C   UNL     1      -8.569   6.643  69.301  1.00  0.00    -0.131 C  
BRANCH  15  16
HETATM   16  C   UNL     1      -7.884   7.402  68.129  1.00  0.00    -0.122 C  
BRANCH  16  17
HETATM   17  N   UNL     1      -8.772   7.783  67.018  1.00  0.00    -0.127 NA 
HETATM   18  C   UNL     1      -8.627  10.262  67.189  1.00  0.00    -0.126 C  
HETATM   19  C   UNL     1      -7.331   9.135  65.370  1.00  0.00    -0.089 C  
HETATM   20  C   UNL     1      -9.518   9.024  67.239  1.00  0.00    -0.149 C  
HETATM   21  C   UNL     1      -8.050  10.431  65.776  1.00  0.00    -0.155 C  
HETATM   22  C   UNL     1      -8.087   7.834  65.708  1.00  0.00    -0.125 C  
BRANCH  21  23
HETATM   23  C   UNL     1      -9.143  10.937  64.868  1.00  0.00    -0.182 A  
HETATM   24  N   UNL     1      -9.528  10.282  63.766  1.00  0.00    -0.290 NA 
HETATM   25  O   UNL     1     -10.753  10.828  63.408  1.00  0.00    -0.121 OA 
HETATM   26  C   UNL     1     -11.081  11.823  64.276  1.00  0.00    -0.355 A  
HETATM   27  C   UNL     1     -10.048  11.994  65.180  1.00  0.00    -0.295 A  
HETATM   28  C   UNL     1     -10.165  12.986  66.172  1.00  0.00    -0.288 A  
HETATM   29  C   UNL     1     -11.339  13.748  66.212  1.00  0.00    -0.329 A  
HETATM   30  C   UNL     1     -12.369  13.511  65.302  1.00  0.00    -0.467 A  
HETATM   31  C   UNL     1     -12.270  12.545  64.301  1.00  0.00    -0.535 A  
HETATM   32  F   UNL     1     -13.495  14.230  65.403  1.00  0.00    -0.426 F  
ENDBRANCH  21  23
ENDBRANCH  16  17
ENDBRANCH  15  16
ENDBRANCH   3  15
TORSDOF 4
ENDMDL
MODEL      116
REMARK 921   NORMALIZED FREE ENERGY PREDICTED BY IDOCK:   -5.85 KCAL/MOL
REMARK 922        TOTAL FREE ENERGY PREDICTED BY IDOCK:   -7.48 KCAL/MOL
REMARK 923 INTER-LIGAND FREE ENERGY PREDICTED BY IDOCK:   -6.93 KCAL/MOL
REMARK 924 INTRA-LIGAND FREE ENERGY PREDICTED BY IDOCK:   -0.55 KCAL/MOL
REMARK 927      BINDING AFFINITY PREDICTED BY RF-SCORE:    0.00 PKD
ROOT
HETATM    1  C   UNL     1      -7.334  12.762  68.456  1.00  0.00    -0.115 C  
HETATM    2  C   UNL     1      -8.711  12.647  67.855  1.00  0.00    -0.181 C  
HETATM    3  C   UNL     1      -9.589  11.651  68.093  1.00  0.00    -0.190 C  
HETATM    4  C   UNL     1     -10.913  11.756  67.424  1.00  0.00    -0.262 C  
HETATM    5  O   UNL     1     -10.639  16.148  66.211  1.00  0.00    -0.310 OA 
HETATM    6  C   UNL     1     -10.359  14.958  65.477  1.00  0.00    -0.365 C  
HETATM    7  O   UNL     1     -11.757  10.873  67.585  1.00  0.00    -0.566 OA 
HETATM    8  N   UNL     1     -11.128  12.862  66.628  1.00  0.00    -0.276 N  
HETATM    9  C   UNL     1     -12.378  12.881  65.875  1.00  0.00    -0.313 C  
HETATM   10  N   UNL     1      -8.965  13.687  66.998  1.00  0.00    -0.236 NA 
HETATM   11  C   UNL     1     -12.705  14.205  65.210  1.00  0.00    -0.425 C  
HETATM   12  C   UNL     1     -10.112  13.758  66.408  1.00  0.00    -0.295 C  
HETATM   13  C   UNL     1     -11.477  14.715  64.477  1.00  0.00    -0.340 C  
HETATM   14  H   UNL     1      -9.940  16.300  66.836  1.00  0.00     0.000 HD 
ENDROOT
BRANCH   3  15
HETATM   15  C   UNL     1      -9.444  10.471  69.027  1.00  0.00    -0.211 C  
BRANCH  15  16
HETATM   16  C   UNL     1      -8.767   9.223  68.393  1.00  0.00    -0.129 C  
BRANCH  16  17
HETATM   17  N   UNL     1      -9.493   7.954  68.562  1.00  0.00    -0.148 NA 
HETATM   18  C   UNL     1      -7.667   6.538  69.486  1.00  0.00    -0.100 C  
HETATM   19  C   UNL     1      -9.400   7.395  71.072  1.00  0.00    -0.157 C  
HETATM   20  C   UNL     1      -8.674   6.757  68.361  1.00  0.00    -0.123 C  
HETATM   21  C   UNL     1      -8.408   6.253  70.800  1.00  0.00    -0.126 C  
HETATM   22  C   UNL     1     -10.217   7.857  69.848  1.00  0.00    -0.210 C  
BRANCH  21  23
HETATM   23  C   UNL     1      -8.956   4.849  70.748  1.00  0.00    -0.131 A  
HETATM   24  N   UNL     1      -8.467   3.913  69.924  1.00  0.00    -0.059 NA 
HETATM   25  O   UNL     1      -8.947   2.701  70.401  1.00  0.00    -0.076 OA 
HETATM   26  C   UNL     1      -9.741   2.917  71.484  1.00  0.00    -0.154 A  
HETATM   27  C   UNL     1      -9.851   4.279  71.699  1.00  0.00    -0.257 A  
HETATM   28  C   UNL     1     -10.642   4.740  72.769  1.00  0.00    -0.272 A  
HETATM   29  C   UNL     1     -11.270   3.792  73.586  1.00  0.00    -0.288 A  
HETATM   30  C   UNL     1     -11.096   2.428  73.352  1.00  0.00    -0.188 A  
HETATM   31  C   UNL     1     -10.331   1.947  72.289  1.00  0.00    -0.213 A  
HETATM   32  F   UNL     1     -11.676   1.553  74.183  1.00  0.00    -0.212 F  
ENDBRANCH  21  23
ENDBRANCH  16  17
ENDBRANCH  15  16
ENDBRANCH   3  15
TORSDOF 4
ENDMDL
MODEL      117
REMARK 921   NORMALIZED FREE ENERGY PREDICTED BY IDOCK:   -5.83 KCAL/MOL
REMARK 922        TOTAL FREE ENERGY PREDICTED BY IDOCK:   -7.46 KCAL/MOL
REMARK 923 INTER-LIGAND FREE ENERGY PREDICTED BY IDOCK:   -6.76 KCAL/MOL
REMARK 924 INTRA-LIGAND FREE ENERGY PREDICTED BY IDOCK:   -0.70 KCAL/MOL
REMARK 927      BINDING AFFINITY PREDICTED BY RF-SCORE:    0.00 PKD
ROOT
HETATM    1  C   UNL     1     -11.098  12.330  66.339  1.00  0.00    -0.345 C  
HETATM    2  C   UNL     1     -10.180  13.514  66.501  1.00  0.00    -0.283 C  
HETATM    3  C   UNL     1      -8.899  13.460  66.918  1.00  0.00    -0.185 C  
HETATM    4  C   UNL     1      -8.159  14.750  66.966  1.00  0.00    -0.144 C  
HETATM    5  O   UNL     1     -11.065  17.216  64.454  1.00  0.00    -1.100 OA 
HETATM    6  C   UNL     1     -10.934  17.084  65.867  1.00  0.00     0.125 C  
HETATM    7  O   UNL     1      -6.990  14.776  67.353  1.00  0.00    -0.186 OA 
HETATM    8  N   UNL     1      -8.845  15.882  66.575  1.00  0.00    -0.275 N  
HETATM    9  C   UNL     1      -8.149  17.151  66.757  1.00  0.00    -0.243 C  
HETATM   10  N   UNL     1     -10.823  14.684  66.189  1.00  0.00    -0.314 NA 
HETATM   11  C   UNL     1      -8.813  18.345  66.096  1.00  0.00    -0.117 C  
HETATM   12  C   UNL     1     -10.177  15.801  66.253  1.00  0.00    -0.303 C  
HETATM   13  C   UNL     1     -10.295  18.343  66.428  1.00  0.00    -0.430 C  
HETATM   14  H   UNL     1     -11.464  16.428  64.103  1.00  0.00     0.000 HD 
ENDROOT
BRANCH   3  15
HETATM   15  C   UNL     1      -8.071  12.243  67.264  1.00  0.00    -0.182 C  
BRANCH  15  16
HETATM   16  C   UNL     1      -8.327  11.670  68.687  1.00  0.00    -0.100 C  
BRANCH  16  17
HETATM   17  N   UNL     1      -8.000  10.246  68.864  1.00  0.00    -0.104 NA 
HETATM   18  C   UNL     1     -10.224   9.383  69.575  1.00  0.00    -0.219 C  
HETATM   19  C   UNL     1      -9.497   8.948  67.222  1.00  0.00    -0.195 C  
HETATM   20  C   UNL     1      -8.753   9.581  69.930  1.00  0.00    -0.210 C  
HETATM   21  C   UNL     1     -10.349   8.419  68.387  1.00  0.00    -0.239 C  
HETATM   22  C   UNL     1      -8.096   9.460  67.614  1.00  0.00    -0.106 C  
BRANCH  21  23
HETATM   23  C   UNL     1     -10.072   7.018  68.874  1.00  0.00    -0.173 A  
HETATM   24  N   UNL     1     -10.611   6.524  69.996  1.00  0.00    -0.213 NA 
HETATM   25  O   UNL     1     -10.437   5.149  69.926  1.00  0.00    -0.295 OA 
HETATM   26  C   UNL     1      -9.771   4.829  68.783  1.00  0.00    -0.167 A  
HETATM   27  C   UNL     1      -9.437   5.993  68.114  1.00  0.00    -0.115 A  
HETATM   28  C   UNL     1      -8.727   5.904  66.902  1.00  0.00    -0.111 A  
HETATM   29  C   UNL     1      -8.406   4.632  66.413  1.00  0.00    -0.106 A  
HETATM   30  C   UNL     1      -8.799   3.487  67.105  1.00  0.00    -0.131 A  
HETATM   31  C   UNL     1      -9.489   3.549  68.316  1.00  0.00    -0.210 A  
HETATM   32  F   UNL     1      -8.513   2.288  66.582  1.00  0.00    -0.081 F  
ENDBRANCH  21  23
ENDBRANCH  16  17
ENDBRANCH  15  16
ENDBRANCH   3  15
TORSDOF 4
ENDMDL
MODEL      118
REMARK 921   NORMALIZED FREE ENERGY PREDICTED BY IDOCK:   -5.82 KCAL/MOL
REMARK 922        TOTAL FREE ENERGY PREDICTED BY IDOCK:   -7.45 KCAL/MOL
REMARK 923 INTER-LIGAND FREE ENERGY PREDICTED BY IDOCK:   -6.81 KCAL/MOL
REMARK 924 INTRA-LIGAND FREE ENERGY PREDICTED BY IDOCK:   -0.64 KCAL/MOL
REMARK 927      BINDING AFFINITY PREDICTED BY RF-SCORE:    0.00 PKD
ROOT
HETATM    1  C   UNL     1     -12.355  11.966  70.293  1.00  0.00    -0.287 C  
HETATM    2  C   UNL     1     -11.541  12.046  69.028  1.00  0.00    -0.313 C  
HETATM    3  C   UNL     1     -10.410  11.354  68.779  1.00  0.00    -0.222 C  
HETATM    4  C   UNL     1      -9.787  11.553  67.443  1.00  0.00    -0.186 C  
HETATM    5  O   UNL     1     -13.341  13.564  65.404  1.00  0.00    -0.548 OA 
HETATM    6  C   UNL     1     -12.187  14.119  66.029  1.00  0.00    -0.443 C  
HETATM    7  O   UNL     1      -8.744  10.964  67.156  1.00  0.00    -0.131 OA 
HETATM    8  N   UNL     1     -10.422  12.419  66.578  1.00  0.00    -0.228 N  
HETATM    9  C   UNL     1      -9.726  12.705  65.327  1.00  0.00    -0.026 C  
HETATM   10  N   UNL     1     -12.084  12.943  68.145  1.00  0.00    -0.236 NA 
HETATM   11  C   UNL     1     -10.548  13.453  64.294  1.00  0.00    -0.358 C  
HETATM   12  C   UNL     1     -11.524  13.122  66.995  1.00  0.00    -0.336 C  
HETATM   13  C   UNL     1     -11.238  14.631  64.957  1.00  0.00    -0.388 C  
HETATM   14  H   UNL     1     -13.935  13.244  66.074  1.00  0.00     0.000 HD 
ENDROOT
BRANCH   3  15
HETATM   15  C   UNL     1      -9.727  10.323  69.649  1.00  0.00    -0.216 C  
BRANCH  15  16
HETATM   16  C   UNL     1     -10.240   8.869  69.454  1.00  0.00    -0.209 C  
BRANCH  16  17
HETATM   17  N   UNL     1      -9.396   8.006  68.612  1.00  0.00    -0.146 NA 
HETATM   18  C   UNL     1     -10.102   5.771  69.448  1.00  0.00    -0.277 C  
HETATM   19  C   UNL     1     -11.001   6.534  67.243  1.00  0.00    -0.475 C  
HETATM   20  C   UNL     1      -8.961   6.767  69.260  1.00  0.00    -0.137 C  
HETATM   21  C   UNL     1     -10.616   5.303  68.080  1.00  0.00    -0.088 C  
HETATM   22  C   UNL     1      -9.995   7.701  67.295  1.00  0.00    -0.208 C  
BRANCH  21  23
HETATM   23  C   UNL     1      -9.610   4.345  67.491  1.00  0.00    -0.172 A  
HETATM   24  N   UNL     1      -8.788   3.606  68.246  1.00  0.00    -0.105 NA 
HETATM   25  O   UNL     1      -8.292   2.616  67.409  1.00  0.00    -0.080 OA 
HETATM   26  C   UNL     1      -8.793   2.783  66.155  1.00  0.00    -0.140 A  
HETATM   27  C   UNL     1      -9.575   3.924  66.129  1.00  0.00    -0.193 A  
HETATM   28  C   UNL     1     -10.189   4.303  64.921  1.00  0.00    -0.193 A  
HETATM   29  C   UNL     1      -9.998   3.492  63.796  1.00  0.00    -0.179 A  
HETATM   30  C   UNL     1      -9.232   2.330  63.883  1.00  0.00    -0.109 A  
HETATM   31  C   UNL     1      -8.599   1.942  65.065  1.00  0.00    -0.105 A  
HETATM   32  F   UNL     1      -9.110   1.556  62.797  1.00  0.00    -0.076 F  
ENDBRANCH  21  23
ENDBRANCH  16  17
ENDBRANCH  15  16
ENDBRANCH   3  15
TORSDOF 4
ENDMDL
MODEL      119
REMARK 921   NORMALIZED FREE ENERGY PREDICTED BY IDOCK:   -5.80 KCAL/MOL
REMARK 922        TOTAL FREE ENERGY PREDICTED BY IDOCK:   -7.43 KCAL/MOL
REMARK 923 INTER-LIGAND FREE ENERGY PREDICTED BY IDOCK:   -6.63 KCAL/MOL
REMARK 924 INTRA-LIGAND FREE ENERGY PREDICTED BY IDOCK:   -0.80 KCAL/MOL
REMARK 927      BINDING AFFINITY PREDICTED BY RF-SCORE:    0.00 PKD
ROOT
HETATM    1  C   UNL     1      -9.757   4.527  70.822  1.00  0.00    -0.267 C  
HETATM    2  C   UNL     1      -9.441   5.020  69.434  1.00  0.00    -0.144 C  
HETATM    3  C   UNL     1      -9.155   6.296  69.102  1.00  0.00    -0.130 C  
HETATM    4  C   UNL     1      -8.831   6.557  67.674  1.00  0.00    -0.112 C  
HETATM    5  O   UNL     1      -8.138   2.228  66.404  1.00  0.00    -0.079 OA 
HETATM    6  C   UNL     1      -9.291   3.057  66.297  1.00  0.00    -0.069 C  
HETATM    7  O   UNL     1      -8.576   7.702  67.299  1.00  0.00    -0.120 OA 
HETATM    8  N   UNL     1      -8.845   5.473  66.820  1.00  0.00    -0.113 N  
HETATM    9  C   UNL     1      -8.657   5.769  65.403  1.00  0.00    -0.143 C  
HETATM   10  N   UNL     1      -9.501   4.000  68.520  1.00  0.00    -0.159 NA 
HETATM   11  C   UNL     1      -8.428   4.555  64.521  1.00  0.00    -0.128 C  
HETATM   12  C   UNL     1      -9.237   4.241  67.279  1.00  0.00    -0.150 C  
HETATM   13  C   UNL     1      -9.460   3.492  64.850  1.00  0.00    -0.158 C  
HETATM   14  H   UNL     1      -8.032   1.956  67.308  1.00  0.00     0.000 HD 
ENDROOT
BRANCH   3  15
HETATM   15  C   UNL     1      -9.031   7.499  70.009  1.00  0.00    -0.144 C  
BRANCH  15  16
HETATM   16  C   UNL     1     -10.387   8.090  70.489  1.00  0.00    -0.202 C  
BRANCH  16  17
HETATM   17  N   UNL     1     -10.373   9.527  70.812  1.00  0.00    -0.298 NA 
HETATM   18  C   UNL     1     -11.096  10.463  68.622  1.00  0.00    -0.313 C  
HETATM   19  C   UNL     1     -12.779  10.370  70.471  1.00  0.00    -0.355 C  
HETATM   20  C   UNL     1     -10.008  10.395  69.690  1.00  0.00    -0.174 C  
HETATM   21  C   UNL     1     -12.354  11.126  69.202  1.00  0.00    -0.107 C  
HETATM   22  C   UNL     1     -11.629  10.003  71.430  1.00  0.00    -0.305 C  
BRANCH  21  23
HETATM   23  C   UNL     1     -12.102  12.609  69.323  1.00  0.00    -0.166 A  
HETATM   24  N   UNL     1     -11.952  13.222  70.504  1.00  0.00    -0.295 NA 
HETATM   25  O   UNL     1     -11.388  14.458  70.220  1.00  0.00    -0.227 OA 
HETATM   26  C   UNL     1     -11.232  14.592  68.875  1.00  0.00    -0.267 A  
HETATM   27  C   UNL     1     -11.750  13.474  68.246  1.00  0.00    -0.394 A  
HETATM   28  C   UNL     1     -11.708  13.400  66.841  1.00  0.00    -0.434 A  
HETATM   29  C   UNL     1     -11.120  14.459  66.138  1.00  0.00    -0.330 A  
HETATM   30  C   UNL     1     -10.577  15.547  66.821  1.00  0.00    -0.307 A  
HETATM   31  C   UNL     1     -10.621  15.651  68.211  1.00  0.00    -0.262 A  
HETATM   32  F   UNL     1      -9.982  16.518  66.115  1.00  0.00    -0.278 F  
ENDBRANCH  21  23
ENDBRANCH  16  17
ENDBRANCH  15  16
ENDBRANCH   3  15
TORSDOF 4
ENDMDL
MODEL      120
REMARK 921   NORMALIZED FREE ENERGY PREDICTED BY IDOCK:   -5.80 KCAL/MOL
REMARK 922        TOTAL FREE ENERGY PREDICTED BY IDOCK:   -7.43 KCAL/MOL
REMARK 923 INTER-LIGAND FREE ENERGY PREDICTED BY IDOCK:   -7.56 KCAL/MOL
REMARK 924 INTRA-LIGAND FREE ENERGY PREDICTED BY IDOCK:    0.13 KCAL/MOL
REMARK 927      BINDING AFFINITY PREDICTED BY RF-SCORE:    0.00 PKD
ROOT
HETATM    1  C   UNL     1     -12.529  12.949  65.305  1.00  0.00    -0.552 C  
HETATM    2  C   UNL     1     -11.435  13.572  66.131  1.00  0.00    -0.325 C  
HETATM    3  C   UNL     1     -10.511  12.896  66.844  1.00  0.00    -0.252 C  
HETATM    4  C   UNL     1      -9.492  13.712  67.557  1.00  0.00    -0.222 C  
HETATM    5  O   UNL     1     -10.239  17.657  65.388  1.00  0.00    -0.576 OA 
HETATM    6  C   UNL     1     -10.728  17.172  66.635  1.00  0.00    -0.082 C  
HETATM    7  O   UNL     1      -8.628  13.160  68.240  1.00  0.00    -0.173 OA 
HETATM    8  N   UNL     1      -9.578  15.082  67.422  1.00  0.00    -0.204 N  
HETATM    9  C   UNL     1      -8.656  15.869  68.235  1.00  0.00    -0.176 C  
HETATM   10  N   UNL     1     -11.504  14.940  66.093  1.00  0.00    -0.316 NA 
HETATM   11  C   UNL     1      -8.597  17.345  67.888  1.00  0.00    -0.232 C  
HETATM   12  C   UNL     1     -10.625  15.639  66.731  1.00  0.00    -0.307 C  
HETATM   13  C   UNL     1     -10.009  17.889  67.765  1.00  0.00    -0.331 C  
HETATM   14  H   UNL     1     -10.688  17.209  64.680  1.00  0.00     0.000 HD 
ENDROOT
BRANCH   3  15
HETATM   15  C   UNL     1     -10.310  11.401  66.949  1.00  0.00    -0.262 C  
BRANCH  15  16
HETATM   16  C   UNL     1     -11.103  10.721  68.101  1.00  0.00    -0.280 C  
BRANCH  16  17
HETATM   17  N   UNL     1     -10.309  10.357  69.286  1.00  0.00    -0.217 NA 
HETATM   18  C   UNL     1     -12.091   9.346  70.698  1.00  0.00    -0.191 C  
HETATM   19  C   UNL     1     -10.504   7.804  69.533  1.00  0.00    -0.225 C  
HETATM   20  C   UNL     1     -11.040  10.442  70.553  1.00  0.00    -0.265 C  
HETATM   21  C   UNL     1     -11.407   7.973  70.765  1.00  0.00    -0.282 C  
HETATM   22  C   UNL     1      -9.652   9.037  69.172  1.00  0.00    -0.161 C  
BRANCH  21  23
HETATM   23  C   UNL     1     -10.771   7.819  72.124  1.00  0.00    -0.248 A  
HETATM   24  N   UNL     1     -11.394   7.226  73.151  1.00  0.00    -0.213 NA 
HETATM   25  O   UNL     1     -10.404   6.947  74.083  1.00  0.00    -0.373 OA 
HETATM   26  C   UNL     1      -9.204   7.399  73.628  1.00  0.00    -0.244 A  
HETATM   27  C   UNL     1      -9.394   8.042  72.417  1.00  0.00    -0.272 A  
HETATM   28  C   UNL     1      -8.282   8.605  71.762  1.00  0.00    -0.184 A  
HETATM   29  C   UNL     1      -7.022   8.470  72.358  1.00  0.00    -0.081 A  
HETATM   30  C   UNL     1      -6.878   7.779  73.561  1.00  0.00    -0.089 A  
HETATM   31  C   UNL     1      -7.966   7.226  74.237  1.00  0.00    -0.174 A  
HETATM   32  F   UNL     1      -5.650   7.632  74.076  1.00  0.00    -0.052 F  
ENDBRANCH  21  23
ENDBRANCH  16  17
ENDBRANCH  15  16
ENDBRANCH   3  15
TORSDOF 4
ENDMDL
MODEL      121
REMARK 921   NORMALIZED FREE ENERGY PREDICTED BY IDOCK:   -5.80 KCAL/MOL
REMARK 922        TOTAL FREE ENERGY PREDICTED BY IDOCK:   -7.43 KCAL/MOL
REMARK 923 INTER-LIGAND FREE ENERGY PREDICTED BY IDOCK:   -6.74 KCAL/MOL
REMARK 924 INTRA-LIGAND FREE ENERGY PREDICTED BY IDOCK:   -0.68 KCAL/MOL
REMARK 927      BINDING AFFINITY PREDICTED BY RF-SCORE:    0.00 PKD
ROOT
HETATM    1  C   UNL     1      -7.310  12.084  68.032  1.00  0.00    -0.102 C  
HETATM    2  C   UNL     1      -8.111  11.735  66.805  1.00  0.00    -0.133 C  
HETATM    3  C   UNL     1      -7.763  10.822  65.876  1.00  0.00    -0.118 C  
HETATM    4  C   UNL     1      -8.725  10.604  64.762  1.00  0.00    -0.160 C  
HETATM    5  O   UNL     1     -12.325  12.681  66.649  1.00  0.00    -0.474 OA 
HETATM    6  C   UNL     1     -11.354  13.158  65.722  1.00  0.00    -0.306 C  
HETATM    7  O   UNL     1      -8.463   9.796  63.870  1.00  0.00    -0.154 OA 
HETATM    8  N   UNL     1      -9.887  11.349  64.782  1.00  0.00    -0.250 N  
HETATM    9  C   UNL     1     -10.753  11.221  63.615  1.00  0.00    -0.367 C  
HETATM   10  N   UNL     1      -9.253  12.490  66.729  1.00  0.00    -0.214 NA 
HETATM   11  C   UNL     1     -12.127  11.846  63.767  1.00  0.00    -0.547 C  
HETATM   12  C   UNL     1     -10.072  12.306  65.748  1.00  0.00    -0.252 C  
HETATM   13  C   UNL     1     -11.983  13.244  64.341  1.00  0.00    -0.459 C  
HETATM   14  H   UNL     1     -11.932  12.627  67.513  1.00  0.00     0.000 HD 
ENDROOT
BRANCH   3  15
HETATM   15  C   UNL     1      -6.555   9.912  65.855  1.00  0.00    -0.091 C  
BRANCH  15  16
HETATM   16  C   UNL     1      -6.781   8.521  66.510  1.00  0.00    -0.067 C  
BRANCH  16  17
HETATM   17  N   UNL     1      -6.942   8.529  67.974  1.00  0.00    -0.073 NA 
HETATM   18  C   UNL     1      -9.000   7.145  68.184  1.00  0.00    -0.128 C  
HETATM   19  C   UNL     1      -6.807   6.075  68.732  1.00  0.00    -0.066 C  
HETATM   20  C   UNL     1      -8.334   8.496  68.429  1.00  0.00    -0.124 C  
HETATM   21  C   UNL     1      -8.314   6.065  69.032  1.00  0.00    -0.111 C  
HETATM   22  C   UNL     1      -6.163   7.474  68.658  1.00  0.00    -0.032 C  
BRANCH  21  23
HETATM   23  C   UNL     1      -8.742   6.239  70.468  1.00  0.00    -0.143 A  
HETATM   24  N   UNL     1      -7.875   6.209  71.489  1.00  0.00    -0.101 NA 
HETATM   25  O   UNL     1      -8.548   6.755  72.573  1.00  0.00    -0.123 OA 
HETATM   26  C   UNL     1      -9.818   7.079  72.208  1.00  0.00    -0.153 A  
HETATM   27  C   UNL     1     -10.023   6.693  70.896  1.00  0.00    -0.204 A  
HETATM   28  C   UNL     1     -11.281   6.921  70.306  1.00  0.00    -0.363 A  
HETATM   29  C   UNL     1     -12.268   7.553  71.072  1.00  0.00    -0.288 A  
HETATM   30  C   UNL     1     -11.999   7.959  72.379  1.00  0.00    -0.320 A  
HETATM   31  C   UNL     1     -10.767   7.729  72.991  1.00  0.00    -0.446 A  
HETATM   32  F   UNL     1     -12.955   8.600  73.063  1.00  0.00    -0.374 F  
ENDBRANCH  21  23
ENDBRANCH  16  17
ENDBRANCH  15  16
ENDBRANCH   3  15
TORSDOF 4
ENDMDL
MODEL      122
REMARK 921   NORMALIZED FREE ENERGY PREDICTED BY IDOCK:   -5.78 KCAL/MOL
REMARK 922        TOTAL FREE ENERGY PREDICTED BY IDOCK:   -7.41 KCAL/MOL
REMARK 923 INTER-LIGAND FREE ENERGY PREDICTED BY IDOCK:   -6.87 KCAL/MOL
REMARK 924 INTRA-LIGAND FREE ENERGY PREDICTED BY IDOCK:   -0.54 KCAL/MOL
REMARK 927      BINDING AFFINITY PREDICTED BY RF-SCORE:    0.00 PKD
ROOT
HETATM    1  C   UNL     1     -11.122   6.455  67.979  1.00  0.00    -0.365 C  
HETATM    2  C   UNL     1     -10.090   6.205  66.911  1.00  0.00    -0.183 C  
HETATM    3  C   UNL     1      -9.025   6.991  66.652  1.00  0.00    -0.157 C  
HETATM    4  C   UNL     1      -8.105   6.534  65.576  1.00  0.00    -0.127 C  
HETATM    5  O   UNL     1      -9.613   2.237  65.267  1.00  0.00    -0.342 OA 
HETATM    6  C   UNL     1      -9.936   3.396  64.504  1.00  0.00    -0.145 C  
HETATM    7  O   UNL     1      -7.121   7.212  65.277  1.00  0.00    -0.057 OA 
HETATM    8  N   UNL     1      -8.418   5.348  64.945  1.00  0.00    -0.149 N  
HETATM    9  C   UNL     1      -7.583   4.985  63.805  1.00  0.00    -0.067 C  
HETATM   10  N   UNL     1     -10.379   5.070  66.200  1.00  0.00    -0.265 NA 
HETATM   11  C   UNL     1      -7.783   3.572  63.289  1.00  0.00    -0.067 C  
HETATM   12  C   UNL     1      -9.583   4.692  65.255  1.00  0.00    -0.151 C  
HETATM   13  C   UNL     1      -9.269   3.297  63.142  1.00  0.00    -0.092 C  
HETATM   14  H   UNL     1     -10.030   2.299  66.119  1.00  0.00     0.000 HD 
ENDROOT
BRANCH   3  15
HETATM   15  C   UNL     1      -8.582   8.245  67.373  1.00  0.00    -0.125 C  
BRANCH  15  16
HETATM   16  C   UNL     1      -9.055   9.571  66.713  1.00  0.00    -0.146 C  
BRANCH  16  17
HETATM   17  N   UNL     1      -9.724  10.523  67.616  1.00  0.00    -0.163 NA 
HETATM   18  C   UNL     1      -9.304  12.644  66.383  1.00  0.00    -0.198 C  
HETATM   19  C   UNL     1     -11.589  11.639  66.239  1.00  0.00    -0.120 C  
HETATM   20  C   UNL     1      -9.099  11.847  67.668  1.00  0.00    -0.179 C  
HETATM   21  C   UNL     1     -10.795  12.954  66.194  1.00  0.00    -0.300 C  
HETATM   22  C   UNL     1     -11.173  10.660  67.356  1.00  0.00    -0.205 C  
BRANCH  21  23
HETATM   23  C   UNL     1     -11.187  14.039  67.166  1.00  0.00    -0.313 A  
HETATM   24  N   UNL     1     -11.749  13.778  68.354  1.00  0.00    -0.338 NA 
HETATM   25  O   UNL     1     -11.629  14.945  69.095  1.00  0.00    -0.275 OA 
HETATM   26  C   UNL     1     -11.027  15.906  68.342  1.00  0.00    -0.331 A  
HETATM   27  C   UNL     1     -10.800  15.408  67.071  1.00  0.00    -0.320 A  
HETATM   28  C   UNL     1     -10.192  16.239  66.111  1.00  0.00    -0.361 A  
HETATM   29  C   UNL     1      -9.823  17.534  66.493  1.00  0.00    -0.315 A  
HETATM   30  C   UNL     1     -10.038  17.976  67.798  1.00  0.00    -0.353 A  
HETATM   31  C   UNL     1     -10.653  17.178  68.763  1.00  0.00    -0.336 A  
HETATM   32  F   UNL     1      -9.629  19.206  68.137  1.00  0.00    -0.328 F  
ENDBRANCH  21  23
ENDBRANCH  16  17
ENDBRANCH  15  16
ENDBRANCH   3  15
TORSDOF 4
ENDMDL
MODEL      123
REMARK 921   NORMALIZED FREE ENERGY PREDICTED BY IDOCK:   -5.78 KCAL/MOL
REMARK 922        TOTAL FREE ENERGY PREDICTED BY IDOCK:   -7.41 KCAL/MOL
REMARK 923 INTER-LIGAND FREE ENERGY PREDICTED BY IDOCK:   -6.79 KCAL/MOL
REMARK 924 INTRA-LIGAND FREE ENERGY PREDICTED BY IDOCK:   -0.62 KCAL/MOL
REMARK 927      BINDING AFFINITY PREDICTED BY RF-SCORE:    0.00 PKD
ROOT
HETATM    1  C   UNL     1      -8.514   8.230  72.692  1.00  0.00    -0.248 C  
HETATM    2  C   UNL     1      -8.781   6.927  71.985  1.00  0.00    -0.125 C  
HETATM    3  C   UNL     1      -8.728   6.735  70.651  1.00  0.00    -0.143 C  
HETATM    4  C   UNL     1      -8.988   5.353  70.165  1.00  0.00    -0.134 C  
HETATM    5  O   UNL     1      -8.540   3.206  74.168  1.00  0.00    -0.075 OA 
HETATM    6  C   UNL     1      -9.700   3.668  73.483  1.00  0.00    -0.107 C  
HETATM    7  O   UNL     1      -8.972   5.110  68.958  1.00  0.00    -0.098 OA 
HETATM    8  N   UNL     1      -9.252   4.392  71.120  1.00  0.00    -0.129 N  
HETATM    9  C   UNL     1      -9.636   3.076  70.620  1.00  0.00    -0.131 C  
HETATM   10  N   UNL     1      -9.115   5.940  72.875  1.00  0.00    -0.123 NA 
HETATM   11  C   UNL     1      -9.677   1.980  71.668  1.00  0.00    -0.215 C  
HETATM   12  C   UNL     1      -9.357   4.748  72.441  1.00  0.00    -0.130 C  
HETATM   13  C   UNL     1     -10.434   2.478  72.886  1.00  0.00    -0.240 C  
HETATM   14  H   UNL     1      -8.081   3.949  74.541  1.00  0.00     0.000 HD 
ENDROOT
BRANCH   3  15
HETATM   15  C   UNL     1      -8.351   7.724  69.571  1.00  0.00    -0.129 C  
BRANCH  15  16
HETATM   16  C   UNL     1      -9.527   8.601  69.057  1.00  0.00    -0.153 C  
BRANCH  16  17
HETATM   17  N   UNL     1      -9.629   9.940  69.661  1.00  0.00    -0.216 NA 
HETATM   18  C   UNL     1     -11.013  11.081  67.934  1.00  0.00    -0.317 C  
HETATM   19  C   UNL     1     -12.135  10.370  70.053  1.00  0.00    -0.297 C  
HETATM   20  C   UNL     1      -9.689  11.037  68.691  1.00  0.00    -0.195 C  
HETATM   21  C   UNL     1     -12.159  11.393  68.907  1.00  0.00    -0.285 C  
HETATM   22  C   UNL     1     -10.738  10.066  70.631  1.00  0.00    -0.254 C  
BRANCH  21  23
HETATM   23  C   UNL     1     -12.091  12.855  69.274  1.00  0.00    -0.182 A  
HETATM   24  N   UNL     1     -12.050  13.280  70.544  1.00  0.00    -0.345 NA 
HETATM   25  O   UNL     1     -11.632  14.602  70.487  1.00  0.00    -0.277 OA 
HETATM   26  C   UNL     1     -11.455  14.971  69.189  1.00  0.00    -0.301 A  
HETATM   27  C   UNL     1     -11.816  13.919  68.367  1.00  0.00    -0.409 A  
HETATM   28  C   UNL     1     -11.725  14.081  66.971  1.00  0.00    -0.425 A  
HETATM   29  C   UNL     1     -11.250  15.301  66.475  1.00  0.00    -0.228 A  
HETATM   30  C   UNL     1     -10.861  16.318  67.347  1.00  0.00    -0.242 A  
HETATM   31  C   UNL     1     -10.958  16.188  68.732  1.00  0.00    -0.330 A  
HETATM   32  F   UNL     1     -10.369  17.453  66.833  1.00  0.00    -0.302 F  
ENDBRANCH  21  23
ENDBRANCH  16  17
ENDBRANCH  15  16
ENDBRANCH   3  15
TORSDOF 4
ENDMDL
MODEL      124
REMARK 921   NORMALIZED FREE ENERGY PREDICTED BY IDOCK:   -5.75 KCAL/MOL
REMARK 922        TOTAL FREE ENERGY PREDICTED BY IDOCK:   -7.37 KCAL/MOL
REMARK 923 INTER-LIGAND FREE ENERGY PREDICTED BY IDOCK:   -6.88 KCAL/MOL
REMARK 924 INTRA-LIGAND FREE ENERGY PREDICTED BY IDOCK:   -0.49 KCAL/MOL
REMARK 927      BINDING AFFINITY PREDICTED BY RF-SCORE:    0.00 PKD
ROOT
HETATM    1  C   UNL     1     -10.098   9.397  70.773  1.00  0.00    -0.366 C  
HETATM    2  C   UNL     1      -9.670   8.882  69.424  1.00  0.00    -0.169 C  
HETATM    3  C   UNL     1      -8.926   9.561  68.526  1.00  0.00    -0.128 C  
HETATM    4  C   UNL     1      -8.581   8.845  67.268  1.00  0.00    -0.118 C  
HETATM    5  O   UNL     1      -9.665   4.631  68.647  1.00  0.00    -0.155 OA 
HETATM    6  C   UNL     1     -10.411   5.589  67.901  1.00  0.00    -0.178 C  
HETATM    7  O   UNL     1      -7.918   9.411  66.399  1.00  0.00    -0.106 OA 
HETATM    8  N   UNL     1      -9.045   7.553  67.135  1.00  0.00    -0.124 N  
HETATM    9  C   UNL     1      -8.813   6.916  65.843  1.00  0.00    -0.105 C  
HETATM   10  N   UNL     1     -10.155   7.620  69.198  1.00  0.00    -0.189 NA 
HETATM   11  C   UNL     1      -9.105   5.427  65.801  1.00  0.00    -0.160 C  
HETATM   12  C   UNL     1      -9.866   7.015  68.095  1.00  0.00    -0.139 C  
HETATM   13  C   UNL     1     -10.455   5.161  66.443  1.00  0.00    -0.356 C  
HETATM   14  H   UNL     1      -9.638   4.898  69.559  1.00  0.00     0.000 HD 
ENDROOT
BRANCH   3  15
HETATM   15  C   UNL     1      -8.311  10.936  68.660  1.00  0.00    -0.148 C  
BRANCH  15  16
HETATM   16  C   UNL     1      -9.232  12.103  68.203  1.00  0.00    -0.197 C  
BRANCH  16  17
HETATM   17  N   UNL     1      -8.545  13.239  67.567  1.00  0.00    -0.188 NA 
HETATM   18  C   UNL     1      -9.667  15.126  68.740  1.00  0.00    -0.221 C  
HETATM   19  C   UNL     1      -7.350  14.514  69.456  1.00  0.00    -0.063 C  
HETATM   20  C   UNL     1      -9.374  14.436  67.411  1.00  0.00    -0.199 C  
HETATM   21  C   UNL     1      -8.363  15.664  69.346  1.00  0.00    -0.238 C  
HETATM   22  C   UNL     1      -7.266  13.594  68.220  1.00  0.00    -0.111 C  
BRANCH  21  23
HETATM   23  C   UNL     1      -7.945  16.891  68.573  1.00  0.00    -0.242 A  
HETATM   24  N   UNL     1      -6.704  17.059  68.099  1.00  0.00    -0.148 NA 
HETATM   25  O   UNL     1      -6.791  18.081  67.164  1.00  0.00    -0.181 OA 
HETATM   26  C   UNL     1      -8.070  18.540  67.105  1.00  0.00    -0.243 A  
HETATM   27  C   UNL     1      -8.834  17.873  68.045  1.00  0.00    -0.268 A  
HETATM   28  C   UNL     1     -10.198  18.196  68.171  1.00  0.00    -0.400 A  
HETATM   29  C   UNL     1     -10.731  19.171  67.319  1.00  0.00    -0.585 A  
HETATM   30  C   UNL     1      -9.927  19.787  66.360  1.00  0.00    -0.470 A  
HETATM   31  C   UNL     1      -8.570  19.496  66.226  1.00  0.00    -0.382 A  
HETATM   32  F   UNL     1     -10.484  20.682  65.532  1.00  0.00    -0.308 F  
ENDBRANCH  21  23
ENDBRANCH  16  17
ENDBRANCH  15  16
ENDBRANCH   3  15
TORSDOF 4
ENDMDL
MODEL      125
REMARK 921   NORMALIZED FREE ENERGY PREDICTED BY IDOCK:   -5.75 KCAL/MOL
REMARK 922        TOTAL FREE ENERGY PREDICTED BY IDOCK:   -7.37 KCAL/MOL
REMARK 923 INTER-LIGAND FREE ENERGY PREDICTED BY IDOCK:   -7.00 KCAL/MOL
REMARK 924 INTRA-LIGAND FREE ENERGY PREDICTED BY IDOCK:   -0.37 KCAL/MOL
REMARK 927      BINDING AFFINITY PREDICTED BY RF-SCORE:    0.00 PKD
ROOT
HETATM    1  C   UNL     1     -10.723   6.712  66.975  1.00  0.00    -0.437 C  
HETATM    2  C   UNL     1      -9.487   6.046  66.430  1.00  0.00    -0.150 C  
HETATM    3  C   UNL     1      -8.238   6.552  66.480  1.00  0.00    -0.113 C  
HETATM    4  C   UNL     1      -7.152   5.706  65.916  1.00  0.00    -0.067 C  
HETATM    5  O   UNL     1      -9.481   1.786  65.707  1.00  0.00    -0.329 OA 
HETATM    6  C   UNL     1      -9.230   2.775  64.713  1.00  0.00    -0.143 C  
HETATM    7  O   UNL     1      -5.990   6.114  65.915  1.00  0.00    -0.027 OA 
HETATM    8  N   UNL     1      -7.517   4.479  65.400  1.00  0.00    -0.079 N  
HETATM    9  C   UNL     1      -6.464   3.723  64.731  1.00  0.00    -0.035 C  
HETATM   10  N   UNL     1      -9.790   4.846  65.841  1.00  0.00    -0.184 NA 
HETATM   11  C   UNL     1      -6.821   2.287  64.396  1.00  0.00    -0.042 C  
HETATM   12  C   UNL     1      -8.842   4.127  65.337  1.00  0.00    -0.124 C  
HETATM   13  C   UNL     1      -8.189   2.250  63.738  1.00  0.00    -0.081 C  
HETATM   14  H   UNL     1     -10.132   2.114  66.316  1.00  0.00     0.000 HD 
ENDROOT
BRANCH   3  15
HETATM   15  C   UNL     1      -7.768   7.841  67.117  1.00  0.00    -0.105 C  
BRANCH  15  16
HETATM   16  C   UNL     1      -8.508   8.219  68.431  1.00  0.00    -0.129 C  
BRANCH  16  17
HETATM   17  N   UNL     1      -8.655   9.663  68.682  1.00  0.00    -0.118 NA 
HETATM   18  C   UNL     1     -10.403  10.212  66.997  1.00  0.00    -0.303 C  
HETATM   19  C   UNL     1     -11.100  10.031  69.393  1.00  0.00    -0.265 C  
HETATM   20  C   UNL     1      -8.980  10.453  67.492  1.00  0.00    -0.135 C  
HETATM   21  C   UNL     1     -11.410  10.705  68.047  1.00  0.00    -0.350 C  
HETATM   22  C   UNL     1      -9.605   9.978  69.770  1.00  0.00    -0.216 C  
BRANCH  21  23
HETATM   23  C   UNL     1     -11.440  12.213  68.011  1.00  0.00    -0.319 A  
HETATM   24  N   UNL     1     -11.023  12.968  69.036  1.00  0.00    -0.228 NA 
HETATM   25  O   UNL     1     -10.855  14.246  68.521  1.00  0.00    -0.238 OA 
HETATM   26  C   UNL     1     -11.200  14.258  67.204  1.00  0.00    -0.322 A  
HETATM   27  C   UNL     1     -11.663  13.004  66.847  1.00  0.00    -0.441 A  
HETATM   28  C   UNL     1     -12.090  12.786  65.523  1.00  0.00    -0.517 A  
HETATM   29  C   UNL     1     -12.008  13.849  64.616  1.00  0.00    -0.443 A  
HETATM   30  C   UNL     1     -11.497  15.084  65.016  1.00  0.00    -0.364 A  
HETATM   31  C   UNL     1     -11.083  15.330  66.325  1.00  0.00    -0.273 A  
HETATM   32  F   UNL     1     -11.392  16.062  64.106  1.00  0.00    -0.424 F  
ENDBRANCH  21  23
ENDBRANCH  16  17
ENDBRANCH  15  16
ENDBRANCH   3  15
TORSDOF 4
ENDMDL
MODEL      126
REMARK 921   NORMALIZED FREE ENERGY PREDICTED BY IDOCK:   -5.74 KCAL/MOL
REMARK 922        TOTAL FREE ENERGY PREDICTED BY IDOCK:   -7.36 KCAL/MOL
REMARK 923 INTER-LIGAND FREE ENERGY PREDICTED BY IDOCK:   -6.90 KCAL/MOL
REMARK 924 INTRA-LIGAND FREE ENERGY PREDICTED BY IDOCK:   -0.46 KCAL/MOL
REMARK 927      BINDING AFFINITY PREDICTED BY RF-SCORE:    0.00 PKD
ROOT
HETATM    1  C   UNL     1      -8.921   7.582  68.686  1.00  0.00    -0.132 C  
HETATM    2  C   UNL     1      -9.908   8.561  69.266  1.00  0.00    -0.185 C  
HETATM    3  C   UNL     1      -9.992   9.869  68.948  1.00  0.00    -0.188 C  
HETATM    4  C   UNL     1     -11.072  10.648  69.612  1.00  0.00    -0.284 C  
HETATM    5  O   UNL     1     -13.519   7.115  71.148  1.00  0.00    -0.516 OA 
HETATM    6  C   UNL     1     -12.537   7.919  71.794  1.00  0.00    -0.328 C  
HETATM    7  O   UNL     1     -11.196  11.851  69.380  1.00  0.00    -0.245 OA 
HETATM    8  N   UNL     1     -11.892   9.965  70.486  1.00  0.00    -0.276 N  
HETATM    9  C   UNL     1     -12.856  10.770  71.228  1.00  0.00    -0.438 C  
HETATM   10  N   UNL     1     -10.716   7.958  70.195  1.00  0.00    -0.242 NA 
HETATM   11  C   UNL     1     -13.904   9.977  71.986  1.00  0.00    -0.124 C  
HETATM   12  C   UNL     1     -11.638   8.648  70.780  1.00  0.00    -0.242 C  
HETATM   13  C   UNL     1     -13.226   8.864  72.765  1.00  0.00    -0.226 C  
HETATM   14  H   UNL     1     -13.088   6.524  70.541  1.00  0.00     0.000 HD 
ENDROOT
BRANCH   3  15
HETATM   15  C   UNL     1      -9.187  10.645  67.931  1.00  0.00    -0.150 C  
BRANCH  15  16
HETATM   16  C   UNL     1      -7.871  11.263  68.483  1.00  0.00    -0.138 C  
BRANCH  16  17
HETATM   17  N   UNL     1      -7.383  12.454  67.768  1.00  0.00    -0.110 NA 
HETATM   18  C   UNL     1      -8.909  14.176  68.718  1.00  0.00    -0.061 C  
HETATM   19  C   UNL     1      -6.559  14.095  69.571  1.00  0.00    -0.124 C  
HETATM   20  C   UNL     1      -8.418  13.447  67.470  1.00  0.00    -0.192 C  
HETATM   21  C   UNL     1      -7.767  15.010  69.317  1.00  0.00    -0.194 C  
HETATM   22  C   UNL     1      -6.234  13.108  68.431  1.00  0.00    -0.083 C  
BRANCH  21  23
HETATM   23  C   UNL     1      -7.553  16.225  68.448  1.00  0.00    -0.166 A  
HETATM   24  N   UNL     1      -8.239  16.434  67.317  1.00  0.00    -0.160 NA 
HETATM   25  O   UNL     1      -8.049  17.773  67.002  1.00  0.00    -0.208 OA 
HETATM   26  C   UNL     1      -7.230  18.348  67.923  1.00  0.00    -0.229 A  
HETATM   27  C   UNL     1      -6.814  17.384  68.824  1.00  0.00    -0.228 A  
HETATM   28  C   UNL     1      -5.942  17.754  69.866  1.00  0.00    -0.216 A  
HETATM   29  C   UNL     1      -5.550  19.094  69.959  1.00  0.00    -0.256 A  
HETATM   30  C   UNL     1      -6.028  20.037  69.049  1.00  0.00    -0.283 A  
HETATM   31  C   UNL     1      -6.879  19.693  67.998  1.00  0.00    -0.288 A  
HETATM   32  F   UNL     1      -5.666  21.318  69.198  1.00  0.00    -0.386 F  
ENDBRANCH  21  23
ENDBRANCH  16  17
ENDBRANCH  15  16
ENDBRANCH   3  15
TORSDOF 4
ENDMDL
MODEL      127
REMARK 921   NORMALIZED FREE ENERGY PREDICTED BY IDOCK:   -5.74 KCAL/MOL
REMARK 922        TOTAL FREE ENERGY PREDICTED BY IDOCK:   -7.36 KCAL/MOL
REMARK 923 INTER-LIGAND FREE ENERGY PREDICTED BY IDOCK:   -6.96 KCAL/MOL
REMARK 924 INTRA-LIGAND FREE ENERGY PREDICTED BY IDOCK:   -0.40 KCAL/MOL
REMARK 927      BINDING AFFINITY PREDICTED BY RF-SCORE:    0.00 PKD
ROOT
HETATM    1  C   UNL     1      -6.626   4.309  70.561  1.00  0.00    -0.032 C  
HETATM    2  C   UNL     1      -7.399   4.635  69.310  1.00  0.00    -0.052 C  
HETATM    3  C   UNL     1      -8.742   4.724  69.220  1.00  0.00    -0.106 C  
HETATM    4  C   UNL     1      -9.297   5.100  67.892  1.00  0.00    -0.120 C  
HETATM    5  O   UNL     1      -5.420   6.603  66.011  1.00  0.00    -0.017 OA 
HETATM    6  C   UNL     1      -6.067   5.337  65.927  1.00  0.00    -0.033 C  
HETATM    7  O   UNL     1     -10.516   5.183  67.735  1.00  0.00    -0.137 OA 
HETATM    8  N   UNL     1      -8.393   5.330  66.876  1.00  0.00    -0.108 N  
HETATM    9  C   UNL     1      -8.958   5.565  65.552  1.00  0.00    -0.126 C  
HETATM   10  N   UNL     1      -6.559   4.813  68.242  1.00  0.00    -0.041 NA 
HETATM   11  C   UNL     1      -7.969   6.059  64.512  1.00  0.00    -0.127 C  
HETATM   12  C   UNL     1      -7.053   5.120  67.089  1.00  0.00    -0.069 C  
HETATM   13  C   UNL     1      -6.718   5.200  64.561  1.00  0.00    -0.047 C  
HETATM   14  H   UNL     1      -5.012   6.689  66.866  1.00  0.00     0.000 HD 
ENDROOT
BRANCH   3  15
HETATM   15  C   UNL     1      -9.771   4.578  70.318  1.00  0.00    -0.287 C  
BRANCH  15  16
HETATM   16  C   UNL     1      -9.714   5.683  71.410  1.00  0.00    -0.162 C  
BRANCH  16  17
HETATM   17  N   UNL     1     -10.964   6.431  71.620  1.00  0.00    -0.247 NA 
HETATM   18  C   UNL     1     -10.052   8.739  71.810  1.00  0.00    -0.403 C  
HETATM   19  C   UNL     1     -11.155   8.089  69.661  1.00  0.00    -0.021 C  
HETATM   20  C   UNL     1     -10.827   7.608  72.481  1.00  0.00    -0.314 C  
HETATM   21  C   UNL     1     -10.839   9.264  70.600  1.00  0.00    -0.339 C  
HETATM   22  C   UNL     1     -11.645   6.805  70.361  1.00  0.00    -0.367 C  
BRANCH  21  23
HETATM   23  C   UNL     1     -11.999  10.088  71.103  1.00  0.00    -0.392 A  
HETATM   24  N   UNL     1     -12.826   9.660  72.065  1.00  0.00    -0.406 NA 
HETATM   25  O   UNL     1     -13.509  10.785  72.505  1.00  0.00    -0.057 OA 
HETATM   26  C   UNL     1     -13.113  11.871  71.787  1.00  0.00    -0.360 A  
HETATM   27  C   UNL     1     -12.211  11.468  70.819  1.00  0.00    -0.463 A  
HETATM   28  C   UNL     1     -11.673  12.431  69.944  1.00  0.00    -0.339 A  
HETATM   29  C   UNL     1     -12.061  13.766  70.107  1.00  0.00    -0.429 A  
HETATM   30  C   UNL     1     -12.944  14.128  71.124  1.00  0.00    -0.349 A  
HETATM   31  C   UNL     1     -13.503  13.191  71.993  1.00  0.00    -0.598 A  
HETATM   32  F   UNL     1     -13.255  15.422  71.277  1.00  0.00    -0.406 F  
ENDBRANCH  21  23
ENDBRANCH  16  17
ENDBRANCH  15  16
ENDBRANCH   3  15
TORSDOF 4
ENDMDL
MODEL      128
REMARK 921   NORMALIZED FREE ENERGY PREDICTED BY IDOCK:   -5.71 KCAL/MOL
REMARK 922        TOTAL FREE ENERGY PREDICTED BY IDOCK:   -7.31 KCAL/MOL
REMARK 923 INTER-LIGAND FREE ENERGY PREDICTED BY IDOCK:   -6.52 KCAL/MOL
REMARK 924 INTRA-LIGAND FREE ENERGY PREDICTED BY IDOCK:   -0.79 KCAL/MOL
REMARK 927      BINDING AFFINITY PREDICTED BY RF-SCORE:    0.00 PKD
ROOT
HETATM    1  C   UNL     1     -10.643   6.052  67.624  1.00  0.00    -0.336 C  
HETATM    2  C   UNL     1      -9.379   6.796  67.283  1.00  0.00    -0.134 C  
HETATM    3  C   UNL     1      -8.558   7.395  68.170  1.00  0.00    -0.123 C  
HETATM    4  C   UNL     1      -7.337   8.042  67.618  1.00  0.00    -0.093 C  
HETATM    5  O   UNL     1      -7.430   6.097  63.490  1.00  0.00    -0.065 OA 
HETATM    6  C   UNL     1      -7.904   7.365  63.934  1.00  0.00    -0.117 C  
HETATM    7  O   UNL     1      -6.553   8.621  68.370  1.00  0.00    -0.058 OA 
HETATM    8  N   UNL     1      -7.150   7.965  66.253  1.00  0.00    -0.062 N  
HETATM    9  C   UNL     1      -6.021   8.718  65.715  1.00  0.00    -0.051 C  
HETATM   10  N   UNL     1      -9.166   6.815  65.928  1.00  0.00    -0.034 NA 
HETATM   11  C   UNL     1      -5.687   8.422  64.265  1.00  0.00    -0.064 C  
HETATM   12  C   UNL     1      -8.112   7.395  65.458  1.00  0.00    -0.131 C  
HETATM   13  C   UNL     1      -6.962   8.450  63.440  1.00  0.00    -0.089 C  
HETATM   14  H   UNL     1      -8.019   5.418  63.798  1.00  0.00     0.000 HD 
ENDROOT
BRANCH   3  15
HETATM   15  C   UNL     1      -8.663   7.426  69.678  1.00  0.00    -0.137 C  
BRANCH  15  16
HETATM   16  C   UNL     1      -9.954   8.099  70.223  1.00  0.00    -0.189 C  
BRANCH  16  17
HETATM   17  N   UNL     1      -9.907   9.567  70.330  1.00  0.00    -0.246 NA 
HETATM   18  C   UNL     1     -10.985  10.186  68.174  1.00  0.00    -0.313 C  
HETATM   19  C   UNL     1     -12.347  10.378  70.263  1.00  0.00    -0.327 C  
HETATM   20  C   UNL     1      -9.739  10.261  69.051  1.00  0.00    -0.205 C  
HETATM   21  C   UNL     1     -12.142  10.939  68.847  1.00  0.00    -0.186 C  
HETATM   22  C   UNL     1     -11.053  10.141  71.067  1.00  0.00    -0.171 C  
BRANCH  21  23
HETATM   23  C   UNL     1     -11.892  12.421  68.712  1.00  0.00    -0.311 A  
HETATM   24  N   UNL     1     -11.512  13.186  69.743  1.00  0.00    -0.198 NA 
HETATM   25  O   UNL     1     -11.038  14.365  69.184  1.00  0.00    -0.248 OA 
HETATM   26  C   UNL     1     -11.163  14.314  67.830  1.00  0.00    -0.291 A  
HETATM   27  C   UNL     1     -11.783  13.128  67.478  1.00  0.00    -0.414 A  
HETATM   28  C   UNL     1     -12.029  12.863  66.118  1.00  0.00    -0.491 A  
HETATM   29  C   UNL     1     -11.614  13.809  65.172  1.00  0.00    -0.341 A  
HETATM   30  C   UNL     1     -10.958  14.972  65.575  1.00  0.00    -0.358 A  
HETATM   31  C   UNL     1     -10.717  15.265  66.918  1.00  0.00    -0.313 A  
HETATM   32  F   UNL     1     -10.536  15.830  64.637  1.00  0.00    -0.425 F  
ENDBRANCH  21  23
ENDBRANCH  16  17
ENDBRANCH  15  16
ENDBRANCH   3  15
TORSDOF 4
ENDMDL
MODEL      129
REMARK 921   NORMALIZED FREE ENERGY PREDICTED BY IDOCK:   -5.70 KCAL/MOL
REMARK 922        TOTAL FREE ENERGY PREDICTED BY IDOCK:   -7.31 KCAL/MOL
REMARK 923 INTER-LIGAND FREE ENERGY PREDICTED BY IDOCK:   -6.66 KCAL/MOL
REMARK 924 INTRA-LIGAND FREE ENERGY PREDICTED BY IDOCK:   -0.66 KCAL/MOL
REMARK 927      BINDING AFFINITY PREDICTED BY RF-SCORE:    0.00 PKD
ROOT
HETATM    1  C   UNL     1     -13.300  10.215  71.424  1.00  0.00    -0.413 C  
HETATM    2  C   UNL     1     -12.661  11.475  70.901  1.00  0.00    -0.341 C  
HETATM    3  C   UNL     1     -11.889  11.562  69.798  1.00  0.00    -0.429 C  
HETATM    4  C   UNL     1     -11.391  12.917  69.438  1.00  0.00    -0.201 C  
HETATM    5  O   UNL     1     -14.194  15.329  72.114  1.00  0.00    -0.503 OA 
HETATM    6  C   UNL     1     -12.855  14.889  72.323  1.00  0.00    -0.333 C  
HETATM    7  O   UNL     1     -10.669  13.066  68.452  1.00  0.00    -0.241 OA 
HETATM    8  N   UNL     1     -11.767  13.961  70.257  1.00  0.00    -0.258 N  
HETATM    9  C   UNL     1     -11.162  15.257  69.967  1.00  0.00    -0.287 C  
HETATM   10  N   UNL     1     -12.942  12.546  71.710  1.00  0.00    -0.357 NA 
HETATM   11  C   UNL     1     -11.772  16.430  70.712  1.00  0.00    -0.077 C  
HETATM   12  C   UNL     1     -12.489  13.714  71.398  1.00  0.00    -0.285 C  
HETATM   13  C   UNL     1     -11.913  16.073  72.181  1.00  0.00    -0.629 C  
HETATM   14  H   UNL     1     -14.783  14.588  72.203  1.00  0.00     0.000 HD 
ENDROOT
BRANCH   3  15
HETATM   15  C   UNL     1     -11.527  10.473  68.814  1.00  0.00    -0.291 C  
BRANCH  15  16
HETATM   16  C   UNL     1     -10.394   9.521  69.290  1.00  0.00    -0.208 C  
BRANCH  16  17
HETATM   17  N   UNL     1     -10.641   8.085  69.075  1.00  0.00    -0.193 NA 
HETATM   18  C   UNL     1      -8.307   7.229  69.199  1.00  0.00    -0.132 C  
HETATM   19  C   UNL     1      -9.790   6.880  71.182  1.00  0.00    -0.184 C  
HETATM   20  C   UNL     1      -9.570   7.389  68.358  1.00  0.00    -0.148 C  
HETATM   21  C   UNL     1      -8.593   6.316  70.400  1.00  0.00    -0.142 C  
HETATM   22  C   UNL     1     -10.975   7.353  70.315  1.00  0.00    -0.255 C  
BRANCH  21  23
HETATM   23  C   UNL     1      -8.687   4.893  69.909  1.00  0.00    -0.093 A  
HETATM   24  N   UNL     1      -9.818   4.179  69.975  1.00  0.00    -0.216 NA 
HETATM   25  O   UNL     1      -9.631   3.096  69.127  1.00  0.00    -0.149 OA 
HETATM   26  C   UNL     1      -8.385   3.149  68.584  1.00  0.00    -0.065 A  
HETATM   27  C   UNL     1      -7.706   4.231  69.115  1.00  0.00    -0.054 A  
HETATM   28  C   UNL     1      -6.382   4.476  68.702  1.00  0.00    -0.036 A  
HETATM   29  C   UNL     1      -5.815   3.620  67.751  1.00  0.00    -0.023 A  
HETATM   30  C   UNL     1      -6.555   2.565  67.216  1.00  0.00    -0.036 A  
HETATM   31  C   UNL     1      -7.862   2.292  67.620  1.00  0.00    -0.060 A  
HETATM   32  F   UNL     1      -5.992   1.796  66.274  1.00  0.00    -0.016 F  
ENDBRANCH  21  23
ENDBRANCH  16  17
ENDBRANCH  15  16
ENDBRANCH   3  15
TORSDOF 4
ENDMDL
MODEL      130
REMARK 921   NORMALIZED FREE ENERGY PREDICTED BY IDOCK:   -5.69 KCAL/MOL
REMARK 922        TOTAL FREE ENERGY PREDICTED BY IDOCK:   -7.30 KCAL/MOL
REMARK 923 INTER-LIGAND FREE ENERGY PREDICTED BY IDOCK:   -7.08 KCAL/MOL
REMARK 924 INTRA-LIGAND FREE ENERGY PREDICTED BY IDOCK:   -0.22 KCAL/MOL
REMARK 927      BINDING AFFINITY PREDICTED BY RF-SCORE:    0.00 PKD
ROOT
HETATM    1  C   UNL     1     -10.445  16.246  67.630  1.00  0.00    -0.295 C  
HETATM    2  C   UNL     1     -10.992  15.172  68.534  1.00  0.00    -0.262 C  
HETATM    3  C   UNL     1     -10.662  13.865  68.486  1.00  0.00    -0.268 C  
HETATM    4  C   UNL     1     -11.292  12.981  69.503  1.00  0.00    -0.155 C  
HETATM    5  O   UNL     1     -12.789  16.252  72.313  1.00  0.00    -0.430 OA 
HETATM    6  C   UNL     1     -13.455  15.537  71.275  1.00  0.00    -0.480 C  
HETATM    7  O   UNL     1     -11.048  11.774  69.506  1.00  0.00    -0.218 OA 
HETATM    8  N   UNL     1     -12.149  13.575  70.407  1.00  0.00    -0.351 N  
HETATM    9  C   UNL     1     -12.859  12.674  71.308  1.00  0.00    -0.250 C  
HETATM   10  N   UNL     1     -11.904  15.687  69.419  1.00  0.00    -0.376 NA 
HETATM   11  C   UNL     1     -13.596  13.357  72.446  1.00  0.00    -0.708 C  
HETATM   12  C   UNL     1     -12.459  14.907  70.286  1.00  0.00    -0.336 C  
HETATM   13  C   UNL     1     -14.400  14.522  71.896  1.00  0.00    -0.647 C  
HETATM   14  H   UNL     1     -12.198  16.887  71.925  1.00  0.00     0.000 HD 
ENDROOT
BRANCH   3  15
HETATM   15  C   UNL     1      -9.661  13.179  67.585  1.00  0.00    -0.210 C  
BRANCH  15  16
HETATM   16  C   UNL     1     -10.291  12.291  66.475  1.00  0.00    -0.227 C  
BRANCH  16  17
HETATM   17  N   UNL     1      -9.376  11.330  65.837  1.00  0.00    -0.214 NA 
HETATM   18  C   UNL     1      -8.684  10.014  67.833  1.00  0.00    -0.125 C  
HETATM   19  C   UNL     1     -10.357   8.993  66.279  1.00  0.00    -0.130 C  
HETATM   20  C   UNL     1      -8.252  10.915  66.680  1.00  0.00    -0.145 C  
HETATM   21  C   UNL     1      -9.232   8.690  67.281  1.00  0.00    -0.167 C  
HETATM   22  C   UNL     1     -10.061  10.139  65.290  1.00  0.00    -0.274 C  
BRANCH  21  23
HETATM   23  C   UNL     1      -8.072   7.854  66.798  1.00  0.00    -0.108 A  
HETATM   24  N   UNL     1      -6.796   8.179  67.042  1.00  0.00    -0.068 NA 
HETATM   25  O   UNL     1      -6.057   7.033  66.781  1.00  0.00    -0.034 OA 
HETATM   26  C   UNL     1      -6.886   6.041  66.355  1.00  0.00    -0.062 A  
HETATM   27  C   UNL     1      -8.174   6.536  66.265  1.00  0.00    -0.119 A  
HETATM   28  C   UNL     1      -9.205   5.681  65.829  1.00  0.00    -0.111 A  
HETATM   29  C   UNL     1      -8.881   4.354  65.523  1.00  0.00    -0.127 A  
HETATM   30  C   UNL     1      -7.573   3.893  65.668  1.00  0.00    -0.082 A  
HETATM   31  C   UNL     1      -6.531   4.724  66.082  1.00  0.00    -0.044 A  
HETATM   32  F   UNL     1      -7.312   2.604  65.409  1.00  0.00    -0.061 F  
ENDBRANCH  21  23
ENDBRANCH  16  17
ENDBRANCH  15  16
ENDBRANCH   3  15
TORSDOF 4
ENDMDL
MODEL      131
REMARK 921   NORMALIZED FREE ENERGY PREDICTED BY IDOCK:   -5.69 KCAL/MOL
REMARK 922        TOTAL FREE ENERGY PREDICTED BY IDOCK:   -7.30 KCAL/MOL
REMARK 923 INTER-LIGAND FREE ENERGY PREDICTED BY IDOCK:   -6.53 KCAL/MOL
REMARK 924 INTRA-LIGAND FREE ENERGY PREDICTED BY IDOCK:   -0.77 KCAL/MOL
REMARK 927      BINDING AFFINITY PREDICTED BY RF-SCORE:    0.00 PKD
ROOT
HETATM    1  C   UNL     1     -12.285  10.573  69.538  1.00  0.00    -0.154 C  
HETATM    2  C   UNL     1     -11.747  11.832  68.909  1.00  0.00    -0.323 C  
HETATM    3  C   UNL     1     -11.132  11.909  67.711  1.00  0.00    -0.295 C  
HETATM    4  C   UNL     1     -10.714  13.264  67.261  1.00  0.00    -0.255 C  
HETATM    5  O   UNL     1     -13.181  15.684  70.243  1.00  0.00    -0.725 OA 
HETATM    6  C   UNL     1     -11.817  15.272  70.278  1.00  0.00    -0.318 C  
HETATM    7  O   UNL     1     -10.133  13.404  66.184  1.00  0.00    -0.289 OA 
HETATM    8  N   UNL     1     -10.998  14.319  68.103  1.00  0.00    -0.240 N  
HETATM    9  C   UNL     1     -10.463  15.618  67.710  1.00  0.00    -0.273 C  
HETATM   10  N   UNL     1     -11.938  12.915  69.728  1.00  0.00    -0.315 NA 
HETATM   11  C   UNL     1     -10.991  16.796  68.507  1.00  0.00    -0.312 C  
HETATM   12  C   UNL     1     -11.555  14.084  69.336  1.00  0.00    -0.297 C  
HETATM   13  C   UNL     1     -10.927  16.470  69.989  1.00  0.00    -0.245 C  
HETATM   14  H   UNL     1     -13.738  14.936  70.424  1.00  0.00     0.000 HD 
ENDROOT
BRANCH   3  15
HETATM   15  C   UNL     1     -10.883  10.805  66.708  1.00  0.00    -0.256 C  
BRANCH  15  16
HETATM   16  C   UNL     1      -9.472  10.158  66.795  1.00  0.00    -0.168 C  
BRANCH  16  17
HETATM   17  N   UNL     1      -9.135   9.546  68.092  1.00  0.00    -0.127 NA 
HETATM   18  C   UNL     1      -9.329   7.139  67.490  1.00  0.00    -0.137 C  
HETATM   19  C   UNL     1      -7.035   8.114  67.693  1.00  0.00    -0.078 C  
HETATM   20  C   UNL     1      -9.829   8.285  68.364  1.00  0.00    -0.172 C  
HETATM   21  C   UNL     1      -7.864   6.827  67.828  1.00  0.00    -0.113 C  
HETATM   22  C   UNL     1      -7.681   9.376  68.301  1.00  0.00    -0.083 C  
BRANCH  21  23
HETATM   23  C   UNL     1      -7.820   6.102  69.150  1.00  0.00    -0.104 A  
HETATM   24  N   UNL     1      -7.508   6.715  70.299  1.00  0.00    -0.092 NA 
HETATM   25  O   UNL     1      -7.918   5.856  71.310  1.00  0.00    -0.109 OA 
HETATM   26  C   UNL     1      -8.444   4.726  70.765  1.00  0.00    -0.101 A  
HETATM   27  C   UNL     1      -8.329   4.792  69.388  1.00  0.00    -0.079 A  
HETATM   28  C   UNL     1      -8.800   3.717  68.611  1.00  0.00    -0.155 A  
HETATM   29  C   UNL     1      -9.388   2.630  69.269  1.00  0.00    -0.188 A  
HETATM   30  C   UNL     1      -9.516   2.628  70.658  1.00  0.00    -0.135 A  
HETATM   31  C   UNL     1      -9.042   3.674  71.451  1.00  0.00    -0.180 A  
HETATM   32  F   UNL     1     -10.125   1.590  71.247  1.00  0.00    -0.208 F  
ENDBRANCH  21  23
ENDBRANCH  16  17
ENDBRANCH  15  16
ENDBRANCH   3  15
TORSDOF 4
ENDMDL
MODEL      132
REMARK 921   NORMALIZED FREE ENERGY PREDICTED BY IDOCK:   -5.67 KCAL/MOL
REMARK 922        TOTAL FREE ENERGY PREDICTED BY IDOCK:   -7.27 KCAL/MOL
REMARK 923 INTER-LIGAND FREE ENERGY PREDICTED BY IDOCK:   -6.70 KCAL/MOL
REMARK 924 INTRA-LIGAND FREE ENERGY PREDICTED BY IDOCK:   -0.57 KCAL/MOL
REMARK 927      BINDING AFFINITY PREDICTED BY RF-SCORE:    0.00 PKD
ROOT
HETATM    1  C   UNL     1      -5.516  13.764  67.842  1.00  0.00    -0.097 C  
HETATM    2  C   UNL     1      -6.930  14.276  67.764  1.00  0.00    -0.177 C  
HETATM    3  C   UNL     1      -8.042  13.543  67.977  1.00  0.00    -0.156 C  
HETATM    4  C   UNL     1      -9.341  14.261  67.889  1.00  0.00    -0.198 C  
HETATM    5  O   UNL     1      -7.701  18.516  68.079  1.00  0.00    -0.253 OA 
HETATM    6  C   UNL     1      -8.069  17.708  66.965  1.00  0.00    -0.222 C  
HETATM    7  O   UNL     1     -10.397  13.649  68.058  1.00  0.00    -0.238 OA 
HETATM    8  N   UNL     1      -9.294  15.610  67.605  1.00  0.00    -0.205 N  
HETATM    9  C   UNL     1     -10.579  16.268  67.391  1.00  0.00    -0.307 C  
HETATM   10  N   UNL     1      -6.958  15.603  67.419  1.00  0.00    -0.189 NA 
HETATM   11  C   UNL     1     -10.520  17.783  67.329  1.00  0.00    -0.356 C  
HETATM   12  C   UNL     1      -8.092  16.212  67.327  1.00  0.00    -0.175 C  
HETATM   13  C   UNL     1      -9.392  18.205  66.404  1.00  0.00    -0.274 C  
HETATM   14  H   UNL     1      -6.875  18.206  68.431  1.00  0.00     0.000 HD 
ENDROOT
BRANCH   3  15
HETATM   15  C   UNL     1      -8.148  12.091  68.385  1.00  0.00    -0.154 C  
BRANCH  15  16
HETATM   16  C   UNL     1      -8.379  11.103  67.207  1.00  0.00    -0.135 C  
BRANCH  16  17
HETATM   17  N   UNL     1      -8.179   9.679  67.525  1.00  0.00    -0.114 NA 
HETATM   18  C   UNL     1     -10.284   9.221  68.771  1.00  0.00    -0.223 C  
HETATM   19  C   UNL     1     -10.118   8.407  66.412  1.00  0.00    -0.242 C  
HETATM   20  C   UNL     1      -8.759   9.258  68.802  1.00  0.00    -0.132 C  
HETATM   21  C   UNL     1     -10.759   8.145  67.785  1.00  0.00    -0.166 C  
HETATM   22  C   UNL     1      -8.619   8.768  66.447  1.00  0.00    -0.128 C  
BRANCH  21  23
HETATM   23  C   UNL     1     -10.539   6.790  68.410  1.00  0.00    -0.227 A  
HETATM   24  N   UNL     1      -9.719   5.874  67.880  1.00  0.00    -0.115 NA 
HETATM   25  O   UNL     1      -9.494   4.942  68.884  1.00  0.00    -0.123 OA 
HETATM   26  C   UNL     1     -10.201   5.285  69.995  1.00  0.00    -0.288 A  
HETATM   27  C   UNL     1     -10.954   6.412  69.721  1.00  0.00    -0.417 A  
HETATM   28  C   UNL     1     -11.780   6.943  70.730  1.00  0.00    -0.417 A  
HETATM   29  C   UNL     1     -11.786   6.316  71.981  1.00  0.00    -0.370 A  
HETATM   30  C   UNL     1     -10.978   5.204  72.220  1.00  0.00    -0.143 A  
HETATM   31  C   UNL     1     -10.164   4.649  71.232  1.00  0.00    -0.205 A  
HETATM   32  F   UNL     1     -10.977   4.659  73.444  1.00  0.00    -0.257 F  
ENDBRANCH  21  23
ENDBRANCH  16  17
ENDBRANCH  15  16
ENDBRANCH   3  15
TORSDOF 4
ENDMDL
MODEL      133
REMARK 921   NORMALIZED FREE ENERGY PREDICTED BY IDOCK:   -5.66 KCAL/MOL
REMARK 922        TOTAL FREE ENERGY PREDICTED BY IDOCK:   -7.26 KCAL/MOL
REMARK 923 INTER-LIGAND FREE ENERGY PREDICTED BY IDOCK:   -6.77 KCAL/MOL
REMARK 924 INTRA-LIGAND FREE ENERGY PREDICTED BY IDOCK:   -0.49 KCAL/MOL
REMARK 927      BINDING AFFINITY PREDICTED BY RF-SCORE:    0.00 PKD
ROOT
HETATM    1  C   UNL     1     -11.634  15.695  69.679  1.00  0.00    -0.364 C  
HETATM    2  C   UNL     1     -11.367  15.399  68.227  1.00  0.00    -0.348 C  
HETATM    3  C   UNL     1     -11.012  16.306  67.294  1.00  0.00    -0.144 C  
HETATM    4  C   UNL     1     -10.756  15.789  65.923  1.00  0.00    -0.313 C  
HETATM    5  O   UNL     1     -10.451  11.361  66.989  1.00  0.00    -0.217 OA 
HETATM    6  C   UNL     1     -11.547  12.129  66.498  1.00  0.00    -0.359 C  
HETATM    7  O   UNL     1     -10.443  16.565  65.020  1.00  0.00    -0.652 OA 
HETATM    8  N   UNL     1     -10.898  14.431  65.729  1.00  0.00    -0.298 N  
HETATM    9  C   UNL     1     -10.776  13.961  64.353  1.00  0.00    -0.268 C  
HETATM   10  N   UNL     1     -11.555  14.069  67.950  1.00  0.00    -0.323 NA 
HETATM   11  C   UNL     1     -10.687  12.454  64.197  1.00  0.00    -0.414 C  
HETATM   12  C   UNL     1     -11.349  13.634  66.752  1.00  0.00    -0.328 C  
HETATM   13  C   UNL     1     -11.771  11.797  65.032  1.00  0.00    -0.174 C  
HETATM   14  H   UNL     1     -10.311  11.568  67.905  1.00  0.00     0.000 HD 
ENDROOT
BRANCH   3  15
HETATM   15  C   UNL     1     -10.748  17.785  67.472  1.00  0.00    -0.315 C  
BRANCH  15  16
HETATM   16  C   UNL     1      -9.256  18.198  67.329  1.00  0.00    -0.252 C  
BRANCH  16  17
HETATM   17  N   UNL     1      -8.458  18.127  68.564  1.00  0.00    -0.305 NA 
HETATM   18  C   UNL     1      -7.622  15.789  68.398  1.00  0.00    -0.130 C  
HETATM   19  C   UNL     1      -6.038  17.642  67.838  1.00  0.00    -0.155 C  
HETATM   20  C   UNL     1      -8.435  16.805  69.194  1.00  0.00    -0.084 C  
HETATM   21  C   UNL     1      -6.145  16.206  68.377  1.00  0.00    -0.109 C  
HETATM   22  C   UNL     1      -7.077  18.631  68.403  1.00  0.00    -0.272 C  
BRANCH  21  23
HETATM   23  C   UNL     1      -5.546  15.922  69.732  1.00  0.00    -0.134 A  
HETATM   24  N   UNL     1      -5.328  16.881  70.641  1.00  0.00    -0.217 NA 
HETATM   25  O   UNL     1      -5.128  16.222  71.846  1.00  0.00    -0.264 OA 
HETATM   26  C   UNL     1      -5.195  14.877  71.649  1.00  0.00    -0.109 A  
HETATM   27  C   UNL     1      -5.376  14.626  70.301  1.00  0.00    -0.106 A  
HETATM   28  C   UNL     1      -5.462  13.292  69.860  1.00  0.00    -0.101 A  
HETATM   29  C   UNL     1      -5.382  12.271  70.815  1.00  0.00    -0.161 A  
HETATM   30  C   UNL     1      -5.239  12.577  72.168  1.00  0.00     0.197 A  
HETATM   31  C   UNL     1      -5.134  13.890  72.628  1.00  0.00    -0.216 A  
HETATM   32  F   UNL     1      -5.212  11.574  73.056  1.00  0.00     0.163 F  
ENDBRANCH  21  23
ENDBRANCH  16  17
ENDBRANCH  15  16
ENDBRANCH   3  15
TORSDOF 4
ENDMDL
MODEL      134
REMARK 921   NORMALIZED FREE ENERGY PREDICTED BY IDOCK:   -5.63 KCAL/MOL
REMARK 922        TOTAL FREE ENERGY PREDICTED BY IDOCK:   -7.22 KCAL/MOL
REMARK 923 INTER-LIGAND FREE ENERGY PREDICTED BY IDOCK:   -6.82 KCAL/MOL
REMARK 924 INTRA-LIGAND FREE ENERGY PREDICTED BY IDOCK:   -0.40 KCAL/MOL
REMARK 927      BINDING AFFINITY PREDICTED BY RF-SCORE:    0.00 PKD
ROOT
HETATM    1  C   UNL     1     -11.237  15.309  69.359  1.00  0.00    -0.291 C  
HETATM    2  C   UNL     1     -10.140  16.183  68.811  1.00  0.00    -0.237 C  
HETATM    3  C   UNL     1      -8.853  15.814  68.647  1.00  0.00    -0.199 C  
HETATM    4  C   UNL     1      -7.940  16.824  68.048  1.00  0.00    -0.178 C  
HETATM    5  O   UNL     1     -11.138  19.666  66.455  1.00  0.00    -0.337 OA 
HETATM    6  C   UNL     1     -10.382  19.695  67.663  1.00  0.00    -0.451 C  
HETATM    7  O   UNL     1      -6.749  16.559  67.885  1.00  0.00    -0.129 OA 
HETATM    8  N   UNL     1      -8.491  18.043  67.707  1.00  0.00    -0.243 N  
HETATM    9  C   UNL     1      -7.557  19.065  67.247  1.00  0.00    -0.229 C  
HETATM   10  N   UNL     1     -10.608  17.436  68.511  1.00  0.00    -0.362 NA 
HETATM   11  C   UNL     1      -8.204  20.299  66.646  1.00  0.00    -0.294 C  
HETATM   12  C   UNL     1      -9.803  18.312  68.008  1.00  0.00    -0.330 C  
HETATM   13  C   UNL     1      -9.319  20.777  67.559  1.00  0.00    -0.376 C  
HETATM   14  H   UNL     1     -11.803  18.990  66.520  1.00  0.00     0.000 HD 
ENDROOT
BRANCH   3  15
HETATM   15  C   UNL     1      -8.218  14.467  68.911  1.00  0.00    -0.114 C  
BRANCH  15  16
HETATM   16  C   UNL     1      -8.990  13.259  68.310  1.00  0.00    -0.176 C  
BRANCH  16  17
HETATM   17  N   UNL     1      -8.752  13.005  66.879  1.00  0.00    -0.189 NA 
HETATM   18  C   UNL     1      -9.029  10.532  66.835  1.00  0.00    -0.151 C  
HETATM   19  C   UNL     1     -10.906  11.936  65.964  1.00  0.00    -0.342 C  
HETATM   20  C   UNL     1      -8.105  11.722  66.593  1.00  0.00    -0.094 C  
HETATM   21  C   UNL     1     -10.204  10.574  65.847  1.00  0.00    -0.311 C  
HETATM   22  C   UNL     1      -9.964  13.154  66.045  1.00  0.00    -0.280 C  
BRANCH  21  23
HETATM   23  C   UNL     1      -9.701  10.162  64.486  1.00  0.00    -0.293 A  
HETATM   24  N   UNL     1      -9.845  10.932  63.399  1.00  0.00    -0.331 NA 
HETATM   25  O   UNL     1      -8.969  10.418  62.453  1.00  0.00    -0.211 OA 
HETATM   26  C   UNL     1      -8.330   9.330  62.963  1.00  0.00    -0.195 A  
HETATM   27  C   UNL     1      -8.822   9.070  64.229  1.00  0.00    -0.089 A  
HETATM   28  C   UNL     1      -8.311   7.973  64.948  1.00  0.00    -0.108 A  
HETATM   29  C   UNL     1      -7.305   7.201  64.354  1.00  0.00    -0.082 A  
HETATM   30  C   UNL     1      -6.815   7.528  63.089  1.00  0.00    -0.066 A  
HETATM   31  C   UNL     1      -7.317   8.600  62.351  1.00  0.00    -0.101 A  
HETATM   32  F   UNL     1      -5.821   6.793  62.574  1.00  0.00    -0.034 F  
ENDBRANCH  21  23
ENDBRANCH  16  17
ENDBRANCH  15  16
ENDBRANCH   3  15
TORSDOF 4
ENDMDL
MODEL      135
REMARK 921   NORMALIZED FREE ENERGY PREDICTED BY IDOCK:   -5.63 KCAL/MOL
REMARK 922        TOTAL FREE ENERGY PREDICTED BY IDOCK:   -7.21 KCAL/MOL
REMARK 923 INTER-LIGAND FREE ENERGY PREDICTED BY IDOCK:   -7.14 KCAL/MOL
REMARK 924 INTRA-LIGAND FREE ENERGY PREDICTED BY IDOCK:   -0.08 KCAL/MOL
REMARK 927      BINDING AFFINITY PREDICTED BY RF-SCORE:    0.00 PKD
ROOT
HETATM    1  C   UNL     1     -12.730  11.836  64.064  1.00  0.00    -0.247 C  
HETATM    2  C   UNL     1     -11.657  12.616  64.780  1.00  0.00    -0.331 C  
HETATM    3  C   UNL     1     -10.599  12.083  65.424  1.00  0.00    -0.319 C  
HETATM    4  C   UNL     1      -9.635  13.040  66.029  1.00  0.00    -0.165 C  
HETATM    5  O   UNL     1     -11.051  16.792  63.848  1.00  0.00    -1.086 OA 
HETATM    6  C   UNL     1     -11.370  16.290  65.143  1.00  0.00     0.018 C  
HETATM    7  O   UNL     1      -8.655  12.621  66.646  1.00  0.00    -0.148 OA 
HETATM    8  N   UNL     1      -9.905  14.385  65.873  1.00  0.00    -0.316 N  
HETATM    9  C   UNL     1      -9.025  15.305  66.586  1.00  0.00    -0.291 C  
HETATM   10  N   UNL     1     -11.901  13.964  64.718  1.00  0.00    -0.377 NA 
HETATM   11  C   UNL     1      -9.181  16.765  66.204  1.00  0.00    -0.284 C  
HETATM   12  C   UNL     1     -11.067  14.786  65.263  1.00  0.00    -0.370 C  
HETATM   13  C   UNL     1     -10.656  17.126  66.192  1.00  0.00    -0.201 C  
HETATM   14  H   UNL     1     -11.497  16.269  63.192  1.00  0.00     0.000 HD 
ENDROOT
BRANCH   3  15
HETATM   15  C   UNL     1     -10.204  10.628  65.543  1.00  0.00    -0.329 C  
BRANCH  15  16
HETATM   16  C   UNL     1     -10.550   9.974  66.911  1.00  0.00    -0.192 C  
BRANCH  16  17
HETATM   17  N   UNL     1      -9.662   8.878  67.331  1.00  0.00    -0.166 NA 
HETATM   18  C   UNL     1     -10.892   8.080  69.342  1.00  0.00    -0.104 C  
HETATM   19  C   UNL     1     -11.072   6.728  67.246  1.00  0.00    -0.394 C  
HETATM   20  C   UNL     1      -9.602   8.670  68.780  1.00  0.00    -0.156 C  
HETATM   21  C   UNL     1     -11.106   6.667  68.782  1.00  0.00    -0.297 C  
HETATM   22  C   UNL     1      -9.945   7.596  66.650  1.00  0.00    -0.214 C  
BRANCH  21  23
HETATM   23  C   UNL     1     -10.144   5.728  69.465  1.00  0.00    -0.214 A  
HETATM   24  N   UNL     1     -10.192   5.474  70.779  1.00  0.00    -0.221 NA 
HETATM   25  O   UNL     1      -9.429   4.331  70.972  1.00  0.00    -0.140 OA 
HETATM   26  C   UNL     1      -8.904   3.925  69.784  1.00  0.00    -0.087 A  
HETATM   27  C   UNL     1      -9.258   4.830  68.800  1.00  0.00    -0.170 A  
HETATM   28  C   UNL     1      -8.812   4.616  67.482  1.00  0.00    -0.112 A  
HETATM   29  C   UNL     1      -8.041   3.477  67.220  1.00  0.00    -0.082 A  
HETATM   30  C   UNL     1      -7.743   2.573  68.240  1.00  0.00    -0.055 A  
HETATM   31  C   UNL     1      -8.160   2.772  69.556  1.00  0.00    -0.056 A  
HETATM   32  F   UNL     1      -7.041   1.472  67.939  1.00  0.00    -0.034 F  
ENDBRANCH  21  23
ENDBRANCH  16  17
ENDBRANCH  15  16
ENDBRANCH   3  15
TORSDOF 4
ENDMDL
MODEL      136
REMARK 921   NORMALIZED FREE ENERGY PREDICTED BY IDOCK:   -5.59 KCAL/MOL
REMARK 922        TOTAL FREE ENERGY PREDICTED BY IDOCK:   -7.17 KCAL/MOL
REMARK 923 INTER-LIGAND FREE ENERGY PREDICTED BY IDOCK:   -7.24 KCAL/MOL
REMARK 924 INTRA-LIGAND FREE ENERGY PREDICTED BY IDOCK:    0.08 KCAL/MOL
REMARK 927      BINDING AFFINITY PREDICTED BY RF-SCORE:    0.00 PKD
ROOT
HETATM    1  C   UNL     1     -11.856  13.135  67.904  1.00  0.00    -0.390 C  
HETATM    2  C   UNL     1     -10.915  12.200  67.190  1.00  0.00    -0.268 C  
HETATM    3  C   UNL     1     -10.087  11.317  67.785  1.00  0.00    -0.199 C  
HETATM    4  C   UNL     1      -9.270  10.459  66.886  1.00  0.00    -0.150 C  
HETATM    5  O   UNL     1     -11.576  11.249  63.027  1.00  0.00    -0.857 OA 
HETATM    6  C   UNL     1     -10.389  11.845  63.542  1.00  0.00    -0.458 C  
HETATM    7  O   UNL     1      -8.481   9.642  67.363  1.00  0.00    -0.124 OA 
HETATM    8  N   UNL     1      -9.437  10.636  65.528  1.00  0.00    -0.200 N  
HETATM    9  C   UNL     1      -8.533   9.883  64.665  1.00  0.00    -0.172 C  
HETATM   10  N   UNL     1     -10.984  12.371  65.832  1.00  0.00    -0.278 NA 
HETATM   11  C   UNL     1      -8.894   9.900  63.191  1.00  0.00    -0.254 C  
HETATM   12  C   UNL     1     -10.256  11.634  65.061  1.00  0.00    -0.275 C  
HETATM   13  C   UNL     1      -9.192  11.325  62.762  1.00  0.00    -0.354 C  
HETATM   14  H   UNL     1     -12.325  11.574  63.514  1.00  0.00     0.000 HD 
ENDROOT
BRANCH   3  15
HETATM   15  C   UNL     1      -9.935  11.014  69.259  1.00  0.00    -0.088 C  
BRANCH  15  16
HETATM   16  C   UNL     1     -10.835   9.857  69.777  1.00  0.00    -0.269 C  
BRANCH  16  17
HETATM   17  N   UNL     1     -10.134   8.598  70.080  1.00  0.00    -0.181 NA 
HETATM   18  C   UNL     1     -11.462   7.834  72.042  1.00  0.00    -0.337 C  
HETATM   19  C   UNL     1     -11.879   6.722  69.841  1.00  0.00    -0.208 C  
HETATM   20  C   UNL     1     -10.097   8.254  71.504  1.00  0.00    -0.208 C  
HETATM   21  C   UNL     1     -11.910   6.531  71.366  1.00  0.00    -0.384 C  
HETATM   22  C   UNL     1     -10.630   7.445  69.297  1.00  0.00    -0.213 C  
BRANCH  21  23
HETATM   23  C   UNL     1     -11.109   5.390  71.943  1.00  0.00    -0.108 A  
HETATM   24  N   UNL     1     -11.532   4.665  72.986  1.00  0.00    -0.208 NA 
HETATM   25  O   UNL     1     -10.746   3.521  72.996  1.00  0.00    -0.173 OA 
HETATM   26  C   UNL     1      -9.839   3.580  71.983  1.00  0.00    -0.168 A  
HETATM   27  C   UNL     1      -9.969   4.792  71.330  1.00  0.00    -0.270 A  
HETATM   28  C   UNL     1      -9.117   5.079  70.246  1.00  0.00    -0.164 A  
HETATM   29  C   UNL     1      -8.184   4.109  69.862  1.00  0.00    -0.068 A  
HETATM   30  C   UNL     1      -8.118   2.886  70.528  1.00  0.00    -0.045 A  
HETATM   31  C   UNL     1      -8.940   2.584  71.615  1.00  0.00    -0.139 A  
HETATM   32  F   UNL     1      -7.242   1.966  70.102  1.00  0.00    -0.033 F  
ENDBRANCH  21  23
ENDBRANCH  16  17
ENDBRANCH  15  16
ENDBRANCH   3  15
TORSDOF 4
ENDMDL
MODEL      137
REMARK 921   NORMALIZED FREE ENERGY PREDICTED BY IDOCK:   -5.58 KCAL/MOL
REMARK 922        TOTAL FREE ENERGY PREDICTED BY IDOCK:   -7.15 KCAL/MOL
REMARK 923 INTER-LIGAND FREE ENERGY PREDICTED BY IDOCK:   -8.52 KCAL/MOL
REMARK 924 INTRA-LIGAND FREE ENERGY PREDICTED BY IDOCK:    1.37 KCAL/MOL
REMARK 927      BINDING AFFINITY PREDICTED BY RF-SCORE:    0.00 PKD
ROOT
HETATM    1  C   UNL     1     -10.745  10.322  67.424  1.00  0.00    -0.339 C  
HETATM    2  C   UNL     1     -10.084  10.413  66.073  1.00  0.00    -0.243 C  
HETATM    3  C   UNL     1     -10.602  11.023  64.987  1.00  0.00    -0.315 C  
HETATM    4  C   UNL     1      -9.760  11.030  63.761  1.00  0.00    -0.309 C  
HETATM    5  O   UNL     1      -5.817   9.829  65.723  1.00  0.00    -0.056 OA 
HETATM    6  C   UNL     1      -6.798   9.048  65.048  1.00  0.00    -0.076 C  
HETATM    7  O   UNL     1     -10.178  11.555  62.729  1.00  0.00    -0.196 OA 
HETATM    8  N   UNL     1      -8.525  10.420  63.845  1.00  0.00    -0.171 N  
HETATM    9  C   UNL     1      -7.771  10.318  62.600  1.00  0.00    -0.145 C  
HETATM   10  N   UNL     1      -8.875   9.767  66.069  1.00  0.00    -0.143 NA 
HETATM   11  C   UNL     1      -6.328   9.875  62.759  1.00  0.00    -0.117 C  
HETATM   12  C   UNL     1      -8.160   9.762  64.994  1.00  0.00    -0.134 C  
HETATM   13  C   UNL     1      -6.272   8.665  63.674  1.00  0.00    -0.080 C  
HETATM   14  H   UNL     1      -6.145  10.069  66.582  1.00  0.00     0.000 HD 
ENDROOT
BRANCH   3  15
HETATM   15  C   UNL     1     -11.901  11.787  64.866  1.00  0.00    -0.135 C  
BRANCH  15  16
HETATM   16  C   UNL     1     -11.846  13.007  63.904  1.00  0.00    -0.477 C  
BRANCH  16  17
HETATM   17  N   UNL     1     -11.750  14.324  64.556  1.00  0.00    -0.416 NA 
HETATM   18  C   UNL     1     -12.029  13.642  66.934  1.00  0.00    -0.454 C  
HETATM   19  C   UNL     1      -9.725  14.202  66.138  1.00  0.00    -0.310 C  
HETATM   20  C   UNL     1     -12.567  14.461  65.764  1.00  0.00    -0.296 C  
HETATM   21  C   UNL     1     -10.657  14.183  67.360  1.00  0.00    -0.279 C  
HETATM   22  C   UNL     1     -10.359  14.740  64.840  1.00  0.00    -0.332 C  
BRANCH  21  23
HETATM   23  C   UNL     1     -10.862  15.480  68.103  1.00  0.00    -0.296 A  
HETATM   24  N   UNL     1     -11.082  15.529  69.423  1.00  0.00    -0.269 NA 
HETATM   25  O   UNL     1     -10.858  16.848  69.795  1.00  0.00    -0.281 OA 
HETATM   26  C   UNL     1     -10.536  17.585  68.698  1.00  0.00    -0.288 A  
HETATM   27  C   UNL     1     -10.607  16.779  67.576  1.00  0.00    -0.309 A  
HETATM   28  C   UNL     1     -10.324  17.338  66.315  1.00  0.00    -0.323 A  
HETATM   29  C   UNL     1      -9.960  18.689  66.255  1.00  0.00    -0.398 A  
HETATM   30  C   UNL     1      -9.865  19.449  67.420  1.00  0.00    -0.345 A  
HETATM   31  C   UNL     1     -10.156  18.923  68.679  1.00  0.00    -0.447 A  
HETATM   32  F   UNL     1      -9.469  20.726  67.325  1.00  0.00    -0.539 F  
ENDBRANCH  21  23
ENDBRANCH  16  17
ENDBRANCH  15  16
ENDBRANCH   3  15
TORSDOF 4
ENDMDL
MODEL      138
REMARK 921   NORMALIZED FREE ENERGY PREDICTED BY IDOCK:   -5.57 KCAL/MOL
REMARK 922        TOTAL FREE ENERGY PREDICTED BY IDOCK:   -7.14 KCAL/MOL
REMARK 923 INTER-LIGAND FREE ENERGY PREDICTED BY IDOCK:   -6.71 KCAL/MOL
REMARK 924 INTRA-LIGAND FREE ENERGY PREDICTED BY IDOCK:   -0.43 KCAL/MOL
REMARK 927      BINDING AFFINITY PREDICTED BY RF-SCORE:    0.00 PKD
ROOT
HETATM    1  C   UNL     1     -10.243   7.055  70.444  1.00  0.00    -0.209 C  
HETATM    2  C   UNL     1      -9.453   6.567  69.258  1.00  0.00    -0.140 C  
HETATM    3  C   UNL     1      -8.575   7.302  68.546  1.00  0.00    -0.124 C  
HETATM    4  C   UNL     1      -7.869   6.607  67.435  1.00  0.00    -0.113 C  
HETATM    5  O   UNL     1      -8.880   2.326  68.653  1.00  0.00    -0.080 OA 
HETATM    6  C   UNL     1      -9.502   3.200  67.716  1.00  0.00    -0.156 C  
HETATM    7  O   UNL     1      -7.066   7.224  66.734  1.00  0.00    -0.077 OA 
HETATM    8  N   UNL     1      -8.170   5.275  67.237  1.00  0.00    -0.104 N  
HETATM    9  C   UNL     1      -7.572   4.648  66.063  1.00  0.00    -0.090 C  
HETATM   10  N   UNL     1      -9.754   5.262  68.965  1.00  0.00    -0.143 NA 
HETATM   11  C   UNL     1      -7.711   3.138  66.004  1.00  0.00    -0.078 C  
HETATM   12  C   UNL     1      -9.150   4.674  67.987  1.00  0.00    -0.120 C  
HETATM   13  C   UNL     1      -9.149   2.753  66.307  1.00  0.00    -0.128 C  
HETATM   14  H   UNL     1      -9.101   2.605  69.535  1.00  0.00     0.000 HD 
ENDROOT
BRANCH   3  15
HETATM   15  C   UNL     1      -8.136   8.731  68.777  1.00  0.00    -0.115 C  
BRANCH  15  16
HETATM   16  C   UNL     1      -8.893   9.786  67.923  1.00  0.00    -0.122 C  
BRANCH  16  17
HETATM   17  N   UNL     1      -9.244  11.033  68.622  1.00  0.00    -0.183 NA 
HETATM   18  C   UNL     1     -10.323  12.278  66.757  1.00  0.00    -0.238 C  
HETATM   19  C   UNL     1     -11.805  11.245  68.486  1.00  0.00    -0.355 C  
HETATM   20  C   UNL     1      -9.194  12.232  67.782  1.00  0.00    -0.191 C  
HETATM   21  C   UNL     1     -11.675  12.395  67.475  1.00  0.00    -0.425 C  
HETATM   22  C   UNL     1     -10.542  10.967  69.328  1.00  0.00    -0.201 C  
BRANCH  21  23
HETATM   23  C   UNL     1     -11.822  13.803  67.996  1.00  0.00    -0.373 A  
HETATM   24  N   UNL     1     -12.198  14.073  69.253  1.00  0.00    -0.330 NA 
HETATM   25  O   UNL     1     -11.873  15.406  69.467  1.00  0.00    -0.314 OA 
HETATM   26  C   UNL     1     -11.335  15.934  68.335  1.00  0.00    -0.361 A  
HETATM   27  C   UNL     1     -11.356  14.977  67.335  1.00  0.00    -0.338 A  
HETATM   28  C   UNL     1     -10.856  15.309  66.062  1.00  0.00    -0.331 A  
HETATM   29  C   UNL     1     -10.336  16.595  65.868  1.00  0.00    -0.355 A  
HETATM   30  C   UNL     1     -10.301  17.511  66.919  1.00  0.00    -0.315 A  
HETATM   31  C   UNL     1     -10.806  17.212  68.185  1.00  0.00    -0.316 A  
HETATM   32  F   UNL     1      -9.754  18.715  66.705  1.00  0.00    -0.284 F  
ENDBRANCH  21  23
ENDBRANCH  16  17
ENDBRANCH  15  16
ENDBRANCH   3  15
TORSDOF 4
ENDMDL
MODEL      139
REMARK 921   NORMALIZED FREE ENERGY PREDICTED BY IDOCK:   -5.55 KCAL/MOL
REMARK 922        TOTAL FREE ENERGY PREDICTED BY IDOCK:   -7.12 KCAL/MOL
REMARK 923 INTER-LIGAND FREE ENERGY PREDICTED BY IDOCK:   -7.61 KCAL/MOL
REMARK 924 INTRA-LIGAND FREE ENERGY PREDICTED BY IDOCK:    0.49 KCAL/MOL
REMARK 927      BINDING AFFINITY PREDICTED BY RF-SCORE:    0.00 PKD
ROOT
HETATM    1  C   UNL     1     -10.647  15.732  65.408  1.00  0.00    -0.441 C  
HETATM    2  C   UNL     1      -9.712  16.381  66.394  1.00  0.00    -0.287 C  
HETATM    3  C   UNL     1      -9.237  15.807  67.518  1.00  0.00    -0.207 C  
HETATM    4  C   UNL     1      -8.289  16.616  68.331  1.00  0.00    -0.208 C  
HETATM    5  O   UNL     1      -7.336  19.783  65.185  1.00  0.00    -0.363 OA 
HETATM    6  C   UNL     1      -8.269  19.789  66.262  1.00  0.00    -0.350 C  
HETATM    7  O   UNL     1      -7.830  16.159  69.378  1.00  0.00    -0.233 OA 
HETATM    8  N   UNL     1      -7.975  17.874  67.860  1.00  0.00    -0.230 N  
HETATM    9  C   UNL     1      -7.152  18.702  68.736  1.00  0.00    -0.303 C  
HETATM   10  N   UNL     1      -9.409  17.664  66.018  1.00  0.00    -0.519 NA 
HETATM   11  C   UNL     1      -6.616  19.971  68.099  1.00  0.00    -0.315 C  
HETATM   12  C   UNL     1      -8.600  18.364  66.741  1.00  0.00    -0.276 C  
HETATM   13  C   UNL     1      -7.743  20.683  67.373  1.00  0.00    -0.355 C  
HETATM   14  H   UNL     1      -7.665  19.224  64.491  1.00  0.00     0.000 HD 
ENDROOT
BRANCH   3  15
HETATM   15  C   UNL     1      -9.470  14.403  68.030  1.00  0.00    -0.209 C  
BRANCH  15  16
HETATM   16  C   UNL     1     -10.449  13.555  67.170  1.00  0.00    -0.256 C  
BRANCH  16  17
HETATM   17  N   UNL     1      -9.871  12.347  66.559  1.00  0.00    -0.230 NA 
HETATM   18  C   UNL     1      -9.060  11.183  68.603  1.00  0.00    -0.166 C  
HETATM   19  C   UNL     1     -11.164  10.350  67.538  1.00  0.00    -0.254 C  
HETATM   20  C   UNL     1      -8.702  11.815  67.262  1.00  0.00    -0.163 C  
HETATM   21  C   UNL     1      -9.942   9.946  68.378  1.00  0.00    -0.177 C  
HETATM   22  C   UNL     1     -10.859  11.269  66.338  1.00  0.00    -0.251 C  
BRANCH  21  23
HETATM   23  C   UNL     1      -9.075   8.827  67.856  1.00  0.00    -0.139 A  
HETATM   24  N   UNL     1      -7.747   8.801  68.029  1.00  0.00    -0.100 NA 
HETATM   25  O   UNL     1      -7.355   7.498  67.757  1.00  0.00    -0.096 OA 
HETATM   26  C   UNL     1      -8.440   6.760  67.394  1.00  0.00    -0.121 A  
HETATM   27  C   UNL     1      -9.553   7.580  67.358  1.00  0.00    -0.187 A  
HETATM   28  C   UNL     1     -10.796   7.029  66.993  1.00  0.00    -0.413 A  
HETATM   29  C   UNL     1     -10.855   5.661  66.701  1.00  0.00    -0.280 A  
HETATM   30  C   UNL     1      -9.710   4.868  66.790  1.00  0.00    -0.181 A  
HETATM   31  C   UNL     1      -8.465   5.393  67.133  1.00  0.00    -0.106 A  
HETATM   32  F   UNL     1      -9.817   3.555  66.547  1.00  0.00    -0.197 F  
ENDBRANCH  21  23
ENDBRANCH  16  17
ENDBRANCH  15  16
ENDBRANCH   3  15
TORSDOF 4
ENDMDL
MODEL      140
REMARK 921   NORMALIZED FREE ENERGY PREDICTED BY IDOCK:   -5.53 KCAL/MOL
REMARK 922        TOTAL FREE ENERGY PREDICTED BY IDOCK:   -7.09 KCAL/MOL
REMARK 923 INTER-LIGAND FREE ENERGY PREDICTED BY IDOCK:   -6.41 KCAL/MOL
REMARK 924 INTRA-LIGAND FREE ENERGY PREDICTED BY IDOCK:   -0.68 KCAL/MOL
REMARK 927      BINDING AFFINITY PREDICTED BY RF-SCORE:    0.00 PKD
ROOT
HETATM    1  C   UNL     1      -5.987   5.033  68.075  1.00  0.00    -0.022 C  
HETATM    2  C   UNL     1      -7.292   5.053  67.324  1.00  0.00    -0.082 C  
HETATM    3  C   UNL     1      -8.296   5.931  67.521  1.00  0.00    -0.105 C  
HETATM    4  C   UNL     1      -9.485   5.795  66.637  1.00  0.00    -0.149 C  
HETATM    5  O   UNL     1      -7.599   3.073  63.495  1.00  0.00    -0.061 OA 
HETATM    6  C   UNL     1      -8.405   2.768  64.631  1.00  0.00    -0.087 C  
HETATM    7  O   UNL     1     -10.445   6.554  66.773  1.00  0.00    -0.234 OA 
HETATM    8  N   UNL     1      -9.452   4.789  65.693  1.00  0.00    -0.161 N  
HETATM    9  C   UNL     1     -10.677   4.584  64.927  1.00  0.00    -0.002 C  
HETATM   10  N   UNL     1      -7.352   4.033  66.410  1.00  0.00    -0.074 NA 
HETATM   11  C   UNL     1     -10.540   3.653  63.737  1.00  0.00    -0.284 C  
HETATM   12  C   UNL     1      -8.397   3.912  65.660  1.00  0.00    -0.109 C  
HETATM   13  C   UNL     1      -9.803   2.396  64.164  1.00  0.00    -0.108 C  
HETATM   14  H   UNL     1      -6.725   3.305  63.786  1.00  0.00     0.000 HD 
ENDROOT
BRANCH   3  15
HETATM   15  C   UNL     1      -8.346   7.108  68.470  1.00  0.00    -0.125 C  
BRANCH  15  16
HETATM   16  C   UNL     1      -7.504   8.336  68.023  1.00  0.00    -0.097 C  
BRANCH  16  17
HETATM   17  N   UNL     1      -8.045   9.649  68.411  1.00  0.00    -0.104 NA 
HETATM   18  C   UNL     1      -9.593  10.052  66.504  1.00  0.00    -0.237 C  
HETATM   19  C   UNL     1     -10.584   9.336  68.685  1.00  0.00    -0.219 C  
HETATM   20  C   UNL     1      -8.370  10.526  67.283  1.00  0.00    -0.122 C  
HETATM   21  C   UNL     1     -10.841  10.130  67.395  1.00  0.00    -0.323 C  
HETATM   22  C   UNL     1      -9.201   9.562  69.329  1.00  0.00    -0.169 C  
BRANCH  21  23
HETATM   23  C   UNL     1     -11.242  11.578  67.534  1.00  0.00    -0.298 A  
HETATM   24  N   UNL     1     -11.050  12.276  68.661  1.00  0.00    -0.233 NA 
HETATM   25  O   UNL     1     -11.192  13.611  68.308  1.00  0.00    -0.248 OA 
HETATM   26  C   UNL     1     -11.497  13.705  66.985  1.00  0.00    -0.343 A  
HETATM   27  C   UNL     1     -11.626  12.432  66.459  1.00  0.00    -0.447 A  
HETATM   28  C   UNL     1     -11.953  12.285  65.098  1.00  0.00    -0.395 A  
HETATM   29  C   UNL     1     -12.115  13.442  64.326  1.00  0.00    -0.479 A  
HETATM   30  C   UNL     1     -11.936  14.703  64.895  1.00  0.00    -0.400 A  
HETATM   31  C   UNL     1     -11.627  14.875  66.244  1.00  0.00    -0.233 A  
HETATM   32  F   UNL     1     -12.054  15.785  64.113  1.00  0.00    -0.464 F  
ENDBRANCH  21  23
ENDBRANCH  16  17
ENDBRANCH  15  16
ENDBRANCH   3  15
TORSDOF 4
ENDMDL
MODEL      141
REMARK 921   NORMALIZED FREE ENERGY PREDICTED BY IDOCK:   -5.51 KCAL/MOL
REMARK 922        TOTAL FREE ENERGY PREDICTED BY IDOCK:   -7.07 KCAL/MOL
REMARK 923 INTER-LIGAND FREE ENERGY PREDICTED BY IDOCK:   -7.45 KCAL/MOL
REMARK 924 INTRA-LIGAND FREE ENERGY PREDICTED BY IDOCK:    0.38 KCAL/MOL
REMARK 927      BINDING AFFINITY PREDICTED BY RF-SCORE:    0.00 PKD
ROOT
HETATM    1  C   UNL     1      -9.620   9.889  68.450  1.00  0.00    -0.157 C  
HETATM    2  C   UNL     1      -9.536  10.264  66.994  1.00  0.00    -0.163 C  
HETATM    3  C   UNL     1     -10.299  11.189  66.378  1.00  0.00    -0.300 C  
HETATM    4  C   UNL     1     -10.021  11.432  64.937  1.00  0.00    -0.265 C  
HETATM    5  O   UNL     1      -5.962   9.353  64.741  1.00  0.00    -0.067 OA 
HETATM    6  C   UNL     1      -7.267   8.884  64.413  1.00  0.00    -0.094 C  
HETATM    7  O   UNL     1     -10.691  12.252  64.309  1.00  0.00    -0.301 OA 
HETATM    8  N   UNL     1      -9.005  10.697  64.362  1.00  0.00    -0.197 N  
HETATM    9  C   UNL     1      -8.835  10.850  62.921  1.00  0.00    -0.251 C  
HETATM   10  N   UNL     1      -8.584   9.519  66.345  1.00  0.00    -0.132 NA 
HETATM   11  C   UNL     1      -7.569  10.233  62.356  1.00  0.00    -0.155 C  
HETATM   12  C   UNL     1      -8.364   9.725  65.089  1.00  0.00    -0.142 C  
HETATM   13  C   UNL     1      -7.409   8.825  62.901  1.00  0.00    -0.095 C  
HETATM   14  H   UNL     1      -5.872   9.390  65.687  1.00  0.00     0.000 HD 
ENDROOT
BRANCH   3  15
HETATM   15  C   UNL     1     -11.356  12.089  66.978  1.00  0.00    -0.396 C  
BRANCH  15  16
HETATM   16  C   UNL     1     -11.036  12.595  68.413  1.00  0.00    -0.265 C  
BRANCH  16  17
HETATM   17  N   UNL     1     -10.694  14.023  68.519  1.00  0.00    -0.249 NA 
HETATM   18  C   UNL     1      -8.312  13.944  67.799  1.00  0.00    -0.174 C  
HETATM   19  C   UNL     1     -10.005  14.781  66.159  1.00  0.00    -0.324 C  
HETATM   20  C   UNL     1      -9.305  14.284  68.907  1.00  0.00    -0.053 C  
HETATM   21  C   UNL     1      -8.534  14.873  66.597  1.00  0.00    -0.138 C  
HETATM   22  C   UNL     1     -11.033  14.801  67.309  1.00  0.00    -0.318 C  
BRANCH  21  23
HETATM   23  C   UNL     1      -7.991  16.238  66.939  1.00  0.00    -0.243 A  
HETATM   24  N   UNL     1      -6.692  16.545  66.838  1.00  0.00    -0.204 NA 
HETATM   25  O   UNL     1      -6.626  17.931  66.873  1.00  0.00    -0.166 OA 
HETATM   26  C   UNL     1      -7.876  18.445  67.025  1.00  0.00    -0.227 A  
HETATM   27  C   UNL     1      -8.779  17.406  67.158  1.00  0.00    -0.239 A  
HETATM   28  C   UNL     1     -10.143  17.705  67.339  1.00  0.00    -0.331 A  
HETATM   29  C   UNL     1     -10.530  19.050  67.356  1.00  0.00    -0.539 A  
HETATM   30  C   UNL     1      -9.586  20.062  67.179  1.00  0.00    -0.402 A  
HETATM   31  C   UNL     1      -8.228  19.791  67.014  1.00  0.00    -0.340 A  
HETATM   32  F   UNL     1     -10.003  21.335  67.155  1.00  0.00    -0.521 F  
ENDBRANCH  21  23
ENDBRANCH  16  17
ENDBRANCH  15  16
ENDBRANCH   3  15
TORSDOF 4
ENDMDL
MODEL      142
REMARK 921   NORMALIZED FREE ENERGY PREDICTED BY IDOCK:   -5.47 KCAL/MOL
REMARK 922        TOTAL FREE ENERGY PREDICTED BY IDOCK:   -7.02 KCAL/MOL
REMARK 923 INTER-LIGAND FREE ENERGY PREDICTED BY IDOCK:   -6.53 KCAL/MOL
REMARK 924 INTRA-LIGAND FREE ENERGY PREDICTED BY IDOCK:   -0.50 KCAL/MOL
REMARK 927      BINDING AFFINITY PREDICTED BY RF-SCORE:    0.00 PKD
ROOT
HETATM    1  C   UNL     1      -6.674   9.741  67.051  1.00  0.00    -0.075 C  
HETATM    2  C   UNL     1      -6.393  10.669  68.204  1.00  0.00    -0.058 C  
HETATM    3  C   UNL     1      -6.125  10.288  69.469  1.00  0.00    -0.045 C  
HETATM    4  C   UNL     1      -5.836  11.373  70.445  1.00  0.00    -0.153 C  
HETATM    5  O   UNL     1      -5.140  14.733  67.435  1.00  0.00    -0.330 OA 
HETATM    6  C   UNL     1      -6.302  14.371  68.177  1.00  0.00    -0.141 C  
HETATM    7  O   UNL     1      -5.598  11.096  71.622  1.00  0.00    -0.344 OA 
HETATM    8  N   UNL     1      -5.861  12.668  69.970  1.00  0.00    -0.139 N  
HETATM    9  C   UNL     1      -5.709  13.723  70.966  1.00  0.00    -0.210 C  
HETATM   10  N   UNL     1      -6.467  11.981  67.812  1.00  0.00    -0.076 NA 
HETATM   11  C   UNL     1      -5.491  15.113  70.398  1.00  0.00    -0.134 C  
HETATM   12  C   UNL     1      -6.233  12.915  68.672  1.00  0.00    -0.071 C  
HETATM   13  C   UNL     1      -6.508  15.373  69.301  1.00  0.00    -0.137 C  
HETATM   14  H   UNL     1      -5.011  14.107  66.732  1.00  0.00     0.000 HD 
ENDROOT
BRANCH   3  15
HETATM   15  C   UNL     1      -5.989   8.887  70.022  1.00  0.00    -0.030 C  
BRANCH  15  16
HETATM   16  C   UNL     1      -7.295   8.045  69.980  1.00  0.00    -0.062 C  
BRANCH  16  17
HETATM   17  N   UNL     1      -8.366   8.492  70.887  1.00  0.00    -0.132 NA 
HETATM   18  C   UNL     1      -9.766   9.786  69.287  1.00  0.00    -0.204 C  
HETATM   19  C   UNL     1     -10.556   7.511  69.960  1.00  0.00    -0.242 C  
HETATM   20  C   UNL     1      -8.925   9.805  70.561  1.00  0.00     0.007 C  
HETATM   21  C   UNL     1     -11.006   8.905  69.495  1.00  0.00    -0.097 C  
HETATM   22  C   UNL     1      -9.456   7.504  71.041  1.00  0.00    -0.160 C  
BRANCH  21  23
HETATM   23  C   UNL     1     -11.985   9.651  70.368  1.00  0.00    -0.106 A  
HETATM   24  N   UNL     1     -12.611   9.078  71.404  1.00  0.00    -0.315 NA 
HETATM   25  O   UNL     1     -13.121  10.123  72.162  1.00  0.00    -0.435 OA 
HETATM   26  C   UNL     1     -12.826  11.309  71.565  1.00  0.00    -0.414 A  
HETATM   27  C   UNL     1     -12.174  11.064  70.370  1.00  0.00    -0.461 A  
HETATM   28  C   UNL     1     -11.781  12.154  69.570  1.00  0.00    -0.402 A  
HETATM   29  C   UNL     1     -12.050  13.447  70.032  1.00  0.00    -0.404 A  
HETATM   30  C   UNL     1     -12.675  13.643  71.264  1.00  0.00    -0.361 A  
HETATM   31  C   UNL     1     -13.089  12.580  72.067  1.00  0.00    -0.472 A  
HETATM   32  F   UNL     1     -12.874  14.896  71.693  1.00  0.00    -0.323 F  
ENDBRANCH  21  23
ENDBRANCH  16  17
ENDBRANCH  15  16
ENDBRANCH   3  15
TORSDOF 4
ENDMDL
MODEL      143
REMARK 921   NORMALIZED FREE ENERGY PREDICTED BY IDOCK:   -5.44 KCAL/MOL
REMARK 922        TOTAL FREE ENERGY PREDICTED BY IDOCK:   -6.98 KCAL/MOL
REMARK 923 INTER-LIGAND FREE ENERGY PREDICTED BY IDOCK:   -6.67 KCAL/MOL
REMARK 924 INTRA-LIGAND FREE ENERGY PREDICTED BY IDOCK:   -0.32 KCAL/MOL
REMARK 927      BINDING AFFINITY PREDICTED BY RF-SCORE:    0.00 PKD
ROOT
HETATM    1  C   UNL     1      -8.636  10.414  69.037  1.00  0.00    -0.158 C  
HETATM    2  C   UNL     1     -10.012  10.274  69.634  1.00  0.00    -0.207 C  
HETATM    3  C   UNL     1     -10.920  11.264  69.751  1.00  0.00    -0.170 C  
HETATM    4  C   UNL     1     -12.237  10.896  70.335  1.00  0.00    -0.365 C  
HETATM    5  O   UNL     1     -11.829   6.366  69.953  1.00  0.00    -0.552 OA 
HETATM    6  C   UNL     1     -11.580   7.235  71.054  1.00  0.00    -0.299 C  
HETATM    7  O   UNL     1     -13.106  11.755  70.486  1.00  0.00     0.107 OA 
HETATM    8  N   UNL     1     -12.416   9.577  70.697  1.00  0.00    -0.117 N  
HETATM    9  C   UNL     1     -13.661   9.262  71.391  1.00  0.00    -0.292 C  
HETATM   10  N   UNL     1     -10.232   8.995  70.076  1.00  0.00    -0.194 NA 
HETATM   11  C   UNL     1     -13.945   7.781  71.554  1.00  0.00    -0.468 C  
HETATM   12  C   UNL     1     -11.372   8.690  70.599  1.00  0.00    -0.247 C  
HETATM   13  C   UNL     1     -12.699   7.084  72.071  1.00  0.00    -0.228 C  
HETATM   14  H   UNL     1     -11.129   6.460  69.317  1.00  0.00     0.000 HD 
ENDROOT
BRANCH   3  15
HETATM   15  C   UNL     1     -10.814  12.699  69.285  1.00  0.00    -0.045 C  
BRANCH  15  16
HETATM   16  C   UNL     1     -11.509  12.990  67.925  1.00  0.00    -0.311 C  
BRANCH  16  17
HETATM   17  N   UNL     1     -10.608  13.109  66.766  1.00  0.00    -0.262 NA 
HETATM   18  C   UNL     1     -10.467  10.718  66.089  1.00  0.00    -0.278 C  
HETATM   19  C   UNL     1     -11.921  12.236  64.734  1.00  0.00    -0.429 C  
HETATM   20  C   UNL     1      -9.721  11.960  66.569  1.00  0.00    -0.210 C  
HETATM   21  C   UNL     1     -11.051  10.970  64.692  1.00  0.00    -0.041 C  
HETATM   22  C   UNL     1     -11.311  13.425  65.504  1.00  0.00    -0.293 C  
BRANCH  21  23
HETATM   23  C   UNL     1      -9.927  10.928  63.686  1.00  0.00    -0.359 A  
HETATM   24  N   UNL     1      -9.651  11.951  62.868  1.00  0.00    -0.280 NA 
HETATM   25  O   UNL     1      -8.378  11.706  62.372  1.00  0.00    -0.191 OA 
HETATM   26  C   UNL     1      -7.912  10.528  62.868  1.00  0.00    -0.120 A  
HETATM   27  C   UNL     1      -8.895   9.945  63.647  1.00  0.00    -0.256 A  
HETATM   28  C   UNL     1      -8.636   8.703  64.258  1.00  0.00    -0.048 A  
HETATM   29  C   UNL     1      -7.378   8.119  64.065  1.00  0.00    -0.100 A  
HETATM   30  C   UNL     1      -6.407   8.765  63.301  1.00  0.00    -0.089 A  
HETATM   31  C   UNL     1      -6.644   9.988  62.673  1.00  0.00    -0.121 A  
HETATM   32  F   UNL     1      -5.200   8.195  63.178  1.00  0.00    -0.047 F  
ENDBRANCH  21  23
ENDBRANCH  16  17
ENDBRANCH  15  16
ENDBRANCH   3  15
TORSDOF 4
ENDMDL
MODEL      144
REMARK 921   NORMALIZED FREE ENERGY PREDICTED BY IDOCK:   -5.43 KCAL/MOL
REMARK 922        TOTAL FREE ENERGY PREDICTED BY IDOCK:   -6.98 KCAL/MOL
REMARK 923 INTER-LIGAND FREE ENERGY PREDICTED BY IDOCK:   -6.82 KCAL/MOL
REMARK 924 INTRA-LIGAND FREE ENERGY PREDICTED BY IDOCK:   -0.16 KCAL/MOL
REMARK 927      BINDING AFFINITY PREDICTED BY RF-SCORE:    0.00 PKD
ROOT
HETATM    1  C   UNL     1     -10.676  11.727  64.161  1.00  0.00    -0.410 C  
HETATM    2  C   UNL     1     -10.732  11.184  65.565  1.00  0.00    -0.185 C  
HETATM    3  C   UNL     1     -11.286  11.808  66.624  1.00  0.00    -0.381 C  
HETATM    4  C   UNL     1     -11.269  11.071  67.916  1.00  0.00    -0.310 C  
HETATM    5  O   UNL     1     -10.249   6.945  66.252  1.00  0.00    -0.445 OA 
HETATM    6  C   UNL     1      -9.417   7.955  66.814  1.00  0.00    -0.201 C  
HETATM    7  O   UNL     1     -11.744  11.589  68.928  1.00  0.00    -0.285 OA 
HETATM    8  N   UNL     1     -10.696   9.816  67.915  1.00  0.00    -0.259 N  
HETATM    9  C   UNL     1     -10.567   9.166  69.215  1.00  0.00    -0.216 C  
HETATM   10  N   UNL     1     -10.119   9.961  65.648  1.00  0.00    -0.276 NA 
HETATM   11  C   UNL     1     -10.169   7.702  69.161  1.00  0.00    -0.204 C  
HETATM   12  C   UNL     1     -10.092   9.338  66.778  1.00  0.00    -0.261 C  
HETATM   13  C   UNL     1      -8.996   7.534  68.212  1.00  0.00    -0.130 C  
HETATM   14  H   UNL     1     -10.513   7.208  65.378  1.00  0.00     0.000 HD 
ENDROOT
BRANCH   3  15
HETATM   15  C   UNL     1     -12.011  13.135  66.663  1.00  0.00    -0.451 C  
BRANCH  15  16
HETATM   16  C   UNL     1     -11.222  14.321  66.041  1.00  0.00    -0.324 C  
BRANCH  16  17
HETATM   17  N   UNL     1     -10.364  15.069  66.974  1.00  0.00    -0.265 NA 
HETATM   18  C   UNL     1     -10.502  17.336  65.955  1.00  0.00    -0.267 C  
HETATM   19  C   UNL     1     -11.846  16.895  68.018  1.00  0.00     0.886 C  
HETATM   20  C   UNL     1      -9.611  16.164  66.357  1.00  0.00    -0.287 C  
HETATM   21  C   UNL     1     -11.116  17.978  67.208  1.00  0.00     0.135 C  
HETATM   22  C   UNL     1     -11.083  15.563  68.168  1.00  0.00    -0.325 C  
BRANCH  21  23
HETATM   23  C   UNL     1     -10.045  18.774  67.912  1.00  0.00    -0.366 A  
HETATM   24  N   UNL     1      -9.882  18.748  69.241  1.00  0.00    -0.199 NA 
HETATM   25  O   UNL     1      -8.623  19.283  69.478  1.00  0.00     0.020 OA 
HETATM   26  C   UNL     1      -8.054  19.654  68.299  1.00  0.00    -0.321 A  
HETATM   27  C   UNL     1      -8.953  19.430  67.273  1.00  0.00    -0.351 A  
HETATM   28  C   UNL     1      -8.580  19.755  65.955  1.00  0.00    -0.174 A  
HETATM   29  C   UNL     1      -7.298  20.274  65.737  1.00  0.00    -0.236 A  
HETATM   30  C   UNL     1      -6.413  20.445  66.802  1.00  0.00    -0.219 A  
HETATM   31  C   UNL     1      -6.765  20.146  68.118  1.00  0.00    -0.329 A  
HETATM   32  F   UNL     1      -5.179  20.901  66.547  1.00  0.00    -0.182 F  
ENDBRANCH  21  23
ENDBRANCH  16  17
ENDBRANCH  15  16
ENDBRANCH   3  15
TORSDOF 4
ENDMDL
MODEL      145
REMARK 921   NORMALIZED FREE ENERGY PREDICTED BY IDOCK:   -5.43 KCAL/MOL
REMARK 922        TOTAL FREE ENERGY PREDICTED BY IDOCK:   -6.98 KCAL/MOL
REMARK 923 INTER-LIGAND FREE ENERGY PREDICTED BY IDOCK:   -6.64 KCAL/MOL
REMARK 924 INTRA-LIGAND FREE ENERGY PREDICTED BY IDOCK:   -0.34 KCAL/MOL
REMARK 927      BINDING AFFINITY PREDICTED BY RF-SCORE:    0.00 PKD
ROOT
HETATM    1  C   UNL     1      -8.432   4.874  67.794  1.00  0.00    -0.104 C  
HETATM    2  C   UNL     1      -9.291   5.189  68.990  1.00  0.00    -0.121 C  
HETATM    3  C   UNL     1     -10.413   5.937  68.974  1.00  0.00    -0.332 C  
HETATM    4  C   UNL     1     -11.132   6.088  70.267  1.00  0.00    -0.345 C  
HETATM    5  O   UNL     1      -9.044   2.715  72.525  1.00  0.00    -0.080 OA 
HETATM    6  C   UNL     1      -8.790   4.117  72.499  1.00  0.00    -0.107 C  
HETATM    7  O   UNL     1     -12.155   6.771  70.328  1.00  0.00    -0.328 OA 
HETATM    8  N   UNL     1     -10.594   5.446  71.363  1.00  0.00    -0.232 N  
HETATM    9  C   UNL     1     -11.235   5.714  72.646  1.00  0.00    -0.300 C  
HETATM   10  N   UNL     1      -8.773   4.632  70.131  1.00  0.00    -0.080 NA 
HETATM   11  C   UNL     1     -10.791   4.814  73.785  1.00  0.00    -0.379 C  
HETATM   12  C   UNL     1      -9.396   4.785  71.252  1.00  0.00    -0.148 C  
HETATM   13  C   UNL     1      -9.275   4.735  73.801  1.00  0.00    -0.114 C  
HETATM   14  H   UNL     1      -8.741   2.328  71.712  1.00  0.00     0.000 HD 
ENDROOT
BRANCH   3  15
HETATM   15  C   UNL     1     -11.098   6.581  67.790  1.00  0.00    -0.366 C  
BRANCH  15  16
HETATM   16  C   UNL     1     -10.324   7.776  67.165  1.00  0.00    -0.319 C  
BRANCH  16  17
HETATM   17  N   UNL     1     -10.274   8.997  67.987  1.00  0.00    -0.202 NA 
HETATM   18  C   UNL     1      -8.275  10.096  66.991  1.00  0.00    -0.118 C  
HETATM   19  C   UNL     1     -10.530  10.975  66.362  1.00  0.00    -0.312 C  
HETATM   20  C   UNL     1      -8.921   9.500  68.238  1.00  0.00    -0.124 C  
HETATM   21  C   UNL     1      -9.050  11.345  66.549  1.00  0.00    -0.193 C  
HETATM   22  C   UNL     1     -11.129  10.088  67.472  1.00  0.00    -0.120 C  
BRANCH  21  23
HETATM   23  C   UNL     1      -8.727  12.472  67.499  1.00  0.00    -0.182 A  
HETATM   24  N   UNL     1      -7.482  12.931  67.678  1.00  0.00    -0.135 NA 
HETATM   25  O   UNL     1      -7.619  14.159  68.311  1.00  0.00    -0.110 OA 
HETATM   26  C   UNL     1      -8.936  14.415  68.534  1.00  0.00    -0.187 A  
HETATM   27  C   UNL     1      -9.685  13.331  68.111  1.00  0.00    -0.227 A  
HETATM   28  C   UNL     1     -11.085  13.370  68.257  1.00  0.00    -0.289 A  
HETATM   29  C   UNL     1     -11.663  14.520  68.808  1.00  0.00    -0.362 A  
HETATM   30  C   UNL     1     -10.867  15.603  69.182  1.00  0.00    -0.246 A  
HETATM   31  C   UNL     1      -9.477  15.582  69.063  1.00  0.00    -0.242 A  
HETATM   32  F   UNL     1     -11.462  16.703  69.663  1.00  0.00    -0.240 F  
ENDBRANCH  21  23
ENDBRANCH  16  17
ENDBRANCH  15  16
ENDBRANCH   3  15
TORSDOF 4
ENDMDL
MODEL      146
REMARK 921   NORMALIZED FREE ENERGY PREDICTED BY IDOCK:   -5.41 KCAL/MOL
REMARK 922        TOTAL FREE ENERGY PREDICTED BY IDOCK:   -6.95 KCAL/MOL
REMARK 923 INTER-LIGAND FREE ENERGY PREDICTED BY IDOCK:   -6.57 KCAL/MOL
REMARK 924 INTRA-LIGAND FREE ENERGY PREDICTED BY IDOCK:   -0.38 KCAL/MOL
REMARK 927      BINDING AFFINITY PREDICTED BY RF-SCORE:    0.00 PKD
ROOT
HETATM    1  C   UNL     1     -11.452   6.531  69.198  1.00  0.00    -0.245 C  
HETATM    2  C   UNL     1     -10.587   6.557  67.966  1.00  0.00    -0.251 C  
HETATM    3  C   UNL     1      -9.961   7.644  67.470  1.00  0.00    -0.233 C  
HETATM    4  C   UNL     1      -9.120   7.437  66.261  1.00  0.00    -0.156 C  
HETATM    5  O   UNL     1      -8.891   2.882  66.452  1.00  0.00    -0.131 OA 
HETATM    6  C   UNL     1      -9.751   3.742  65.710  1.00  0.00    -0.135 C  
HETATM    7  O   UNL     1      -8.534   8.390  65.747  1.00  0.00    -0.138 OA 
HETATM    8  N   UNL     1      -9.049   6.153  65.759  1.00  0.00    -0.096 N  
HETATM    9  C   UNL     1      -8.331   5.993  64.499  1.00  0.00    -0.045 C  
HETATM   10  N   UNL     1     -10.527   5.320  67.377  1.00  0.00    -0.182 NA 
HETATM   11  C   UNL     1      -8.053   4.556  64.099  1.00  0.00    -0.100 C  
HETATM   12  C   UNL     1      -9.809   5.155  66.317  1.00  0.00    -0.192 C  
HETATM   13  C   UNL     1      -9.322   3.737  64.252  1.00  0.00    -0.148 C  
HETATM   14  H   UNL     1      -9.158   2.884  67.364  1.00  0.00     0.000 HD 
ENDROOT
BRANCH   3  15
HETATM   15  C   UNL     1      -9.925   9.048  68.032  1.00  0.00    -0.213 C  
BRANCH  15  16
HETATM   16  C   UNL     1     -10.773  10.083  67.240  1.00  0.00    -0.244 C  
BRANCH  16  17
HETATM   17  N   UNL     1     -10.009  11.152  66.576  1.00  0.00    -0.207 NA 
HETATM   18  C   UNL     1     -11.597  13.048  66.855  1.00  0.00    -0.419 C  
HETATM   19  C   UNL     1      -9.597  12.964  68.355  1.00  0.00    -0.176 C  
HETATM   20  C   UNL     1     -10.835  12.147  65.888  1.00  0.00    -0.278 C  
HETATM   21  C   UNL     1     -10.607  13.896  67.667  1.00  0.00    -0.247 C  
HETATM   22  C   UNL     1      -9.044  11.829  67.469  1.00  0.00    -0.175 C  
BRANCH  21  23
HETATM   23  C   UNL     1     -10.060  14.981  66.774  1.00  0.00    -0.254 A  
HETATM   24  N   UNL     1     -10.806  15.605  65.854  1.00  0.00    -0.318 NA 
HETATM   25  O   UNL     1     -10.099  16.746  65.502  1.00  0.00    -0.566 OA 
HETATM   26  C   UNL     1      -8.924  16.786  66.187  1.00  0.00    -0.260 A  
HETATM   27  C   UNL     1      -8.807  15.639  66.952  1.00  0.00    -0.279 A  
HETATM   28  C   UNL     1      -7.655  15.458  67.740  1.00  0.00    -0.167 A  
HETATM   29  C   UNL     1      -6.681  16.463  67.732  1.00  0.00    -0.156 A  
HETATM   30  C   UNL     1      -6.864  17.620  66.974  1.00  0.00    -0.171 A  
HETATM   31  C   UNL     1      -7.988  17.815  66.172  1.00  0.00    -0.237 A  
HETATM   32  F   UNL     1      -5.930  18.579  67.028  1.00  0.00    -0.153 F  
ENDBRANCH  21  23
ENDBRANCH  16  17
ENDBRANCH  15  16
ENDBRANCH   3  15
TORSDOF 4
ENDMDL
MODEL      147
REMARK 921   NORMALIZED FREE ENERGY PREDICTED BY IDOCK:   -5.40 KCAL/MOL
REMARK 922        TOTAL FREE ENERGY PREDICTED BY IDOCK:   -6.93 KCAL/MOL
REMARK 923 INTER-LIGAND FREE ENERGY PREDICTED BY IDOCK:   -6.06 KCAL/MOL
REMARK 924 INTRA-LIGAND FREE ENERGY PREDICTED BY IDOCK:   -0.87 KCAL/MOL
REMARK 927      BINDING AFFINITY PREDICTED BY RF-SCORE:    0.00 PKD
ROOT
HETATM    1  C   UNL     1      -5.643   6.535  71.265  1.00  0.00    -0.027 C  
HETATM    2  C   UNL     1      -7.105   6.821  71.487  1.00  0.00    -0.079 C  
HETATM    3  C   UNL     1      -7.703   8.018  71.322  1.00  0.00    -0.090 C  
HETATM    4  C   UNL     1      -9.171   8.069  71.556  1.00  0.00    -0.147 C  
HETATM    5  O   UNL     1      -9.956   3.573  71.481  1.00  0.00    -0.172 OA 
HETATM    6  C   UNL     1      -9.748   4.465  72.572  1.00  0.00    -0.153 C  
HETATM    7  O   UNL     1      -9.777   9.134  71.439  1.00  0.00    -0.295 OA 
HETATM    8  N   UNL     1      -9.790   6.889  71.913  1.00  0.00    -0.165 N  
HETATM    9  C   UNL     1     -11.202   6.985  72.269  1.00  0.00    -0.263 C  
HETATM   10  N   UNL     1      -7.771   5.699  71.909  1.00  0.00    -0.103 NA 
HETATM   11  C   UNL     1     -11.917   5.654  72.414  1.00  0.00    -0.105 C  
HETATM   12  C   UNL     1      -9.042   5.758  72.127  1.00  0.00    -0.143 C  
HETATM   13  C   UNL     1     -11.076   4.721  73.267  1.00  0.00    -0.411 C  
HETATM   14  H   UNL     1      -9.126   3.413  71.047  1.00  0.00     0.000 HD 
ENDROOT
BRANCH   3  15
HETATM   15  C   UNL     1      -7.094   9.317  70.841  1.00  0.00    -0.110 C  
BRANCH  15  16
HETATM   16  C   UNL     1      -6.691   9.324  69.339  1.00  0.00    -0.048 C  
BRANCH  16  17
HETATM   17  N   UNL     1      -7.805   9.204  68.384  1.00  0.00    -0.101 NA 
HETATM   18  C   UNL     1      -8.055  11.590  67.720  1.00  0.00    -0.133 C  
HETATM   19  C   UNL     1      -6.912  10.042  66.121  1.00  0.00    -0.107 C  
HETATM   20  C   UNL     1      -8.702  10.361  68.353  1.00  0.00    -0.129 C  
HETATM   21  C   UNL     1      -7.762  11.318  66.237  1.00  0.00    -0.053 C  
HETATM   22  C   UNL     1      -7.369   8.869  67.011  1.00  0.00    -0.083 C  
BRANCH  21  23
HETATM   23  C   UNL     1      -9.063  11.363  65.474  1.00  0.00    -0.137 A  
HETATM   24  N   UNL     1      -9.574  10.292  64.855  1.00  0.00    -0.278 NA 
HETATM   25  O   UNL     1     -10.901  10.604  64.592  1.00  0.00    -0.141 OA 
HETATM   26  C   UNL     1     -11.169  11.866  65.025  1.00  0.00    -0.293 A  
HETATM   27  C   UNL     1     -10.007  12.430  65.521  1.00  0.00    -0.260 A  
HETATM   28  C   UNL     1     -10.045  13.747  66.017  1.00  0.00    -0.320 A  
HETATM   29  C   UNL     1     -11.270  14.425  66.006  1.00  0.00    -0.333 A  
HETATM   30  C   UNL     1     -12.422  13.798  65.531  1.00  0.00    -0.512 A  
HETATM   31  C   UNL     1     -12.407  12.500  65.019  1.00  0.00    -0.522 A  
HETATM   32  F   UNL     1     -13.583  14.464  65.579  1.00  0.00    -0.351 F  
ENDBRANCH  21  23
ENDBRANCH  16  17
ENDBRANCH  15  16
ENDBRANCH   3  15
TORSDOF 4
ENDMDL
MODEL      148
REMARK 921   NORMALIZED FREE ENERGY PREDICTED BY IDOCK:   -5.39 KCAL/MOL
REMARK 922        TOTAL FREE ENERGY PREDICTED BY IDOCK:   -6.92 KCAL/MOL
REMARK 923 INTER-LIGAND FREE ENERGY PREDICTED BY IDOCK:   -6.49 KCAL/MOL
REMARK 924 INTRA-LIGAND FREE ENERGY PREDICTED BY IDOCK:   -0.43 KCAL/MOL
REMARK 927      BINDING AFFINITY PREDICTED BY RF-SCORE:    0.00 PKD
ROOT
HETATM    1  C   UNL     1     -12.418  13.684  71.001  1.00  0.00    -0.456 C  
HETATM    2  C   UNL     1     -11.746  13.739  69.654  1.00  0.00    -0.318 C  
HETATM    3  C   UNL     1     -11.668  12.719  68.775  1.00  0.00    -0.363 C  
HETATM    4  C   UNL     1     -10.992  13.005  67.481  1.00  0.00    -0.259 C  
HETATM    5  O   UNL     1     -11.013  17.560  67.773  1.00  0.00    -0.314 OA 
HETATM    6  C   UNL     1     -10.001  16.609  68.095  1.00  0.00    -0.259 C  
HETATM    7  O   UNL     1     -10.872  12.114  66.639  1.00  0.00    -0.248 OA 
HETATM    8  N   UNL     1     -10.512  14.285  67.293  1.00  0.00    -0.268 N  
HETATM    9  C   UNL     1      -9.736  14.509  66.078  1.00  0.00    -0.303 C  
HETATM   10  N   UNL     1     -11.188  14.971  69.430  1.00  0.00    -0.268 NA 
HETATM   11  C   UNL     1      -9.435  15.964  65.770  1.00  0.00    -0.316 C  
HETATM   12  C   UNL     1     -10.587  15.202  68.311  1.00  0.00    -0.243 C  
HETATM   13  C   UNL     1      -8.922  16.647  67.025  1.00  0.00    -0.227 C  
HETATM   14  H   UNL     1     -11.687  17.536  68.442  1.00  0.00     0.000 HD 
ENDROOT
BRANCH   3  15
HETATM   15  C   UNL     1     -12.258  11.332  68.888  1.00  0.00    -0.160 C  
BRANCH  15  16
HETATM   16  C   UNL     1     -11.808  10.538  70.147  1.00  0.00    -0.320 C  
BRANCH  16  17
HETATM   17  N   UNL     1     -10.417  10.057  70.129  1.00  0.00    -0.279 NA 
HETATM   18  C   UNL     1     -10.755   7.747  70.994  1.00  0.00    -0.241 C  
HETATM   19  C   UNL     1     -10.370   8.035  68.539  1.00  0.00    -0.229 C  
HETATM   20  C   UNL     1     -10.092   9.107  71.196  1.00  0.00    -0.314 C  
HETATM   21  C   UNL     1     -10.196   7.078  69.730  1.00  0.00    -0.213 C  
HETATM   22  C   UNL     1     -10.002   9.505  68.821  1.00  0.00    -0.174 C  
BRANCH  21  23
HETATM   23  C   UNL     1      -8.803   6.579  70.026  1.00  0.00    -0.144 A  
HETATM   24  N   UNL     1      -8.307   6.519  71.269  1.00  0.00    -0.124 NA 
HETATM   25  O   UNL     1      -7.192   5.695  71.191  1.00  0.00    -0.071 OA 
HETATM   26  C   UNL     1      -7.009   5.293  69.904  1.00  0.00    -0.057 A  
HETATM   27  C   UNL     1      -7.960   5.897  69.102  1.00  0.00    -0.099 A  
HETATM   28  C   UNL     1      -7.953   5.633  67.719  1.00  0.00    -0.098 A  
HETATM   29  C   UNL     1      -6.991   4.749  67.216  1.00  0.00    -0.061 A  
HETATM   30  C   UNL     1      -6.078   4.135  68.073  1.00  0.00    -0.032 A  
HETATM   31  C   UNL     1      -6.053   4.393  69.444  1.00  0.00    -0.026 A  
HETATM   32  F   UNL     1      -5.202   3.261  67.560  1.00  0.00    -0.007 F  
ENDBRANCH  21  23
ENDBRANCH  16  17
ENDBRANCH  15  16
ENDBRANCH   3  15
TORSDOF 4
ENDMDL
MODEL      149
REMARK 921   NORMALIZED FREE ENERGY PREDICTED BY IDOCK:   -5.36 KCAL/MOL
REMARK 922        TOTAL FREE ENERGY PREDICTED BY IDOCK:   -6.89 KCAL/MOL
REMARK 923 INTER-LIGAND FREE ENERGY PREDICTED BY IDOCK:   -6.48 KCAL/MOL
REMARK 924 INTRA-LIGAND FREE ENERGY PREDICTED BY IDOCK:   -0.41 KCAL/MOL
REMARK 927      BINDING AFFINITY PREDICTED BY RF-SCORE:    0.00 PKD
ROOT
HETATM    1  C   UNL     1      -5.900   9.638  67.474  1.00  0.00    -0.047 C  
HETATM    2  C   UNL     1      -7.300   9.205  67.824  1.00  0.00    -0.084 C  
HETATM    3  C   UNL     1      -8.409   9.964  67.700  1.00  0.00    -0.114 C  
HETATM    4  C   UNL     1      -9.700   9.322  68.066  1.00  0.00    -0.150 C  
HETATM    5  O   UNL     1      -8.241   4.998  68.116  1.00  0.00    -0.096 OA 
HETATM    6  C   UNL     1      -8.405   5.939  69.174  1.00  0.00    -0.106 C  
HETATM    7  O   UNL     1     -10.749   9.963  67.992  1.00  0.00    -0.224 OA 
HETATM    8  N   UNL     1      -9.650   8.011  68.492  1.00  0.00    -0.153 N  
HETATM    9  C   UNL     1     -10.905   7.443  68.974  1.00  0.00    -0.086 C  
HETATM   10  N   UNL     1      -7.314   7.926  68.318  1.00  0.00    -0.096 NA 
HETATM   11  C   UNL     1     -10.883   5.942  69.199  1.00  0.00    -0.406 C  
HETATM   12  C   UNL     1      -8.439   7.386  68.651  1.00  0.00    -0.129 C  
HETATM   13  C   UNL     1      -9.638   5.569  69.983  1.00  0.00    -0.218 C  
HETATM   14  H   UNL     1      -7.470   5.228  67.610  1.00  0.00     0.000 HD 
ENDROOT
BRANCH   3  15
HETATM   15  C   UNL     1      -8.533  11.367  67.150  1.00  0.00    -0.153 C  
BRANCH  15  16
HETATM   16  C   UNL     1      -8.193  12.493  68.167  1.00  0.00    -0.170 C  
BRANCH  16  17
HETATM   17  N   UNL     1      -7.658  13.734  67.582  1.00  0.00    -0.166 NA 
HETATM   18  C   UNL     1      -9.228  15.386  68.581  1.00  0.00    -0.199 C  
HETATM   19  C   UNL     1      -6.932  15.213  69.558  1.00  0.00    -0.189 C  
HETATM   20  C   UNL     1      -8.669  14.757  67.308  1.00  0.00    -0.210 C  
HETATM   21  C   UNL     1      -8.119  16.157  69.311  1.00  0.00    -0.186 C  
HETATM   22  C   UNL     1      -6.546  14.320  68.361  1.00  0.00    -0.105 C  
BRANCH  21  23
HETATM   23  C   UNL     1      -7.849  17.437  68.559  1.00  0.00    -0.268 A  
HETATM   24  N   UNL     1      -6.615  17.824  68.212  1.00  0.00    -0.191 NA 
HETATM   25  O   UNL     1      -6.784  18.812  67.251  1.00  0.00    -0.200 OA 
HETATM   26  C   UNL     1      -8.112  19.033  67.051  1.00  0.00    -0.265 A  
HETATM   27  C   UNL     1      -8.839  18.241  67.922  1.00  0.00    -0.278 A  
HETATM   28  C   UNL     1     -10.244  18.314  67.900  1.00  0.00    -0.400 A  
HETATM   29  C   UNL     1     -10.850  19.175  66.976  1.00  0.00    -0.479 A  
HETATM   30  C   UNL     1     -10.073  19.923  66.091  1.00  0.00    -0.504 A  
HETATM   31  C   UNL     1      -8.679  19.881  66.105  1.00  0.00    -0.350 A  
HETATM   32  F   UNL     1     -10.691  20.700  65.192  1.00  0.00    -0.259 F  
ENDBRANCH  21  23
ENDBRANCH  16  17
ENDBRANCH  15  16
ENDBRANCH   3  15
TORSDOF 4
ENDMDL
MODEL      150
REMARK 921   NORMALIZED FREE ENERGY PREDICTED BY IDOCK:   -5.35 KCAL/MOL
REMARK 922        TOTAL FREE ENERGY PREDICTED BY IDOCK:   -6.88 KCAL/MOL
REMARK 923 INTER-LIGAND FREE ENERGY PREDICTED BY IDOCK:   -7.01 KCAL/MOL
REMARK 924 INTRA-LIGAND FREE ENERGY PREDICTED BY IDOCK:    0.13 KCAL/MOL
REMARK 927      BINDING AFFINITY PREDICTED BY RF-SCORE:    0.00 PKD
ROOT
HETATM    1  C   UNL     1     -11.678  15.857  64.486  1.00  0.00    -0.161 C  
HETATM    2  C   UNL     1     -10.686  16.481  65.432  1.00  0.00    -0.259 C  
HETATM    3  C   UNL     1      -9.732  15.818  66.117  1.00  0.00    -0.351 C  
HETATM    4  C   UNL     1      -8.829  16.639  66.968  1.00  0.00    -0.199 C  
HETATM    5  O   UNL     1      -9.859  20.717  65.194  1.00  0.00    -0.250 OA 
HETATM    6  C   UNL     1     -10.353  20.052  66.354  1.00  0.00    -0.455 C  
HETATM    7  O   UNL     1      -7.946  16.095  67.633  1.00  0.00    -0.138 OA 
HETATM    8  N   UNL     1      -9.041  18.002  66.975  1.00  0.00    -0.253 N  
HETATM    9  C   UNL     1      -8.236  18.774  67.915  1.00  0.00    -0.269 C  
HETATM   10  N   UNL     1     -10.885  17.834  65.536  1.00  0.00    -0.411 NA 
HETATM   11  C   UNL     1      -8.305  20.279  67.732  1.00  0.00    -0.267 C  
HETATM   12  C   UNL     1     -10.107  18.535  66.292  1.00  0.00    -0.398 C  
HETATM   13  C   UNL     1      -9.757  20.702  67.592  1.00  0.00    -0.445 C  
HETATM   14  H   UNL     1     -10.232  20.311  64.420  1.00  0.00     0.000 HD 
ENDROOT
BRANCH   3  15
HETATM   15  C   UNL     1      -9.393  14.345  66.072  1.00  0.00    -0.167 C  
BRANCH  15  16
HETATM   16  C   UNL     1     -10.431  13.421  66.770  1.00  0.00    -0.275 C  
BRANCH  16  17
HETATM   17  N   UNL     1      -9.866  12.283  67.514  1.00  0.00    -0.190 NA 
HETATM   18  C   UNL     1     -11.302  12.349  69.546  1.00  0.00    -0.250 C  
HETATM   19  C   UNL     1     -11.784  10.598  67.828  1.00  0.00     0.144 C  
HETATM   20  C   UNL     1      -9.892  12.441  68.970  1.00  0.00     0.265 C  
HETATM   21  C   UNL     1     -11.864  10.938  69.324  1.00  0.00    -0.395 C  
HETATM   22  C   UNL     1     -10.459  10.981  67.139  1.00  0.00    -0.232 C  
BRANCH  21  23
HETATM   23  C   UNL     1     -11.192   9.996  70.292  1.00  0.00    -0.313 A  
HETATM   24  N   UNL     1     -11.605   9.844  71.557  1.00  0.00    -0.354 NA 
HETATM   25  O   UNL     1     -11.012   8.674  72.011  1.00  0.00    -0.316 OA 
HETATM   26  C   UNL     1     -10.227   8.149  71.032  1.00  0.00    -0.188 A  
HETATM   27  C   UNL     1     -10.238   8.998  69.939  1.00  0.00    -0.214 A  
HETATM   28  C   UNL     1      -9.479   8.658  68.803  1.00  0.00    -0.143 A  
HETATM   29  C   UNL     1      -8.758   7.458  68.821  1.00  0.00    -0.128 A  
HETATM   30  C   UNL     1      -8.811   6.617  69.932  1.00  0.00    -0.144 A  
HETATM   31  C   UNL     1      -9.543   6.938  71.076  1.00  0.00    -0.172 A  
HETATM   32  F   UNL     1      -8.145   5.455  69.893  1.00  0.00    -0.082 F  
ENDBRANCH  21  23
ENDBRANCH  16  17
ENDBRANCH  15  16
ENDBRANCH   3  15
TORSDOF 4
ENDMDL
MODEL      151
REMARK 921   NORMALIZED FREE ENERGY PREDICTED BY IDOCK:   -5.30 KCAL/MOL
REMARK 922        TOTAL FREE ENERGY PREDICTED BY IDOCK:   -6.81 KCAL/MOL
REMARK 923 INTER-LIGAND FREE ENERGY PREDICTED BY IDOCK:   -6.43 KCAL/MOL
REMARK 924 INTRA-LIGAND FREE ENERGY PREDICTED BY IDOCK:   -0.38 KCAL/MOL
REMARK 927      BINDING AFFINITY PREDICTED BY RF-SCORE:    0.00 PKD
ROOT
HETATM    1  C   UNL     1      -5.592   4.925  71.432  1.00  0.00    -0.012 C  
HETATM    2  C   UNL     1      -6.980   5.183  71.958  1.00  0.00    -0.073 C  
HETATM    3  C   UNL     1      -7.547   6.397  72.111  1.00  0.00    -0.094 C  
HETATM    4  C   UNL     1      -8.948   6.421  72.611  1.00  0.00    -0.132 C  
HETATM    5  O   UNL     1      -9.920   2.016  71.910  1.00  0.00    -0.143 OA 
HETATM    6  C   UNL     1      -9.487   2.700  73.082  1.00  0.00    -0.089 C  
HETATM    7  O   UNL     1      -9.521   7.496  72.789  1.00  0.00    -0.148 OA 
HETATM    8  N   UNL     1      -9.543   5.202  72.866  1.00  0.00    -0.143 N  
HETATM    9  C   UNL     1     -10.866   5.248  73.481  1.00  0.00    -0.304 C  
HETATM   10  N   UNL     1      -7.607   4.011  72.294  1.00  0.00    -0.073 NA 
HETATM   11  C   UNL     1     -11.599   3.921  73.522  1.00  0.00    -0.107 C  
HETATM   12  C   UNL     1      -8.817   4.044  72.745  1.00  0.00    -0.102 C  
HETATM   13  C   UNL     1     -10.661   2.844  74.037  1.00  0.00    -0.256 C  
HETATM   14  H   UNL     1      -9.187   1.926  71.312  1.00  0.00     0.000 HD 
ENDROOT
BRANCH   3  15
HETATM   15  C   UNL     1      -6.979   7.753  71.758  1.00  0.00    -0.064 C  
BRANCH  15  16
HETATM   16  C   UNL     1      -7.289   8.227  70.310  1.00  0.00    -0.055 C  
BRANCH  16  17
HETATM   17  N   UNL     1      -8.632   8.792  70.102  1.00  0.00    -0.137 NA 
HETATM   18  C   UNL     1      -8.204  10.177  68.079  1.00  0.00    -0.113 C  
HETATM   19  C   UNL     1      -9.400   8.002  67.777  1.00  0.00    -0.151 C  
HETATM   20  C   UNL     1      -8.639  10.145  69.541  1.00  0.00    -0.164 C  
HETATM   21  C   UNL     1      -9.223   9.421  67.216  1.00  0.00    -0.151 C  
HETATM   22  C   UNL     1      -9.523   7.915  69.312  1.00  0.00    -0.152 C  
BRANCH  21  23
HETATM   23  C   UNL     1     -10.459  10.275  67.074  1.00  0.00    -0.244 A  
HETATM   24  N   UNL     1     -11.354  10.419  68.059  1.00  0.00    -0.342 NA 
HETATM   25  O   UNL     1     -12.123  11.523  67.714  1.00  0.00    -0.626 OA 
HETATM   26  C   UNL     1     -11.707  12.013  66.515  1.00  0.00    -0.256 A  
HETATM   27  C   UNL     1     -10.701  11.203  66.019  1.00  0.00    -0.272 A  
HETATM   28  C   UNL     1     -10.125  11.515  64.773  1.00  0.00    -0.316 A  
HETATM   29  C   UNL     1     -10.583  12.651  64.096  1.00  0.00    -0.434 A  
HETATM   30  C   UNL     1     -11.572  13.459  64.657  1.00  0.00    -0.355 A  
HETATM   31  C   UNL     1     -12.171  13.162  65.882  1.00  0.00    -0.497 A  
HETATM   32  F   UNL     1     -11.951  14.563  63.999  1.00  0.00    -0.427 F  
ENDBRANCH  21  23
ENDBRANCH  16  17
ENDBRANCH  15  16
ENDBRANCH   3  15
TORSDOF 4
ENDMDL
MODEL      152
REMARK 921   NORMALIZED FREE ENERGY PREDICTED BY IDOCK:   -5.28 KCAL/MOL
REMARK 922        TOTAL FREE ENERGY PREDICTED BY IDOCK:   -6.79 KCAL/MOL
REMARK 923 INTER-LIGAND FREE ENERGY PREDICTED BY IDOCK:   -6.21 KCAL/MOL
REMARK 924 INTRA-LIGAND FREE ENERGY PREDICTED BY IDOCK:   -0.58 KCAL/MOL
REMARK 927      BINDING AFFINITY PREDICTED BY RF-SCORE:    0.00 PKD
ROOT
HETATM    1  C   UNL     1      -7.886  12.749  66.604  1.00  0.00     0.369 C  
HETATM    2  C   UNL     1      -8.881  11.710  67.051  1.00  0.00    -0.177 C  
HETATM    3  C   UNL     1     -10.145  11.957  67.452  1.00  0.00    -0.211 C  
HETATM    4  C   UNL     1     -10.973  10.775  67.813  1.00  0.00    -0.297 C  
HETATM    5  O   UNL     1      -8.315   7.572  65.939  1.00  0.00    -0.125 OA 
HETATM    6  C   UNL     1      -8.401   8.045  67.281  1.00  0.00    -0.122 C  
HETATM    7  O   UNL     1     -12.131  10.930  68.203  1.00  0.00    -0.563 OA 
HETATM    8  N   UNL     1     -10.380   9.535  67.698  1.00  0.00    -0.228 N  
HETATM    9  C   UNL     1     -11.160   8.400  68.182  1.00  0.00     0.389 C  
HETATM   10  N   UNL     1      -8.332  10.454  67.022  1.00  0.00    -0.126 NA 
HETATM   11  C   UNL     1     -10.599   7.037  67.821  1.00  0.00    -0.298 C  
HETATM   12  C   UNL     1      -9.054   9.436  67.355  1.00  0.00    -0.126 C  
HETATM   13  C   UNL     1      -9.114   7.006  68.131  1.00  0.00    -0.128 C  
HETATM   14  H   UNL     1      -7.869   8.221  65.407  1.00  0.00     0.000 HD 
ENDROOT
BRANCH   3  15
HETATM   15  C   UNL     1     -10.875  13.280  67.505  1.00  0.00    -0.276 C  
BRANCH  15  16
HETATM   16  C   UNL     1     -10.871  13.966  68.900  1.00  0.00    -0.255 C  
BRANCH  16  17
HETATM   17  N   UNL     1     -10.670  15.425  68.888  1.00  0.00    -0.235 NA 
HETATM   18  C   UNL     1      -8.188  15.514  69.062  1.00  0.00    -0.227 C  
HETATM   19  C   UNL     1      -9.222  15.940  66.824  1.00  0.00    -0.264 C  
HETATM   20  C   UNL     1      -9.531  15.885  69.686  1.00  0.00    -0.148 C  
HETATM   21  C   UNL     1      -8.015  16.248  67.725  1.00  0.00    -0.154 C  
HETATM   22  C   UNL     1     -10.594  15.997  67.526  1.00  0.00    -0.313 C  
BRANCH  21  23
HETATM   23  C   UNL     1      -7.708  17.698  68.009  1.00  0.00    -0.232 A  
HETATM   24  N   UNL     1      -8.433  18.703  67.501  1.00  0.00    -0.264 NA 
HETATM   25  O   UNL     1      -8.101  19.825  68.248  1.00  0.00    -0.321 OA 
HETATM   26  C   UNL     1      -7.161  19.495  69.176  1.00  0.00    -0.347 A  
HETATM   27  C   UNL     1      -6.811  18.167  69.012  1.00  0.00    -0.257 A  
HETATM   28  C   UNL     1      -5.837  17.608  69.862  1.00  0.00    -0.247 A  
HETATM   29  C   UNL     1      -5.278  18.421  70.855  1.00  0.00    -0.274 A  
HETATM   30  C   UNL     1      -5.694  19.744  71.005  1.00  0.00    -0.266 A  
HETATM   31  C   UNL     1      -6.644  20.325  70.165  1.00  0.00    -0.146 A  
HETATM   32  F   UNL     1      -5.169  20.476  71.996  1.00  0.00    -0.342 F  
ENDBRANCH  21  23
ENDBRANCH  16  17
ENDBRANCH  15  16
ENDBRANCH   3  15
TORSDOF 4
ENDMDL
MODEL      153
REMARK 921   NORMALIZED FREE ENERGY PREDICTED BY IDOCK:   -5.25 KCAL/MOL
REMARK 922        TOTAL FREE ENERGY PREDICTED BY IDOCK:   -6.75 KCAL/MOL
REMARK 923 INTER-LIGAND FREE ENERGY PREDICTED BY IDOCK:   -6.05 KCAL/MOL
REMARK 924 INTRA-LIGAND FREE ENERGY PREDICTED BY IDOCK:   -0.70 KCAL/MOL
REMARK 927      BINDING AFFINITY PREDICTED BY RF-SCORE:    0.00 PKD
ROOT
HETATM    1  C   UNL     1      -9.727   7.831  72.449  1.00  0.00    -0.249 C  
HETATM    2  C   UNL     1      -9.766   7.163  71.100  1.00  0.00    -0.168 C  
HETATM    3  C   UNL     1     -10.579   7.505  70.080  1.00  0.00    -0.242 C  
HETATM    4  C   UNL     1     -10.422   6.736  68.816  1.00  0.00    -0.208 C  
HETATM    5  O   UNL     1      -6.394   4.813  69.767  1.00  0.00    -0.028 OA 
HETATM    6  C   UNL     1      -7.721   4.315  69.909  1.00  0.00    -0.053 C  
HETATM    7  O   UNL     1     -11.144   6.985  67.849  1.00  0.00    -0.160 OA 
HETATM    8  N   UNL     1      -9.458   5.749  68.797  1.00  0.00    -0.121 N  
HETATM    9  C   UNL     1      -9.410   4.918  67.599  1.00  0.00    -0.130 C  
HETATM   10  N   UNL     1      -8.872   6.125  71.036  1.00  0.00    -0.139 NA 
HETATM   11  C   UNL     1      -8.195   4.015  67.495  1.00  0.00    -0.094 C  
HETATM   12  C   UNL     1      -8.758   5.452  69.940  1.00  0.00    -0.121 C  
HETATM   13  C   UNL     1      -7.990   3.294  68.815  1.00  0.00    -0.064 C  
HETATM   14  H   UNL     1      -6.225   5.451  70.451  1.00  0.00     0.000 HD 
ENDROOT
BRANCH   3  15
HETATM   15  C   UNL     1     -11.582   8.635  70.012  1.00  0.00     0.166 C  
BRANCH  15  16
HETATM   16  C   UNL     1     -10.954  10.050  69.871  1.00  0.00    -0.293 C  
BRANCH  16  17
HETATM   17  N   UNL     1     -10.934  10.600  68.506  1.00  0.00    -0.229 NA 
HETATM   18  C   UNL     1     -10.567  13.007  69.023  1.00  0.00    -0.079 C  
HETATM   19  C   UNL     1      -8.619  11.678  68.192  1.00  0.00    -0.158 C  
HETATM   20  C   UNL     1     -11.477  11.956  68.393  1.00  0.00    -0.299 C  
HETATM   21  C   UNL     1      -9.243  13.081  68.250  1.00  0.00    -0.191 C  
HETATM   22  C   UNL     1      -9.603  10.536  67.865  1.00  0.00    -0.150 C  
BRANCH  21  23
HETATM   23  C   UNL     1      -9.490  13.790  66.942  1.00  0.00    -0.262 A  
HETATM   24  N   UNL     1      -9.825  13.141  65.820  1.00  0.00    -0.244 NA 
HETATM   25  O   UNL     1     -10.315  14.109  64.954  1.00  0.00    -0.411 OA 
HETATM   26  C   UNL     1     -10.244  15.331  65.546  1.00  0.00    -0.388 A  
HETATM   27  C   UNL     1      -9.645  15.199  66.786  1.00  0.00    -0.260 A  
HETATM   28  C   UNL     1      -9.455  16.347  67.579  1.00  0.00    -0.224 A  
HETATM   29  C   UNL     1      -9.902  17.577  67.083  1.00  0.00    -0.297 A  
HETATM   30  C   UNL     1     -10.535  17.653  65.842  1.00  0.00    -0.246 A  
HETATM   31  C   UNL     1     -10.721  16.533  65.031  1.00  0.00    -0.228 A  
HETATM   32  F   UNL     1     -10.990  18.841  65.423  1.00  0.00    -0.477 F  
ENDBRANCH  21  23
ENDBRANCH  16  17
ENDBRANCH  15  16
ENDBRANCH   3  15
TORSDOF 4
ENDMDL
MODEL      154
REMARK 921   NORMALIZED FREE ENERGY PREDICTED BY IDOCK:   -5.25 KCAL/MOL
REMARK 922        TOTAL FREE ENERGY PREDICTED BY IDOCK:   -6.75 KCAL/MOL
REMARK 923 INTER-LIGAND FREE ENERGY PREDICTED BY IDOCK:   -6.30 KCAL/MOL
REMARK 924 INTRA-LIGAND FREE ENERGY PREDICTED BY IDOCK:   -0.45 KCAL/MOL
REMARK 927      BINDING AFFINITY PREDICTED BY RF-SCORE:    0.00 PKD
ROOT
HETATM    1  C   UNL     1      -8.497   7.763  68.048  1.00  0.00    -0.123 C  
HETATM    2  C   UNL     1      -9.208   7.871  69.371  1.00  0.00    -0.145 C  
HETATM    3  C   UNL     1     -10.086   8.836  69.711  1.00  0.00    -0.198 C  
HETATM    4  C   UNL     1     -10.706   8.729  71.060  1.00  0.00    -0.229 C  
HETATM    5  O   UNL     1      -9.548   4.399  71.921  1.00  0.00    -0.137 OA 
HETATM    6  C   UNL     1      -8.926   5.623  72.300  1.00  0.00    -0.139 C  
HETATM    7  O   UNL     1     -11.504   9.585  71.441  1.00  0.00    -0.342 OA 
HETATM    8  N   UNL     1     -10.333   7.652  71.837  1.00  0.00    -0.195 N  
HETATM    9  C   UNL     1     -10.845   7.636  73.203  1.00  0.00    -0.382 C  
HETATM   10  N   UNL     1      -8.831   6.862  70.220  1.00  0.00    -0.148 NA 
HETATM   11  C   UNL     1     -10.631   6.334  73.952  1.00  0.00    -0.231 C  
HETATM   12  C   UNL     1      -9.361   6.790  71.395  1.00  0.00    -0.157 C  
HETATM   13  C   UNL     1      -9.193   5.882  73.774  1.00  0.00    -0.127 C  
HETATM   14  H   UNL     1      -9.382   4.236  70.999  1.00  0.00     0.000 HD 
ENDROOT
BRANCH   3  15
HETATM   15  C   UNL     1     -10.603   9.980  68.868  1.00  0.00    -0.239 C  
BRANCH  15  16
HETATM   16  C   UNL     1      -9.504  10.952  68.353  1.00  0.00    -0.178 C  
BRANCH  16  17
HETATM   17  N   UNL     1      -9.539  12.308  68.926  1.00  0.00     0.079 NA 
HETATM   18  C   UNL     1      -8.739  13.618  66.967  1.00  0.00    -0.204 C  
HETATM   19  C   UNL     1     -11.185  13.661  67.485  1.00  0.00    -0.316 C  
HETATM   20  C   UNL     1      -8.500  13.206  68.417  1.00  0.00    -0.126 C  
HETATM   21  C   UNL     1     -10.022  14.455  66.868  1.00  0.00    -0.261 C  
HETATM   22  C   UNL     1     -10.863  12.958  68.819  1.00  0.00    -0.242 C  
BRANCH  21  23
HETATM   23  C   UNL     1      -9.744  15.830  67.423  1.00  0.00    -0.223 A  
HETATM   24  N   UNL     1     -10.391  16.325  68.485  1.00  0.00    -0.248 NA 
HETATM   25  O   UNL     1      -9.640  17.412  68.913  1.00  0.00    -0.271 OA 
HETATM   26  C   UNL     1      -8.569  17.581  68.090  1.00  0.00    -0.258 A  
HETATM   27  C   UNL     1      -8.632  16.649  67.070  1.00  0.00    -0.220 A  
HETATM   28  C   UNL     1      -7.624  16.645  66.086  1.00  0.00    -0.090 A  
HETATM   29  C   UNL     1      -6.585  17.577  66.197  1.00  0.00    -0.282 A  
HETATM   30  C   UNL     1      -6.546  18.470  67.268  1.00  0.00    -0.199 A  
HETATM   31  C   UNL     1      -7.541  18.505  68.245  1.00  0.00    -0.305 A  
HETATM   32  F   UNL     1      -5.511  19.315  67.363  1.00  0.00    -0.161 F  
ENDBRANCH  21  23
ENDBRANCH  16  17
ENDBRANCH  15  16
ENDBRANCH   3  15
TORSDOF 4
ENDMDL
MODEL      155
REMARK 921   NORMALIZED FREE ENERGY PREDICTED BY IDOCK:   -5.22 KCAL/MOL
REMARK 922        TOTAL FREE ENERGY PREDICTED BY IDOCK:   -6.71 KCAL/MOL
REMARK 923 INTER-LIGAND FREE ENERGY PREDICTED BY IDOCK:   -6.10 KCAL/MOL
REMARK 924 INTRA-LIGAND FREE ENERGY PREDICTED BY IDOCK:   -0.61 KCAL/MOL
REMARK 927      BINDING AFFINITY PREDICTED BY RF-SCORE:    0.00 PKD
ROOT
HETATM    1  C   UNL     1     -11.007   6.051  67.951  1.00  0.00    -0.334 C  
HETATM    2  C   UNL     1      -9.783   6.899  67.724  1.00  0.00    -0.129 C  
HETATM    3  C   UNL     1      -9.101   7.563  68.680  1.00  0.00    -0.134 C  
HETATM    4  C   UNL     1      -7.892   8.310  68.240  1.00  0.00    -0.118 C  
HETATM    5  O   UNL     1      -7.437   6.371  64.133  1.00  0.00    -0.070 OA 
HETATM    6  C   UNL     1      -8.055   7.594  64.523  1.00  0.00    -0.098 C  
HETATM    7  O   UNL     1      -7.232   8.951  69.059  1.00  0.00    -0.070 OA 
HETATM    8  N   UNL     1      -7.572   8.252  66.899  1.00  0.00    -0.091 N  
HETATM    9  C   UNL     1      -6.465   9.097  66.465  1.00  0.00    -0.067 C  
HETATM   10  N   UNL     1      -9.447   6.938  66.395  1.00  0.00    -0.154 NA 
HETATM   11  C   UNL     1      -5.974   8.832  65.053  1.00  0.00    -0.059 C  
HETATM   12  C   UNL     1      -8.406   7.605  66.022  1.00  0.00    -0.135 C  
HETATM   13  C   UNL     1      -7.164   8.756  64.113  1.00  0.00    -0.091 C  
HETATM   14  H   UNL     1      -7.994   5.645  64.389  1.00  0.00     0.000 HD 
ENDROOT
BRANCH   3  15
HETATM   15  C   UNL     1      -9.348   7.582  70.172  1.00  0.00    -0.157 C  
BRANCH  15  16
HETATM   16  C   UNL     1     -10.824   7.852  70.579  1.00  0.00    -0.241 C  
BRANCH  16  17
HETATM   17  N   UNL     1     -11.053   9.088  71.346  1.00  0.00    -0.300 NA 
HETATM   18  C   UNL     1     -11.469  10.678  69.477  1.00  0.00    -0.360 C  
HETATM   19  C   UNL     1     -13.441   9.861  70.779  1.00  0.00    -0.094 C  
HETATM   20  C   UNL     1     -10.599  10.308  70.675  1.00  0.00     0.035 C  
HETATM   21  C   UNL     1     -12.886  11.030  69.950  1.00  0.00     0.030 C  
HETATM   22  C   UNL     1     -12.453   9.251  71.795  1.00  0.00    -0.381 C  
BRANCH  21  23
HETATM   23  C   UNL     1     -12.852  12.392  70.598  1.00  0.00     0.069 A  
HETATM   24  N   UNL     1     -13.038  12.571  71.912  1.00  0.00    -0.407 NA 
HETATM   25  O   UNL     1     -12.583  13.854  72.187  1.00  0.00    -0.255 OA 
HETATM   26  C   UNL     1     -12.158  14.445  71.037  1.00  0.00    -0.349 A  
HETATM   27  C   UNL     1     -12.386  13.587  69.977  1.00  0.00    -0.315 A  
HETATM   28  C   UNL     1     -12.032  13.998  68.678  1.00  0.00    -0.389 A  
HETATM   29  C   UNL     1     -11.442  15.258  68.518  1.00  0.00    -0.355 A  
HETATM   30  C   UNL     1     -11.197  16.071  69.625  1.00  0.00    -0.336 A  
HETATM   31  C   UNL     1     -11.554  15.693  70.920  1.00  0.00    -0.424 A  
HETATM   32  F   UNL     1     -10.590  17.249  69.436  1.00  0.00    -0.324 F  
ENDBRANCH  21  23
ENDBRANCH  16  17
ENDBRANCH  15  16
ENDBRANCH   3  15
TORSDOF 4
ENDMDL
MODEL      156
REMARK 921   NORMALIZED FREE ENERGY PREDICTED BY IDOCK:   -5.18 KCAL/MOL
REMARK 922        TOTAL FREE ENERGY PREDICTED BY IDOCK:   -6.66 KCAL/MOL
REMARK 923 INTER-LIGAND FREE ENERGY PREDICTED BY IDOCK:   -6.65 KCAL/MOL
REMARK 924 INTRA-LIGAND FREE ENERGY PREDICTED BY IDOCK:   -0.01 KCAL/MOL
REMARK 927      BINDING AFFINITY PREDICTED BY RF-SCORE:    0.00 PKD
ROOT
HETATM    1  C   UNL     1     -10.914  12.245  65.977  1.00  0.00    -0.327 C  
HETATM    2  C   UNL     1      -9.603  11.523  65.803  1.00  0.00    -0.235 C  
HETATM    3  C   UNL     1      -8.649  11.395  66.747  1.00  0.00    -0.166 C  
HETATM    4  C   UNL     1      -7.445  10.604  66.375  1.00  0.00    -0.138 C  
HETATM    5  O   UNL     1      -9.150   8.618  62.636  1.00  0.00    -0.442 OA 
HETATM    6  C   UNL     1      -8.343   9.782  62.788  1.00  0.00    -0.160 C  
HETATM    7  O   UNL     1      -6.528  10.460  67.185  1.00  0.00    -0.069 OA 
HETATM    8  N   UNL     1      -7.415  10.068  65.104  1.00  0.00    -0.134 N  
HETATM    9  C   UNL     1      -6.172   9.412  64.712  1.00  0.00    -0.077 C  
HETATM   10  N   UNL     1      -9.480  11.020  64.534  1.00  0.00    -0.228 NA 
HETATM   11  C   UNL     1      -6.247   8.620  63.419  1.00  0.00    -0.085 C  
HETATM   12  C   UNL     1      -8.422  10.351  64.216  1.00  0.00    -0.158 C  
HETATM   13  C   UNL     1      -6.922   9.463  62.352  1.00  0.00    -0.097 C  
HETATM   14  H   UNL     1     -10.039   8.817  62.908  1.00  0.00     0.000 HD 
ENDROOT
BRANCH   3  15
HETATM   15  C   UNL     1      -8.671  11.875  68.181  1.00  0.00    -0.173 C  
BRANCH  15  16
HETATM   16  C   UNL     1     -10.043  11.714  68.896  1.00  0.00    -0.092 C  
BRANCH  16  17
HETATM   17  N   UNL     1     -10.606  10.354  68.887  1.00  0.00    -0.202 NA 
HETATM   18  C   UNL     1      -9.425   9.392  70.855  1.00  0.00    -0.279 C  
HETATM   19  C   UNL     1     -11.819  10.057  71.135  1.00  0.00    -0.481 C  
HETATM   20  C   UNL     1      -9.684   9.316  69.353  1.00  0.00    -0.172 C  
HETATM   21  C   UNL     1     -10.721   9.098  71.623  1.00  0.00    -0.441 C  
HETATM   22  C   UNL     1     -11.893  10.245  69.606  1.00  0.00    -0.111 C  
BRANCH  21  23
HETATM   23  C   UNL     1     -11.001   7.617  71.544  1.00  0.00    -0.233 A  
HETATM   24  N   UNL     1     -11.330   7.004  70.400  1.00  0.00    -0.300 NA 
HETATM   25  O   UNL     1     -11.152   5.647  70.633  1.00  0.00    -0.247 OA 
HETATM   26  C   UNL     1     -10.749   5.452  71.918  1.00  0.00    -0.211 A  
HETATM   27  C   UNL     1     -10.718   6.671  72.572  1.00  0.00    -0.259 A  
HETATM   28  C   UNL     1     -10.338   6.710  73.927  1.00  0.00    -0.385 A  
HETATM   29  C   UNL     1      -9.986   5.507  74.551  1.00  0.00    -0.271 A  
HETATM   30  C   UNL     1      -9.996   4.309  73.838  1.00  0.00    -0.141 A  
HETATM   31  C   UNL     1     -10.384   4.242  72.499  1.00  0.00    -0.239 A  
HETATM   32  F   UNL     1      -9.608   3.187  74.458  1.00  0.00    -0.105 F  
ENDBRANCH  21  23
ENDBRANCH  16  17
ENDBRANCH  15  16
ENDBRANCH   3  15
TORSDOF 4
ENDMDL
MODEL      157
REMARK 921   NORMALIZED FREE ENERGY PREDICTED BY IDOCK:   -5.17 KCAL/MOL
REMARK 922        TOTAL FREE ENERGY PREDICTED BY IDOCK:   -6.66 KCAL/MOL
REMARK 923 INTER-LIGAND FREE ENERGY PREDICTED BY IDOCK:   -6.09 KCAL/MOL
REMARK 924 INTRA-LIGAND FREE ENERGY PREDICTED BY IDOCK:   -0.57 KCAL/MOL
REMARK 927      BINDING AFFINITY PREDICTED BY RF-SCORE:    0.00 PKD
ROOT
HETATM    1  C   UNL     1     -11.217   8.128  72.567  1.00  0.00    -0.459 C  
HETATM    2  C   UNL     1     -10.355   8.870  71.579  1.00  0.00    -0.324 C  
HETATM    3  C   UNL     1      -9.024   8.714  71.429  1.00  0.00    -0.286 C  
HETATM    4  C   UNL     1      -8.374   9.521  70.361  1.00  0.00    -0.192 C  
HETATM    5  O   UNL     1     -12.165  10.752  68.135  1.00  0.00    -0.765 OA 
HETATM    6  C   UNL     1     -11.399  11.437  69.123  1.00  0.00    -0.288 C  
HETATM    7  O   UNL     1      -7.159   9.440  70.180  1.00  0.00    -0.059 OA 
HETATM    8  N   UNL     1      -9.190  10.349  69.617  1.00  0.00    -0.126 N  
HETATM    9  C   UNL     1      -8.518  11.230  68.667  1.00  0.00    -0.143 C  
HETATM   10  N   UNL     1     -11.096   9.762  70.847  1.00  0.00    -0.334 NA 
HETATM   11  C   UNL     1      -9.438  11.943  67.694  1.00  0.00    -0.182 C  
HETATM   12  C   UNL     1     -10.519  10.471  69.936  1.00  0.00    -0.164 C  
HETATM   13  C   UNL     1     -10.604  12.547  68.455  1.00  0.00    -0.262 C  
HETATM   14  H   UNL     1     -12.662  10.058  68.552  1.00  0.00     0.000 HD 
ENDROOT
BRANCH   3  15
HETATM   15  C   UNL     1      -8.101   7.756  72.147  1.00  0.00    -0.136 C  
BRANCH  15  16
HETATM   16  C   UNL     1      -8.241   6.271  71.707  1.00  0.00    -0.117 C  
BRANCH  16  17
HETATM   17  N   UNL     1      -7.952   6.001  70.289  1.00  0.00    -0.105 NA 
HETATM   18  C   UNL     1      -8.275   3.533  70.252  1.00  0.00    -0.075 C  
HETATM   19  C   UNL     1     -10.089   4.967  69.298  1.00  0.00    -0.270 C  
HETATM   20  C   UNL     1      -7.320   4.703  70.038  1.00  0.00    -0.054 C  
HETATM   21  C   UNL     1      -9.409   3.591  69.218  1.00  0.00    -0.242 C  
HETATM   22  C   UNL     1      -9.127   6.167  69.407  1.00  0.00    -0.134 C  
BRANCH  21  23
HETATM   23  C   UNL     1      -8.862   3.159  67.881  1.00  0.00    -0.132 A  
HETATM   24  N   UNL     1      -7.939   2.197  67.754  1.00  0.00    -0.059 NA 
HETATM   25  O   UNL     1      -7.956   1.829  66.416  1.00  0.00    -0.070 OA 
HETATM   26  C   UNL     1      -8.862   2.590  65.743  1.00  0.00    -0.131 A  
HETATM   27  C   UNL     1      -9.410   3.515  66.614  1.00  0.00    -0.194 A  
HETATM   28  C   UNL     1     -10.370   4.423  66.129  1.00  0.00    -0.175 A  
HETATM   29  C   UNL     1     -10.747   4.336  64.783  1.00  0.00    -0.132 A  
HETATM   30  C   UNL     1     -10.193   3.359  63.955  1.00  0.00    -0.212 A  
HETATM   31  C   UNL     1      -9.228   2.459  64.408  1.00  0.00    -0.130 A  
HETATM   32  F   UNL     1     -10.613   3.278  62.686  1.00  0.00    -0.133 F  
ENDBRANCH  21  23
ENDBRANCH  16  17
ENDBRANCH  15  16
ENDBRANCH   3  15
TORSDOF 4
ENDMDL
MODEL      158
REMARK 921   NORMALIZED FREE ENERGY PREDICTED BY IDOCK:   -5.17 KCAL/MOL
REMARK 922        TOTAL FREE ENERGY PREDICTED BY IDOCK:   -6.66 KCAL/MOL
REMARK 923 INTER-LIGAND FREE ENERGY PREDICTED BY IDOCK:   -6.11 KCAL/MOL
REMARK 924 INTRA-LIGAND FREE ENERGY PREDICTED BY IDOCK:   -0.55 KCAL/MOL
REMARK 927      BINDING AFFINITY PREDICTED BY RF-SCORE:    0.00 PKD
ROOT
HETATM    1  C   UNL     1      -8.203   7.048  69.173  1.00  0.00    -0.122 C  
HETATM    2  C   UNL     1      -8.062   6.213  67.927  1.00  0.00    -0.114 C  
HETATM    3  C   UNL     1      -7.756   6.682  66.700  1.00  0.00    -0.102 C  
HETATM    4  C   UNL     1      -7.625   5.674  65.614  1.00  0.00    -0.086 C  
HETATM    5  O   UNL     1      -7.361   1.961  68.256  1.00  0.00    -0.043 OA 
HETATM    6  C   UNL     1      -8.470   2.549  67.582  1.00  0.00    -0.089 C  
HETATM    7  O   UNL     1      -7.364   6.035  64.466  1.00  0.00    -0.060 OA 
HETATM    8  N   UNL     1      -7.821   4.352  65.959  1.00  0.00    -0.094 N  
HETATM    9  C   UNL     1      -7.822   3.394  64.858  1.00  0.00    -0.082 C  
HETATM   10  N   UNL     1      -8.308   4.889  68.188  1.00  0.00    -0.099 NA 
HETATM   11  C   UNL     1      -7.787   1.936  65.279  1.00  0.00    -0.073 C  
HETATM   12  C   UNL     1      -8.211   4.025  67.233  1.00  0.00    -0.099 C  
HETATM   13  C   UNL     1      -8.820   1.703  66.368  1.00  0.00    -0.120 C  
HETATM   14  H   UNL     1      -7.142   2.490  69.015  1.00  0.00     0.000 HD 
ENDROOT
BRANCH   3  15
HETATM   15  C   UNL     1      -7.438   8.101  66.287  1.00  0.00    -0.082 C  
BRANCH  15  16
HETATM   16  C   UNL     1      -8.684   8.996  66.032  1.00  0.00    -0.160 C  
BRANCH  16  17
HETATM   17  N   UNL     1      -8.633  10.339  66.633  1.00  0.00    -0.127 NA 
HETATM   18  C   UNL     1     -10.715  11.312  65.678  1.00  0.00    -0.279 C  
HETATM   19  C   UNL     1     -10.756  10.572  68.067  1.00  0.00    -0.287 C  
HETATM   20  C   UNL     1      -9.196  11.399  65.793  1.00  0.00    -0.208 C  
HETATM   21  C   UNL     1     -11.356  11.557  67.051  1.00  0.00    -0.340 C  
HETATM   22  C   UNL     1      -9.225  10.401  67.986  1.00  0.00    -0.140 C  
BRANCH  21  23
HETATM   23  C   UNL     1     -11.265  13.029  67.368  1.00  0.00    -0.288 A  
HETATM   24  N   UNL     1     -11.161  13.967  66.417  1.00  0.00    -0.313 NA 
HETATM   25  O   UNL     1     -11.466  15.171  67.039  1.00  0.00    -0.319 OA 
HETATM   26  C   UNL     1     -11.719  14.954  68.358  1.00  0.00    -0.309 A  
HETATM   27  C   UNL     1     -11.522  13.614  68.642  1.00  0.00    -0.342 A  
HETATM   28  C   UNL     1     -11.717  13.160  69.960  1.00  0.00    -0.291 A  
HETATM   29  C   UNL     1     -12.124  14.086  70.928  1.00  0.00    -0.404 A  
HETATM   30  C   UNL     1     -12.348  15.419  70.583  1.00  0.00    -0.403 A  
HETATM   31  C   UNL     1     -12.146  15.897  69.287  1.00  0.00    -0.166 A  
HETATM   32  F   UNL     1     -12.781  16.265  71.527  1.00  0.00    -0.469 F  
ENDBRANCH  21  23
ENDBRANCH  16  17
ENDBRANCH  15  16
ENDBRANCH   3  15
TORSDOF 4
ENDMDL
MODEL      159
REMARK 921   NORMALIZED FREE ENERGY PREDICTED BY IDOCK:   -5.13 KCAL/MOL
REMARK 922        TOTAL FREE ENERGY PREDICTED BY IDOCK:   -6.60 KCAL/MOL
REMARK 923 INTER-LIGAND FREE ENERGY PREDICTED BY IDOCK:   -6.24 KCAL/MOL
REMARK 924 INTRA-LIGAND FREE ENERGY PREDICTED BY IDOCK:   -0.36 KCAL/MOL
REMARK 927      BINDING AFFINITY PREDICTED BY RF-SCORE:    0.00 PKD
ROOT
HETATM    1  C   UNL     1     -12.865  13.803  65.310  1.00  0.00    -0.430 C  
HETATM    2  C   UNL     1     -11.824  14.182  66.331  1.00  0.00    -0.423 C  
HETATM    3  C   UNL     1     -11.280  13.349  67.241  1.00  0.00    -0.319 C  
HETATM    4  C   UNL     1     -10.234  13.923  68.130  1.00  0.00    -0.249 C  
HETATM    5  O   UNL     1      -9.422  17.725  65.738  1.00  0.00    -0.518 OA 
HETATM    6  C   UNL     1     -10.260  17.495  66.867  1.00  0.00    -0.329 C  
HETATM    7  O   UNL     1      -9.707  13.223  68.995  1.00  0.00     0.084 OA 
HETATM    8  N   UNL     1      -9.910  15.251  67.940  1.00  0.00    -0.216 N  
HETATM    9  C   UNL     1      -8.983  15.832  68.905  1.00  0.00    -0.226 C  
HETATM   10  N   UNL     1     -11.502  15.511  66.239  1.00  0.00    -0.009 NA 
HETATM   11  C   UNL     1      -8.451  17.204  68.536  1.00  0.00    -0.262 C  
HETATM   12  C   UNL     1     -10.606  16.004  67.028  1.00  0.00    -0.302 C  
HETATM   13  C   UNL     1      -9.605  18.091  68.103  1.00  0.00    -0.303 C  
HETATM   14  H   UNL     1      -9.831  17.353  64.965  1.00  0.00     0.000 HD 
ENDROOT
BRANCH   3  15
HETATM   15  C   UNL     1     -11.526  11.869  67.430  1.00  0.00    -0.393 C  
BRANCH  15  16
HETATM   16  C   UNL     1     -10.773  10.954  66.423  1.00  0.00    -0.194 C  
BRANCH  16  17
HETATM   17  N   UNL     1      -9.678  10.153  66.992  1.00  0.00    -0.174 NA 
HETATM   18  C   UNL     1     -10.907   8.986  68.815  1.00  0.00    -0.067 C  
HETATM   19  C   UNL     1     -10.376   7.689  66.743  1.00  0.00    -0.343 C  
HETATM   20  C   UNL     1      -9.775   9.937  68.438  1.00  0.00    -0.149 C  
HETATM   21  C   UNL     1     -10.617   7.585  68.257  1.00  0.00    -0.185 C  
HETATM   22  C   UNL     1      -9.474   8.861  66.303  1.00  0.00    -0.239 C  
BRANCH  21  23
HETATM   23  C   UNL     1      -9.536   6.949  69.095  1.00  0.00    -0.142 A  
HETATM   24  N   UNL     1      -9.183   7.420  70.298  1.00  0.00    -0.154 NA 
HETATM   25  O   UNL     1      -8.454   6.405  70.903  1.00  0.00    -0.128 OA 
HETATM   26  C   UNL     1      -8.348   5.348  70.052  1.00  0.00    -0.107 A  
HETATM   27  C   UNL     1      -8.948   5.674  68.849  1.00  0.00    -0.115 A  
HETATM   28  C   UNL     1      -8.948   4.727  67.807  1.00  0.00    -0.122 A  
HETATM   29  C   UNL     1      -8.354   3.481  68.043  1.00  0.00    -0.095 A  
HETATM   30  C   UNL     1      -7.796   3.187  69.287  1.00  0.00    -0.049 A  
HETATM   31  C   UNL     1      -7.770   4.113  70.330  1.00  0.00    -0.048 A  
HETATM   32  F   UNL     1      -7.278   1.968  69.488  1.00  0.00    -0.038 F  
ENDBRANCH  21  23
ENDBRANCH  16  17
ENDBRANCH  15  16
ENDBRANCH   3  15
TORSDOF 4
ENDMDL
MODEL      160
REMARK 921   NORMALIZED FREE ENERGY PREDICTED BY IDOCK:   -5.12 KCAL/MOL
REMARK 922        TOTAL FREE ENERGY PREDICTED BY IDOCK:   -6.59 KCAL/MOL
REMARK 923 INTER-LIGAND FREE ENERGY PREDICTED BY IDOCK:   -6.27 KCAL/MOL
REMARK 924 INTRA-LIGAND FREE ENERGY PREDICTED BY IDOCK:   -0.32 KCAL/MOL
REMARK 927      BINDING AFFINITY PREDICTED BY RF-SCORE:    0.00 PKD
ROOT
HETATM    1  C   UNL     1      -9.717  14.537  67.985  1.00  0.00    -0.218 C  
HETATM    2  C   UNL     1     -10.621  13.850  68.975  1.00  0.00    -0.167 C  
HETATM    3  C   UNL     1     -10.652  12.523  69.218  1.00  0.00     0.101 C  
HETATM    4  C   UNL     1     -11.596  12.060  70.270  1.00  0.00    -0.046 C  
HETATM    5  O   UNL     1     -12.438  16.124  72.169  1.00  0.00    -0.465 OA 
HETATM    6  C   UNL     1     -13.161  15.385  71.189  1.00  0.00    -0.513 C  
HETATM    7  O   UNL     1     -11.687  10.860  70.531  1.00  0.00    -0.318 OA 
HETATM    8  N   UNL     1     -12.349  13.025  70.906  1.00  0.00    -0.354 N  
HETATM    9  C   UNL     1     -13.363  12.541  71.836  1.00  0.00    -0.368 C  
HETATM   10  N   UNL     1     -11.446  14.749  69.599  1.00  0.00    -0.276 NA 
HETATM   11  C   UNL     1     -14.001  13.611  72.702  1.00  0.00    -0.406 C  
HETATM   12  C   UNL     1     -12.276  14.333  70.497  1.00  0.00    -0.356 C  
HETATM   13  C   UNL     1     -14.403  14.788  71.831  1.00  0.00    -0.657 C  
HETATM   14  H   UNL     1     -11.661  16.498  71.767  1.00  0.00     0.000 HD 
ENDROOT
BRANCH   3  15
HETATM   15  C   UNL     1      -9.785  11.436  68.623  1.00  0.00    -0.182 C  
BRANCH  15  16
HETATM   16  C   UNL     1     -10.561  10.365  67.805  1.00  0.00    -0.250 C  
BRANCH  16  17
HETATM   17  N   UNL     1      -9.817   9.128  67.516  1.00  0.00    -0.167 NA 
HETATM   18  C   UNL     1     -10.121   7.934  69.679  1.00  0.00    -0.197 C  
HETATM   19  C   UNL     1     -11.506   7.200  67.730  1.00  0.00     0.465 C  
HETATM   20  C   UNL     1      -9.143   8.543  68.678  1.00  0.00    -0.139 C  
HETATM   21  C   UNL     1     -10.845   6.741  69.040  1.00  0.00    -0.290 C  
HETATM   22  C   UNL     1     -10.630   8.098  66.834  1.00  0.00    -0.241 C  
BRANCH  21  23
HETATM   23  C   UNL     1      -9.885   5.579  68.968  1.00  0.00    -0.162 A  
HETATM   24  N   UNL     1      -9.066   5.382  67.927  1.00  0.00    -0.108 NA 
HETATM   25  O   UNL     1      -8.111   4.473  68.363  1.00  0.00    -0.082 OA 
HETATM   26  C   UNL     1      -8.379   4.108  69.646  1.00  0.00    -0.057 A  
HETATM   27  C   UNL     1      -9.550   4.720  70.055  1.00  0.00    -0.260 A  
HETATM   28  C   UNL     1     -10.031   4.474  71.355  1.00  0.00    -0.259 A  
HETATM   29  C   UNL     1      -9.285   3.634  72.190  1.00  0.00    -0.167 A  
HETATM   30  C   UNL     1      -8.089   3.072  71.744  1.00  0.00    -0.058 A  
HETATM   31  C   UNL     1      -7.601   3.287  70.455  1.00  0.00    -0.040 A  
HETATM   32  F   UNL     1      -7.381   2.310  72.589  1.00  0.00    -0.029 F  
ENDBRANCH  21  23
ENDBRANCH  16  17
ENDBRANCH  15  16
ENDBRANCH   3  15
TORSDOF 4
ENDMDL
MODEL      161
REMARK 921   NORMALIZED FREE ENERGY PREDICTED BY IDOCK:   -5.10 KCAL/MOL
REMARK 922        TOTAL FREE ENERGY PREDICTED BY IDOCK:   -6.57 KCAL/MOL
REMARK 923 INTER-LIGAND FREE ENERGY PREDICTED BY IDOCK:   -5.99 KCAL/MOL
REMARK 924 INTRA-LIGAND FREE ENERGY PREDICTED BY IDOCK:   -0.58 KCAL/MOL
REMARK 927      BINDING AFFINITY PREDICTED BY RF-SCORE:    0.00 PKD
ROOT
HETATM    1  C   UNL     1      -9.330   1.754  68.156  1.00  0.00    -0.238 C  
HETATM    2  C   UNL     1      -8.950   2.792  67.132  1.00  0.00    -0.159 C  
HETATM    3  C   UNL     1      -8.171   3.869  67.361  1.00  0.00    -0.094 C  
HETATM    4  C   UNL     1      -7.888   4.746  66.194  1.00  0.00    -0.099 C  
HETATM    5  O   UNL     1      -9.240   1.866  62.921  1.00  0.00    -0.089 OA 
HETATM    6  C   UNL     1      -9.927   2.936  63.563  1.00  0.00    -0.145 C  
HETATM    7  O   UNL     1      -7.197   5.756  66.335  1.00  0.00    -0.074 OA 
HETATM    8  N   UNL     1      -8.440   4.378  64.984  1.00  0.00    -0.120 N  
HETATM    9  C   UNL     1      -8.264   5.320  63.883  1.00  0.00    -0.127 C  
HETATM   10  N   UNL     1      -9.522   2.520  65.916  1.00  0.00     0.044 NA 
HETATM   11  C   UNL     1      -8.655   4.788  62.517  1.00  0.00    -0.116 C  
HETATM   12  C   UNL     1      -9.285   3.299  64.914  1.00  0.00    -0.146 C  
HETATM   13  C   UNL     1     -10.014   4.116  62.609  1.00  0.00    -0.137 C  
HETATM   14  H   UNL     1      -9.185   1.128  63.517  1.00  0.00     0.000 HD 
ENDROOT
BRANCH   3  15
HETATM   15  C   UNL     1      -7.464   4.266  68.637  1.00  0.00    -0.059 C  
BRANCH  15  16
HETATM   16  C   UNL     1      -8.411   4.645  69.810  1.00  0.00    -0.073 C  
BRANCH  16  17
HETATM   17  N   UNL     1      -8.399   6.065  70.201  1.00  0.00    -0.118 NA 
HETATM   18  C   UNL     1     -10.097   6.956  68.614  1.00  0.00    -0.164 C  
HETATM   19  C   UNL     1     -10.783   6.618  70.995  1.00  0.00    -0.278 C  
HETATM   20  C   UNL     1      -8.651   6.996  69.099  1.00  0.00    -0.133 C  
HETATM   21  C   UNL     1     -11.033   7.449  69.726  1.00  0.00    -0.215 C  
HETATM   22  C   UNL     1      -9.299   6.371  71.334  1.00  0.00    -0.152 C  
BRANCH  21  23
HETATM   23  C   UNL     1     -10.902   8.948  69.836  1.00  0.00    -0.211 A  
HETATM   24  N   UNL     1     -10.178   9.674  68.974  1.00  0.00    -0.190 NA 
HETATM   25  O   UNL     1     -10.579  10.990  69.160  1.00  0.00    -0.211 OA 
HETATM   26  C   UNL     1     -11.513  11.050  70.147  1.00  0.00    -0.296 A  
HETATM   27  C   UNL     1     -11.696   9.784  70.674  1.00  0.00    -0.377 A  
HETATM   28  C   UNL     1     -12.616   9.608  71.725  1.00  0.00    -0.497 A  
HETATM   29  C   UNL     1     -13.325  10.726  72.180  1.00  0.00    -0.314 A  
HETATM   30  C   UNL     1     -13.133  11.975  71.590  1.00  0.00    -0.318 A  
HETATM   31  C   UNL     1     -12.216  12.178  70.558  1.00  0.00    -0.392 A  
HETATM   32  F   UNL     1     -13.864  13.011  72.023  1.00  0.00    -0.490 F  
ENDBRANCH  21  23
ENDBRANCH  16  17
ENDBRANCH  15  16
ENDBRANCH   3  15
TORSDOF 4
ENDMDL
MODEL      162
REMARK 921   NORMALIZED FREE ENERGY PREDICTED BY IDOCK:   -5.10 KCAL/MOL
REMARK 922        TOTAL FREE ENERGY PREDICTED BY IDOCK:   -6.57 KCAL/MOL
REMARK 923 INTER-LIGAND FREE ENERGY PREDICTED BY IDOCK:   -6.17 KCAL/MOL
REMARK 924 INTRA-LIGAND FREE ENERGY PREDICTED BY IDOCK:   -0.39 KCAL/MOL
REMARK 927      BINDING AFFINITY PREDICTED BY RF-SCORE:    0.00 PKD
ROOT
HETATM    1  C   UNL     1     -13.720  10.060  72.249  1.00  0.00    -0.197 C  
HETATM    2  C   UNL     1     -13.023  11.215  71.580  1.00  0.00    -0.443 C  
HETATM    3  C   UNL     1     -12.275  11.137  70.461  1.00  0.00    -0.475 C  
HETATM    4  C   UNL     1     -11.709  12.412  69.946  1.00  0.00    -0.266 C  
HETATM    5  O   UNL     1     -14.302  15.262  72.394  1.00  0.00    -0.514 OA 
HETATM    6  C   UNL     1     -12.986  14.767  72.625  1.00  0.00    -0.426 C  
HETATM    7  O   UNL     1     -11.003  12.411  68.937  1.00  0.00    -0.229 OA 
HETATM    8  N   UNL     1     -12.004  13.560  70.653  1.00  0.00    -0.287 N  
HETATM    9  C   UNL     1     -11.332  14.778  70.213  1.00  0.00    -0.231 C  
HETATM   10  N   UNL     1     -13.222  12.381  72.273  1.00  0.00    -0.414 NA 
HETATM   11  C   UNL     1     -11.856  16.059  70.837  1.00  0.00    -0.409 C  
HETATM   12  C   UNL     1     -12.711  13.480  71.827  1.00  0.00    -0.244 C  
HETATM   13  C   UNL     1     -11.982  15.872  72.338  1.00  0.00    -0.620 C  
HETATM   14  H   UNL     1     -14.931  14.571  72.573  1.00  0.00     0.000 HD 
ENDROOT
BRANCH   3  15
HETATM   15  C   UNL     1     -11.999   9.928  69.594  1.00  0.00     0.126 C  
BRANCH  15  16
HETATM   16  C   UNL     1     -10.640   9.228  69.874  1.00  0.00    -0.226 C  
BRANCH  16  17
HETATM   17  N   UNL     1      -9.767   9.050  68.701  1.00  0.00    -0.157 NA 
HETATM   18  C   UNL     1      -8.087   7.481  69.656  1.00  0.00    -0.127 C  
HETATM   19  C   UNL     1      -9.829   6.543  68.126  1.00  0.00    -0.131 C  
HETATM   20  C   UNL     1      -8.353   8.845  69.026  1.00  0.00    -0.124 C  
HETATM   21  C   UNL     1      -8.391   6.370  68.641  1.00  0.00    -0.121 C  
HETATM   22  C   UNL     1     -10.230   7.991  67.779  1.00  0.00    -0.222 C  
BRANCH  21  23
HETATM   23  C   UNL     1      -7.282   6.337  67.619  1.00  0.00    -0.083 A  
HETATM   24  N   UNL     1      -6.143   7.025  67.767  1.00  0.00    -0.032 NA 
HETATM   25  O   UNL     1      -5.249   6.479  66.856  1.00  0.00    -0.011 OA 
HETATM   26  C   UNL     1      -5.863   5.491  66.148  1.00  0.00    -0.018 A  
HETATM   27  C   UNL     1      -7.189   5.415  66.536  1.00  0.00    -0.077 A  
HETATM   28  C   UNL     1      -8.026   4.463  65.923  1.00  0.00    -0.099 A  
HETATM   29  C   UNL     1      -7.470   3.616  64.956  1.00  0.00    -0.073 A  
HETATM   30  C   UNL     1      -6.118   3.707  64.628  1.00  0.00    -0.023 A  
HETATM   31  C   UNL     1      -5.272   4.652  65.209  1.00  0.00    -0.012 A  
HETATM   32  F   UNL     1      -5.614   2.849  63.731  1.00  0.00    -0.008 F  
ENDBRANCH  21  23
ENDBRANCH  16  17
ENDBRANCH  15  16
ENDBRANCH   3  15
TORSDOF 4
ENDMDL
MODEL      163
REMARK 921   NORMALIZED FREE ENERGY PREDICTED BY IDOCK:   -5.06 KCAL/MOL
REMARK 922        TOTAL FREE ENERGY PREDICTED BY IDOCK:   -6.51 KCAL/MOL
REMARK 923 INTER-LIGAND FREE ENERGY PREDICTED BY IDOCK:   -5.90 KCAL/MOL
REMARK 924 INTRA-LIGAND FREE ENERGY PREDICTED BY IDOCK:   -0.61 KCAL/MOL
REMARK 927      BINDING AFFINITY PREDICTED BY RF-SCORE:    0.00 PKD
ROOT
HETATM    1  C   UNL     1      -6.895   9.722  67.980  1.00  0.00    -0.072 C  
HETATM    2  C   UNL     1      -7.945   8.662  68.188  1.00  0.00    -0.107 C  
HETATM    3  C   UNL     1      -9.157   8.633  67.595  1.00  0.00    -0.145 C  
HETATM    4  C   UNL     1     -10.026   7.468  67.911  1.00  0.00    -0.165 C  
HETATM    5  O   UNL     1      -6.820   4.800  69.765  1.00  0.00    -0.048 OA 
HETATM    6  C   UNL     1      -7.767   5.675  70.369  1.00  0.00    -0.094 C  
HETATM    7  O   UNL     1     -11.151   7.386  67.417  1.00  0.00    -0.185 OA 
HETATM    8  N   UNL     1      -9.515   6.521  68.775  1.00  0.00    -0.129 N  
HETATM    9  C   UNL     1     -10.430   5.458  69.178  1.00  0.00    -0.207 C  
HETATM   10  N   UNL     1      -7.525   7.719  69.090  1.00  0.00    -0.092 NA 
HETATM   11  C   UNL     1      -9.782   4.303  69.919  1.00  0.00    -0.291 C  
HETATM   12  C   UNL     1      -8.296   6.722  69.372  1.00  0.00    -0.132 C  
HETATM   13  C   UNL     1      -8.873   4.849  71.006  1.00  0.00    -0.152 C  
HETATM   14  H   UNL     1      -6.128   5.316  69.366  1.00  0.00     0.000 HD 
ENDROOT
BRANCH   3  15
HETATM   15  C   UNL     1      -9.728   9.588  66.571  1.00  0.00    -0.284 C  
BRANCH  15  16
HETATM   16  C   UNL     1     -10.378  10.866  67.171  1.00  0.00    -0.220 C  
BRANCH  16  17
HETATM   17  N   UNL     1      -9.997  12.134  66.526  1.00  0.00    -0.209 NA 
HETATM   18  C   UNL     1     -10.950  13.748  68.162  1.00  0.00    -0.265 C  
HETATM   19  C   UNL     1      -8.478  13.369  68.195  1.00  0.00    -0.172 C  
HETATM   20  C   UNL     1     -10.951  13.226  66.728  1.00  0.00    -0.287 C  
HETATM   21  C   UNL     1      -9.592  14.389  68.482  1.00  0.00    -0.217 C  
HETATM   22  C   UNL     1      -8.633  12.585  66.876  1.00  0.00    -0.158 C  
BRANCH  21  23
HETATM   23  C   UNL     1      -9.514  15.724  67.785  1.00  0.00    -0.212 A  
HETATM   24  N   UNL     1     -10.575  16.528  67.643  1.00  0.00    -0.320 NA 
HETATM   25  O   UNL     1     -10.063  17.773  67.301  1.00  0.00    -0.311 OA 
HETATM   26  C   UNL     1      -8.708  17.701  67.208  1.00  0.00    -0.235 A  
HETATM   27  C   UNL     1      -8.309  16.394  67.424  1.00  0.00    -0.183 A  
HETATM   28  C   UNL     1      -6.937  16.080  67.364  1.00  0.00    -0.223 A  
HETATM   29  C   UNL     1      -6.031  17.116  67.108  1.00  0.00    -0.192 A  
HETATM   30  C   UNL     1      -6.480  18.425  66.936  1.00  0.00    -0.183 A  
HETATM   31  C   UNL     1      -7.834  18.758  66.974  1.00  0.00    -0.249 A  
HETATM   32  F   UNL     1      -5.578  19.395  66.738  1.00  0.00    -0.166 F  
ENDBRANCH  21  23
ENDBRANCH  16  17
ENDBRANCH  15  16
ENDBRANCH   3  15
TORSDOF 4
ENDMDL
MODEL      164
REMARK 921   NORMALIZED FREE ENERGY PREDICTED BY IDOCK:   -5.06 KCAL/MOL
REMARK 922        TOTAL FREE ENERGY PREDICTED BY IDOCK:   -6.51 KCAL/MOL
REMARK 923 INTER-LIGAND FREE ENERGY PREDICTED BY IDOCK:   -5.70 KCAL/MOL
REMARK 924 INTRA-LIGAND FREE ENERGY PREDICTED BY IDOCK:   -0.81 KCAL/MOL
REMARK 927      BINDING AFFINITY PREDICTED BY RF-SCORE:    0.00 PKD
ROOT
HETATM    1  C   UNL     1      -8.119   8.391  73.196  1.00  0.00    -0.167 C  
HETATM    2  C   UNL     1      -9.314   7.818  72.480  1.00  0.00    -0.178 C  
HETATM    3  C   UNL     1      -9.315   6.695  71.733  1.00  0.00    -0.148 C  
HETATM    4  C   UNL     1     -10.619   6.286  71.146  1.00  0.00    -0.239 C  
HETATM    5  O   UNL     1     -13.301   8.958  73.696  1.00  0.00    -0.312 OA 
HETATM    6  C   UNL     1     -12.769   9.148  72.388  1.00  0.00    -0.340 C  
HETATM    7  O   UNL     1     -10.689   5.279  70.440  1.00  0.00    -0.250 OA 
HETATM    8  N   UNL     1     -11.710   7.084  71.424  1.00  0.00    -0.287 N  
HETATM    9  C   UNL     1     -12.949   6.744  70.733  1.00  0.00     0.251 C  
HETATM   10  N   UNL     1     -10.423   8.603  72.662  1.00  0.00    -0.164 NA 
HETATM   11  C   UNL     1     -14.183   7.470  71.237  1.00  0.00    -0.429 C  
HETATM   12  C   UNL     1     -11.547   8.248  72.132  1.00  0.00    -0.364 C  
HETATM   13  C   UNL     1     -13.877   8.951  71.366  1.00  0.00    -0.312 C  
HETATM   14  H   UNL     1     -12.609   9.081  74.336  1.00  0.00     0.000 HD 
ENDROOT
BRANCH   3  15
HETATM   15  C   UNL     1      -8.177   5.734  71.476  1.00  0.00    -0.119 C  
BRANCH  15  16
HETATM   16  C   UNL     1      -7.117   6.242  70.458  1.00  0.00    -0.069 C  
BRANCH  16  17
HETATM   17  N   UNL     1      -7.575   6.339  69.062  1.00  0.00    -0.094 NA 
HETATM   18  C   UNL     1      -7.715   8.813  68.831  1.00  0.00    -0.095 C  
HETATM   19  C   UNL     1      -5.760   7.648  67.793  1.00  0.00    -0.036 C  
HETATM   20  C   UNL     1      -8.454   7.479  68.793  1.00  0.00    -0.129 C  
HETATM   21  C   UNL     1      -6.686   8.871  67.693  1.00  0.00    -0.066 C  
HETATM   22  C   UNL     1      -6.472   6.310  68.078  1.00  0.00    -0.052 C  
BRANCH  21  23
HETATM   23  C   UNL     1      -7.419   9.088  66.393  1.00  0.00    -0.092 A  
HETATM   24  N   UNL     1      -7.473   8.158  65.430  1.00  0.00    -0.079 NA 
HETATM   25  O   UNL     1      -8.501   8.550  64.583  1.00  0.00    -0.166 OA 
HETATM   26  C   UNL     1      -9.034   9.723  65.022  1.00  0.00    -0.207 A  
HETATM   27  C   UNL     1      -8.325  10.156  66.128  1.00  0.00    -0.131 A  
HETATM   28  C   UNL     1      -8.696  11.365  66.746  1.00  0.00    -0.174 A  
HETATM   29  C   UNL     1      -9.788  12.069  66.224  1.00  0.00    -0.250 A  
HETATM   30  C   UNL     1     -10.495  11.570  65.130  1.00  0.00    -0.286 A  
HETATM   31  C   UNL     1     -10.137  10.383  64.490  1.00  0.00    -0.365 A  
HETATM   32  F   UNL     1     -11.562  12.250  64.688  1.00  0.00    -0.348 F  
ENDBRANCH  21  23
ENDBRANCH  16  17
ENDBRANCH  15  16
ENDBRANCH   3  15
TORSDOF 4
ENDMDL
MODEL      165
REMARK 921   NORMALIZED FREE ENERGY PREDICTED BY IDOCK:   -5.04 KCAL/MOL
REMARK 922        TOTAL FREE ENERGY PREDICTED BY IDOCK:   -6.49 KCAL/MOL
REMARK 923 INTER-LIGAND FREE ENERGY PREDICTED BY IDOCK:   -6.03 KCAL/MOL
REMARK 924 INTRA-LIGAND FREE ENERGY PREDICTED BY IDOCK:   -0.46 KCAL/MOL
REMARK 927      BINDING AFFINITY PREDICTED BY RF-SCORE:    0.00 PKD
ROOT
HETATM    1  C   UNL     1      -6.905   4.887  69.947  1.00  0.00    -0.048 C  
HETATM    2  C   UNL     1      -7.521   4.864  68.573  1.00  0.00    -0.070 C  
HETATM    3  C   UNL     1      -8.826   4.657  68.302  1.00  0.00    -0.122 C  
HETATM    4  C   UNL     1      -9.228   4.716  66.871  1.00  0.00    -0.127 C  
HETATM    5  O   UNL     1      -5.454   6.713  65.259  1.00  0.00    -0.024 OA 
HETATM    6  C   UNL     1      -5.832   5.340  65.312  1.00  0.00    -0.017 C  
HETATM    7  O   UNL     1     -10.401   4.520  66.552  1.00  0.00    -0.238 OA 
HETATM    8  N   UNL     1      -8.235   4.983  65.951  1.00  0.00    -0.112 N  
HETATM    9  C   UNL     1      -8.621   4.904  64.547  1.00  0.00    -0.146 C  
HETATM   10  N   UNL     1      -6.572   5.059  67.602  1.00  0.00    -0.048 NA 
HETATM   11  C   UNL     1      -7.592   5.440  63.569  1.00  0.00    -0.065 C  
HETATM   12  C   UNL     1      -6.929   5.090  66.362  1.00  0.00    -0.067 C  
HETATM   13  C   UNL     1      -6.226   4.877  63.918  1.00  0.00    -0.022 C  
HETATM   14  H   UNL     1      -5.208   7.002  66.130  1.00  0.00     0.000 HD 
ENDROOT
BRANCH   3  15
HETATM   15  C   UNL     1      -9.968   4.456  69.272  1.00  0.00    -0.144 C  
BRANCH  15  16
HETATM   16  C   UNL     1     -10.246   5.669  70.205  1.00  0.00    -0.250 C  
BRANCH  16  17
HETATM   17  N   UNL     1     -11.089   6.730  69.629  1.00  0.00    -0.287 NA 
HETATM   18  C   UNL     1     -10.523   8.604  71.167  1.00  0.00    -0.291 C  
HETATM   19  C   UNL     1      -9.490   8.605  68.889  1.00  0.00    -0.146 C  
HETATM   20  C   UNL     1     -11.608   7.688  70.609  1.00  0.00    -0.232 C  
HETATM   21  C   UNL     1      -9.968   9.496  70.047  1.00  0.00    -0.274 C  
HETATM   22  C   UNL     1     -10.443   7.453  68.512  1.00  0.00    -0.186 C  
BRANCH  21  23
HETATM   23  C   UNL     1     -10.987  10.563  69.733  1.00  0.00    -0.294 A  
HETATM   24  N   UNL     1     -11.685  11.197  70.683  1.00  0.00    -0.288 NA 
HETATM   25  O   UNL     1     -12.225  12.320  70.071  1.00  0.00    -0.271 OA 
HETATM   26  C   UNL     1     -11.875  12.337  68.756  1.00  0.00    -0.306 A  
HETATM   27  C   UNL     1     -11.154  11.192  68.465  1.00  0.00    -0.298 A  
HETATM   28  C   UNL     1     -10.696  10.990  67.149  1.00  0.00    -0.313 A  
HETATM   29  C   UNL     1     -10.973  11.972  66.191  1.00  0.00    -0.343 A  
HETATM   30  C   UNL     1     -11.670  13.128  66.544  1.00  0.00    -0.382 A  
HETATM   31  C   UNL     1     -12.149  13.344  67.836  1.00  0.00    -0.289 A  
HETATM   32  F   UNL     1     -11.876  14.066  65.609  1.00  0.00    -0.332 F  
ENDBRANCH  21  23
ENDBRANCH  16  17
ENDBRANCH  15  16
ENDBRANCH   3  15
TORSDOF 4
ENDMDL
MODEL      166
REMARK 921   NORMALIZED FREE ENERGY PREDICTED BY IDOCK:   -5.03 KCAL/MOL
REMARK 922        TOTAL FREE ENERGY PREDICTED BY IDOCK:   -6.48 KCAL/MOL
REMARK 923 INTER-LIGAND FREE ENERGY PREDICTED BY IDOCK:   -5.79 KCAL/MOL
REMARK 924 INTRA-LIGAND FREE ENERGY PREDICTED BY IDOCK:   -0.69 KCAL/MOL
REMARK 927      BINDING AFFINITY PREDICTED BY RF-SCORE:    0.00 PKD
ROOT
HETATM    1  C   UNL     1      -7.439   5.214  67.611  1.00  0.00    -0.083 C  
HETATM    2  C   UNL     1      -8.414   5.584  68.697  1.00  0.00    -0.104 C  
HETATM    3  C   UNL     1      -9.448   6.440  68.564  1.00  0.00    -0.120 C  
HETATM    4  C   UNL     1     -10.314   6.630  69.758  1.00  0.00    -0.193 C  
HETATM    5  O   UNL     1      -8.875   3.012  72.140  1.00  0.00    -0.079 OA 
HETATM    6  C   UNL     1      -8.487   4.382  72.199  1.00  0.00    -0.112 C  
HETATM    7  O   UNL     1     -11.266   7.410  69.711  1.00  0.00    -0.202 OA 
HETATM    8  N   UNL     1      -9.990   5.911  70.890  1.00  0.00    -0.182 N  
HETATM    9  C   UNL     1     -10.767   6.211  72.088  1.00  0.00    -0.236 C  
HETATM   10  N   UNL     1      -8.108   4.950  69.874  1.00  0.00    -0.072 NA 
HETATM   11  C   UNL     1     -10.565   5.244  73.240  1.00  0.00    -0.288 C  
HETATM   12  C   UNL     1      -8.856   5.137  70.910  1.00  0.00    -0.134 C  
HETATM   13  C   UNL     1      -9.079   5.014  73.449  1.00  0.00    -0.121 C  
HETATM   14  H   UNL     1      -8.505   2.617  71.359  1.00  0.00     0.000 HD 
ENDROOT
BRANCH   3  15
HETATM   15  C   UNL     1      -9.906   7.178  67.326  1.00  0.00    -0.217 C  
BRANCH  15  16
HETATM   16  C   UNL     1      -9.065   8.438  66.976  1.00  0.00    -0.144 C  
BRANCH  16  17
HETATM   17  N   UNL     1      -9.836   9.675  66.765  1.00  0.00    -0.198 NA 
HETATM   18  C   UNL     1      -9.722  10.641  69.056  1.00  0.00    -0.214 C  
HETATM   19  C   UNL     1      -8.240  11.622  67.296  1.00  0.00    -0.159 C  
HETATM   20  C   UNL     1     -10.607  10.112  67.932  1.00  0.00    -0.249 C  
HETATM   21  C   UNL     1      -9.004  11.918  68.597  1.00  0.00    -0.044 C  
HETATM   22  C   UNL     1      -9.020  10.796  66.253  1.00  0.00    -0.170 C  
BRANCH  21  23
HETATM   23  C   UNL     1     -10.001  13.050  68.579  1.00  0.00    -0.172 A  
HETATM   24  N   UNL     1     -10.869  13.264  69.576  1.00  0.00     0.059 NA 
HETATM   25  O   UNL     1     -11.347  14.554  69.391  1.00  0.00    -0.254 OA 
HETATM   26  C   UNL     1     -10.790  15.093  68.273  1.00  0.00    -0.262 A  
HETATM   27  C   UNL     1      -9.986  14.145  67.666  1.00  0.00    -0.233 A  
HETATM   28  C   UNL     1      -9.313  14.481  66.476  1.00  0.00    -0.307 A  
HETATM   29  C   UNL     1      -9.472  15.775  65.967  1.00  0.00    -0.392 A  
HETATM   30  C   UNL     1     -10.263  16.708  66.638  1.00  0.00    -0.303 A  
HETATM   31  C   UNL     1     -10.953  16.394  67.809  1.00  0.00    -0.261 A  
HETATM   32  F   UNL     1     -10.352  17.950  66.144  1.00  0.00    -0.343 F  
ENDBRANCH  21  23
ENDBRANCH  16  17
ENDBRANCH  15  16
ENDBRANCH   3  15
TORSDOF 4
ENDMDL
MODEL      167
REMARK 921   NORMALIZED FREE ENERGY PREDICTED BY IDOCK:   -5.03 KCAL/MOL
REMARK 922        TOTAL FREE ENERGY PREDICTED BY IDOCK:   -6.48 KCAL/MOL
REMARK 923 INTER-LIGAND FREE ENERGY PREDICTED BY IDOCK:   -5.79 KCAL/MOL
REMARK 924 INTRA-LIGAND FREE ENERGY PREDICTED BY IDOCK:   -0.68 KCAL/MOL
REMARK 927      BINDING AFFINITY PREDICTED BY RF-SCORE:    0.00 PKD
ROOT
HETATM    1  C   UNL     1      -9.965   4.854  68.579  1.00  0.00    -0.185 C  
HETATM    2  C   UNL     1      -9.313   4.885  67.222  1.00  0.00    -0.131 C  
HETATM    3  C   UNL     1      -8.126   5.458  66.935  1.00  0.00    -0.105 C  
HETATM    4  C   UNL     1      -7.647   5.335  65.533  1.00  0.00    -0.082 C  
HETATM    5  O   UNL     1     -10.506   2.036  64.198  1.00  0.00    -0.354 OA 
HETATM    6  C   UNL     1     -10.581   3.452  64.051  1.00  0.00    -0.207 C  
HETATM    7  O   UNL     1      -6.579   5.849  65.199  1.00  0.00    -0.041 OA 
HETATM    8  N   UNL     1      -8.452   4.641  64.653  1.00  0.00    -0.128 N  
HETATM    9  C   UNL     1      -8.033   4.646  63.256  1.00  0.00    -0.083 C  
HETATM   10  N   UNL     1     -10.096   4.265  66.282  1.00  0.00    -0.214 NA 
HETATM   11  C   UNL     1      -8.786   3.680  62.359  1.00  0.00    -0.082 C  
HETATM   12  C   UNL     1      -9.679   4.180  65.063  1.00  0.00    -0.194 C  
HETATM   13  C   UNL     1     -10.277   3.820  62.609  1.00  0.00    -0.176 C  
HETATM   14  H   UNL     1     -10.696   1.806  65.100  1.00  0.00     0.000 HD 
ENDROOT
BRANCH   3  15
HETATM   15  C   UNL     1      -7.161   6.144  67.876  1.00  0.00    -0.078 C  
BRANCH  15  16
HETATM   16  C   UNL     1      -7.144   7.695  67.768  1.00  0.00    -0.085 C  
BRANCH  16  17
HETATM   17  N   UNL     1      -8.442   8.323  67.469  1.00  0.00    -0.129 NA 
HETATM   18  C   UNL     1      -8.026  10.606  68.368  1.00  0.00    -0.120 C  
HETATM   19  C   UNL     1      -7.947  10.292  65.888  1.00  0.00    -0.137 C  
HETATM   20  C   UNL     1      -8.863   9.332  68.443  1.00  0.00    -0.129 C  
HETATM   21  C   UNL     1      -8.246  11.295  67.014  1.00  0.00    -0.151 C  
HETATM   22  C   UNL     1      -8.525   8.878  66.101  1.00  0.00    -0.125 C  
BRANCH  21  23
HETATM   23  C   UNL     1      -9.605  11.950  67.023  1.00  0.00    -0.189 A  
HETATM   24  N   UNL     1     -10.694  11.361  66.512  1.00  0.00    -0.267 NA 
HETATM   25  O   UNL     1     -11.778  12.069  67.014  1.00  0.00    -0.510 OA 
HETATM   26  C   UNL     1     -11.335  13.091  67.795  1.00  0.00    -0.292 A  
HETATM   27  C   UNL     1      -9.952  13.115  67.767  1.00  0.00    -0.227 A  
HETATM   28  C   UNL     1      -9.271  14.106  68.500  1.00  0.00    -0.187 A  
HETATM   29  C   UNL     1     -10.028  15.017  69.247  1.00  0.00    -0.218 A  
HETATM   30  C   UNL     1     -11.420  14.927  69.273  1.00  0.00    -0.303 A  
HETATM   31  C   UNL     1     -12.118  13.965  68.543  1.00  0.00    -0.331 A  
HETATM   32  F   UNL     1     -12.106  15.788  70.035  1.00  0.00    -0.334 F  
ENDBRANCH  21  23
ENDBRANCH  16  17
ENDBRANCH  15  16
ENDBRANCH   3  15
TORSDOF 4
ENDMDL
MODEL      168
REMARK 921   NORMALIZED FREE ENERGY PREDICTED BY IDOCK:   -5.01 KCAL/MOL
REMARK 922        TOTAL FREE ENERGY PREDICTED BY IDOCK:   -6.45 KCAL/MOL
REMARK 923 INTER-LIGAND FREE ENERGY PREDICTED BY IDOCK:   -5.50 KCAL/MOL
REMARK 924 INTRA-LIGAND FREE ENERGY PREDICTED BY IDOCK:   -0.95 KCAL/MOL
REMARK 927      BINDING AFFINITY PREDICTED BY RF-SCORE:    0.00 PKD
ROOT
HETATM    1  C   UNL     1     -11.559   7.998  72.679  1.00  0.00    -0.448 C  
HETATM    2  C   UNL     1     -10.657   8.756  71.740  1.00  0.00    -0.347 C  
HETATM    3  C   UNL     1      -9.319   8.610  71.650  1.00  0.00    -0.333 C  
HETATM    4  C   UNL     1      -8.627   9.431  70.621  1.00  0.00    -0.198 C  
HETATM    5  O   UNL     1     -12.318  10.662  68.235  1.00  0.00    -0.663 OA 
HETATM    6  C   UNL     1     -11.603  11.341  69.263  1.00  0.00    -0.322 C  
HETATM    7  O   UNL     1      -7.404   9.359  70.496  1.00  0.00    -0.103 OA 
HETATM    8  N   UNL     1      -9.412  10.261  69.848  1.00  0.00    -0.109 N  
HETATM    9  C   UNL     1      -8.703  11.156  68.939  1.00  0.00    -0.080 C  
HETATM   10  N   UNL     1     -11.370   9.650  70.983  1.00  0.00    -0.342 NA 
HETATM   11  C   UNL     1      -9.582  11.873  67.931  1.00  0.00    -0.193 C  
HETATM   12  C   UNL     1     -10.755  10.372  70.106  1.00  0.00    -0.233 C  
HETATM   13  C   UNL     1     -10.785  12.463  68.644  1.00  0.00    -0.260 C  
HETATM   14  H   UNL     1     -12.829   9.960  68.621  1.00  0.00     0.000 HD 
ENDROOT
BRANCH   3  15
HETATM   15  C   UNL     1      -8.424   7.649  72.400  1.00  0.00    -0.151 C  
BRANCH  15  16
HETATM   16  C   UNL     1      -8.541   6.167  71.946  1.00  0.00    -0.132 C  
BRANCH  16  17
HETATM   17  N   UNL     1      -9.017   5.962  70.568  1.00  0.00    -0.143 NA 
HETATM   18  C   UNL     1      -7.269   4.395  69.742  1.00  0.00    -0.050 C  
HETATM   19  C   UNL     1      -9.506   3.447  70.336  1.00  0.00    -0.245 C  
HETATM   20  C   UNL     1      -7.952   5.751  69.585  1.00  0.00    -0.100 C  
HETATM   21  C   UNL     1      -8.270   3.270  69.440  1.00  0.00    -0.074 C  
HETATM   22  C   UNL     1     -10.031   4.893  70.449  1.00  0.00    -0.246 C  
BRANCH  21  23
HETATM   23  C   UNL     1      -8.490   3.211  67.949  1.00  0.00    -0.088 A  
HETATM   24  N   UNL     1      -9.657   3.538  67.377  1.00  0.00    -0.187 NA 
HETATM   25  O   UNL     1      -9.381   3.715  66.028  1.00  0.00    -0.157 OA 
HETATM   26  C   UNL     1      -8.064   3.464  65.793  1.00  0.00    -0.093 A  
HETATM   27  C   UNL     1      -7.465   3.055  66.971  1.00  0.00    -0.070 A  
HETATM   28  C   UNL     1      -6.095   2.728  66.962  1.00  0.00    -0.024 A  
HETATM   29  C   UNL     1      -5.391   2.852  65.759  1.00  0.00    -0.009 A  
HETATM   30  C   UNL     1      -6.033   3.306  64.607  1.00  0.00    -0.022 A  
HETATM   31  C   UNL     1      -7.392   3.621  64.586  1.00  0.00    -0.068 A  
HETATM   32  F   UNL     1      -5.314   3.455  63.486  1.00  0.00    -0.007 F  
ENDBRANCH  21  23
ENDBRANCH  16  17
ENDBRANCH  15  16
ENDBRANCH   3  15
TORSDOF 4
ENDMDL
MODEL      169
REMARK 921   NORMALIZED FREE ENERGY PREDICTED BY IDOCK:   -4.98 KCAL/MOL
REMARK 922        TOTAL FREE ENERGY PREDICTED BY IDOCK:   -6.42 KCAL/MOL
REMARK 923 INTER-LIGAND FREE ENERGY PREDICTED BY IDOCK:   -6.25 KCAL/MOL
REMARK 924 INTRA-LIGAND FREE ENERGY PREDICTED BY IDOCK:   -0.17 KCAL/MOL
REMARK 927      BINDING AFFINITY PREDICTED BY RF-SCORE:    0.00 PKD
ROOT
HETATM    1  C   UNL     1     -14.017  10.362  72.406  1.00  0.00     0.379 C  
HETATM    2  C   UNL     1     -13.241  11.509  71.812  1.00  0.00    -0.351 C  
HETATM    3  C   UNL     1     -12.441  11.436  70.729  1.00  0.00    -0.460 C  
HETATM    4  C   UNL     1     -11.801  12.704  70.287  1.00  0.00    -0.214 C  
HETATM    5  O   UNL     1     -14.402  15.576  72.699  1.00  0.00    -0.455 OA 
HETATM    6  C   UNL     1     -13.120  15.021  72.978  1.00  0.00    -0.504 C  
HETATM    7  O   UNL     1     -11.045  12.706  69.314  1.00  0.00    -0.215 OA 
HETATM    8  N   UNL     1     -12.086  13.839  71.017  1.00  0.00    -0.310 N  
HETATM    9  C   UNL     1     -11.346  15.042  70.653  1.00  0.00    -0.271 C  
HETATM   10  N   UNL     1     -13.430  12.659  72.533  1.00  0.00    -0.398 NA 
HETATM   11  C   UNL     1     -11.851  16.322  71.293  1.00  0.00    -0.349 C  
HETATM   12  C   UNL     1     -12.854  13.750  72.152  1.00  0.00    -0.271 C  
HETATM   13  C   UNL     1     -12.060  16.093  72.779  1.00  0.00    -0.653 C  
HETATM   14  H   UNL     1     -15.065  14.906  72.823  1.00  0.00     0.000 HD 
ENDROOT
BRANCH   3  15
HETATM   15  C   UNL     1     -12.170  10.246  69.837  1.00  0.00    -0.130 C  
BRANCH  15  16
HETATM   16  C   UNL     1     -11.845   8.929  70.596  1.00  0.00    -0.128 C  
BRANCH  16  17
HETATM   17  N   UNL     1     -10.543   8.319  70.279  1.00  0.00    -0.223 NA 
HETATM   18  C   UNL     1      -9.563   8.196  72.563  1.00  0.00    -0.347 C  
HETATM   19  C   UNL     1     -10.456   6.088  71.557  1.00  0.00    -0.278 C  
HETATM   20  C   UNL     1      -9.445   8.752  71.147  1.00  0.00    -0.240 C  
HETATM   21  C   UNL     1      -9.423   6.668  72.536  1.00  0.00    -0.155 C  
HETATM   22  C   UNL     1     -10.584   6.842  70.218  1.00  0.00    -0.218 C  
BRANCH  21  23
HETATM   23  C   UNL     1      -7.972   6.322  72.307  1.00  0.00    -0.104 A  
HETATM   24  N   UNL     1      -6.970   6.972  72.913  1.00  0.00    -0.069 NA 
HETATM   25  O   UNL     1      -5.848   6.169  72.755  1.00  0.00    -0.036 OA 
HETATM   26  C   UNL     1      -6.175   5.064  72.032  1.00  0.00    -0.030 A  
HETATM   27  C   UNL     1      -7.500   5.151  71.646  1.00  0.00    -0.096 A  
HETATM   28  C   UNL     1      -8.055   4.114  70.871  1.00  0.00    -0.070 A  
HETATM   29  C   UNL     1      -7.242   3.024  70.542  1.00  0.00    -0.033 A  
HETATM   30  C   UNL     1      -5.922   2.964  70.988  1.00  0.00    -0.017 A  
HETATM   31  C   UNL     1      -5.344   3.986  71.743  1.00  0.00     0.000 A  
HETATM   32  F   UNL     1      -5.190   1.883  70.691  1.00  0.00    -0.003 F  
ENDBRANCH  21  23
ENDBRANCH  16  17
ENDBRANCH  15  16
ENDBRANCH   3  15
TORSDOF 4
ENDMDL
MODEL      170
REMARK 921   NORMALIZED FREE ENERGY PREDICTED BY IDOCK:   -4.95 KCAL/MOL
REMARK 922        TOTAL FREE ENERGY PREDICTED BY IDOCK:   -6.38 KCAL/MOL
REMARK 923 INTER-LIGAND FREE ENERGY PREDICTED BY IDOCK:   -5.77 KCAL/MOL
REMARK 924 INTRA-LIGAND FREE ENERGY PREDICTED BY IDOCK:   -0.61 KCAL/MOL
REMARK 927      BINDING AFFINITY PREDICTED BY RF-SCORE:    0.00 PKD
ROOT
HETATM    1  C   UNL     1      -6.897  11.910  67.425  1.00  0.00    -0.130 C  
HETATM    2  C   UNL     1      -7.659  13.206  67.516  1.00  0.00    -0.163 C  
HETATM    3  C   UNL     1      -8.972  13.325  67.801  1.00  0.00    -0.196 C  
HETATM    4  C   UNL     1      -9.515  14.707  67.881  1.00  0.00    -0.210 C  
HETATM    5  O   UNL     1      -5.529  16.917  68.123  1.00  0.00    -0.114 OA 
HETATM    6  C   UNL     1      -6.378  16.644  67.011  1.00  0.00    -0.187 C  
HETATM    7  O   UNL     1     -10.710  14.887  68.122  1.00  0.00    -0.243 OA 
HETATM    8  N   UNL     1      -8.630  15.743  67.663  1.00  0.00    -0.161 N  
HETATM    9  C   UNL     1      -9.206  17.082  67.612  1.00  0.00    -0.233 C  
HETATM   10  N   UNL     1      -6.848  14.278  67.244  1.00  0.00    -0.198 NA 
HETATM   11  C   UNL     1      -8.195  18.214  67.621  1.00  0.00    -0.243 C  
HETATM   12  C   UNL     1      -7.335  15.473  67.297  1.00  0.00    -0.214 C  
HETATM   13  C   UNL     1      -7.101  17.919  66.611  1.00  0.00    -0.254 C  
HETATM   14  H   UNL     1      -5.076  16.119  68.373  1.00  0.00     0.000 HD 
ENDROOT
BRANCH   3  15
HETATM   15  C   UNL     1      -9.964  12.235  68.143  1.00  0.00    -0.210 C  
BRANCH  15  16
HETATM   16  C   UNL     1     -10.270  11.251  66.979  1.00  0.00    -0.215 C  
BRANCH  16  17
HETATM   17  N   UNL     1     -10.766   9.925  67.385  1.00  0.00    -0.272 NA 
HETATM   18  C   UNL     1      -8.785   8.534  66.807  1.00  0.00    -0.133 C  
HETATM   19  C   UNL     1      -9.168   9.083  69.217  1.00  0.00    -0.145 C  
HETATM   20  C   UNL     1     -10.265   8.817  66.569  1.00  0.00    -0.244 C  
HETATM   21  C   UNL     1      -8.572   8.049  68.248  1.00  0.00    -0.130 C  
HETATM   22  C   UNL     1     -10.553   9.631  68.819  1.00  0.00    -0.216 C  
BRANCH  21  23
HETATM   23  C   UNL     1      -9.065   6.627  68.354  1.00  0.00    -0.124 A  
HETATM   24  N   UNL     1      -8.877   5.723  67.384  1.00  0.00    -0.107 NA 
HETATM   25  O   UNL     1      -9.123   4.487  67.965  1.00  0.00    -0.112 OA 
HETATM   26  C   UNL     1      -9.486   4.657  69.266  1.00  0.00    -0.162 A  
HETATM   27  C   UNL     1      -9.548   6.011  69.544  1.00  0.00    -0.171 A  
HETATM   28  C   UNL     1      -9.919   6.425  70.838  1.00  0.00    -0.211 A  
HETATM   29  C   UNL     1     -10.189   5.442  71.797  1.00  0.00    -0.263 A  
HETATM   30  C   UNL     1     -10.074   4.089  71.477  1.00  0.00    -0.096 A  
HETATM   31  C   UNL     1      -9.725   3.653  70.199  1.00  0.00    -0.188 A  
HETATM   32  F   UNL     1     -10.296   3.180  72.436  1.00  0.00    -0.222 F  
ENDBRANCH  21  23
ENDBRANCH  16  17
ENDBRANCH  15  16
ENDBRANCH   3  15
TORSDOF 4
ENDMDL
MODEL      171
REMARK 921   NORMALIZED FREE ENERGY PREDICTED BY IDOCK:   -4.90 KCAL/MOL
REMARK 922        TOTAL FREE ENERGY PREDICTED BY IDOCK:   -6.32 KCAL/MOL
REMARK 923 INTER-LIGAND FREE ENERGY PREDICTED BY IDOCK:   -7.25 KCAL/MOL
REMARK 924 INTRA-LIGAND FREE ENERGY PREDICTED BY IDOCK:    0.93 KCAL/MOL
REMARK 927      BINDING AFFINITY PREDICTED BY RF-SCORE:    0.00 PKD
ROOT
HETATM    1  C   UNL     1     -10.290  11.169  65.993  1.00  0.00    -0.308 C  
HETATM    2  C   UNL     1      -9.554   9.855  65.975  1.00  0.00    -0.225 C  
HETATM    3  C   UNL     1      -9.761   8.829  66.825  1.00  0.00    -0.286 C  
HETATM    4  C   UNL     1      -8.949   7.603  66.602  1.00  0.00    -0.156 C  
HETATM    5  O   UNL     1      -7.488   8.598  62.394  1.00  0.00    -0.101 OA 
HETATM    6  C   UNL     1      -6.868   8.780  63.663  1.00  0.00    -0.088 C  
HETATM    7  O   UNL     1      -9.076   6.634  67.352  1.00  0.00    -0.120 OA 
HETATM    8  N   UNL     1      -8.064   7.621  65.544  1.00  0.00    -0.123 N  
HETATM    9  C   UNL     1      -7.182   6.465  65.422  1.00  0.00    -0.070 C  
HETATM   10  N   UNL     1      -8.609   9.831  64.982  1.00  0.00    -0.151 NA 
HETATM   11  C   UNL     1      -6.400   6.391  64.123  1.00  0.00    -0.030 C  
HETATM   12  C   UNL     1      -7.896   8.768  64.809  1.00  0.00    -0.124 C  
HETATM   13  C   UNL     1      -5.771   7.742  63.837  1.00  0.00    -0.052 C  
HETATM   14  H   UNL     1      -8.173   9.247  62.285  1.00  0.00     0.000 HD 
ENDROOT
BRANCH   3  15
HETATM   15  C   UNL     1     -10.781   8.718  67.937  1.00  0.00    -0.171 C  
BRANCH  15  16
HETATM   16  C   UNL     1     -10.173   8.539  69.357  1.00  0.00    -0.211 C  
BRANCH  16  17
HETATM   17  N   UNL     1     -10.247   9.721  70.231  1.00  0.00    -0.277 NA 
HETATM   18  C   UNL     1     -12.107  10.951  69.126  1.00  0.00    -0.292 C  
HETATM   19  C   UNL     1     -12.611   9.725  71.246  1.00  0.00    -0.460 C  
HETATM   20  C   UNL     1     -10.641  10.955  69.546  1.00  0.00    -0.175 C  
HETATM   21  C   UNL     1     -13.006  10.924  70.370  1.00  0.00    -0.172 C  
HETATM   22  C   UNL     1     -11.093   9.517  71.426  1.00  0.00    -0.368 C  
BRANCH  21  23
HETATM   23  C   UNL     1     -12.985  12.292  71.007  1.00  0.00    -0.064 A  
HETATM   24  N   UNL     1     -13.191  12.482  72.317  1.00  0.00    -0.421 NA 
HETATM   25  O   UNL     1     -12.745  13.768  72.587  1.00  0.00    -0.227 OA 
HETATM   26  C   UNL     1     -12.305  14.351  71.439  1.00  0.00    -0.360 A  
HETATM   27  C   UNL     1     -12.514  13.483  70.382  1.00  0.00    -0.345 A  
HETATM   28  C   UNL     1     -12.142  13.885  69.085  1.00  0.00    -0.377 A  
HETATM   29  C   UNL     1     -11.554  15.145  68.923  1.00  0.00    -0.361 A  
HETATM   30  C   UNL     1     -11.328  15.968  70.027  1.00  0.00    -0.352 A  
HETATM   31  C   UNL     1     -11.702  15.599  71.319  1.00  0.00    -0.478 A  
HETATM   32  F   UNL     1     -10.721  17.147  69.837  1.00  0.00    -0.306 F  
ENDBRANCH  21  23
ENDBRANCH  16  17
ENDBRANCH  15  16
ENDBRANCH   3  15
TORSDOF 4
ENDMDL
MODEL      172
REMARK 921   NORMALIZED FREE ENERGY PREDICTED BY IDOCK:   -4.88 KCAL/MOL
REMARK 922        TOTAL FREE ENERGY PREDICTED BY IDOCK:   -6.29 KCAL/MOL
REMARK 923 INTER-LIGAND FREE ENERGY PREDICTED BY IDOCK:   -6.06 KCAL/MOL
REMARK 924 INTRA-LIGAND FREE ENERGY PREDICTED BY IDOCK:   -0.23 KCAL/MOL
REMARK 927      BINDING AFFINITY PREDICTED BY RF-SCORE:    0.00 PKD
ROOT
HETATM    1  C   UNL     1     -10.486   2.518  73.684  1.00  0.00    -0.225 C  
HETATM    2  C   UNL     1      -9.713   3.037  72.500  1.00  0.00    -0.141 C  
HETATM    3  C   UNL     1      -9.991   4.165  71.816  1.00  0.00    -0.246 C  
HETATM    4  C   UNL     1      -9.070   4.514  70.700  1.00  0.00    -0.119 C  
HETATM    5  O   UNL     1      -5.667   1.683  71.813  1.00  0.00    -0.008 OA 
HETATM    6  C   UNL     1      -6.739   1.533  70.885  1.00  0.00    -0.024 C  
HETATM    7  O   UNL     1      -9.275   5.522  70.024  1.00  0.00    -0.135 OA 
HETATM    8  N   UNL     1      -8.013   3.658  70.470  1.00  0.00    -0.053 N  
HETATM    9  C   UNL     1      -7.201   3.941  69.291  1.00  0.00    -0.053 C  
HETATM   10  N   UNL     1      -8.681   2.194  72.175  1.00  0.00    -0.067 NA 
HETATM   11  C   UNL     1      -5.910   3.148  69.198  1.00  0.00    -0.023 C  
HETATM   12  C   UNL     1      -7.899   2.497  71.193  1.00  0.00    -0.043 C  
HETATM   13  C   UNL     1      -6.199   1.683  69.472  1.00  0.00    -0.025 C  
HETATM   14  H   UNL     1      -6.004   1.589  72.696  1.00  0.00     0.000 HD 
ENDROOT
BRANCH   3  15
HETATM   15  C   UNL     1     -11.074   5.186  72.084  1.00  0.00    -0.129 C  
BRANCH  15  16
HETATM   16  C   UNL     1     -10.572   6.505  72.738  1.00  0.00    -0.230 C  
BRANCH  16  17
HETATM   17  N   UNL     1     -11.430   7.683  72.525  1.00  0.00    -0.341 NA 
HETATM   18  C   UNL     1      -9.905   9.074  71.134  1.00  0.00    -0.371 C  
HETATM   19  C   UNL     1     -11.776   7.879  69.984  1.00  0.00     0.251 C  
HETATM   20  C   UNL     1     -10.702   8.950  72.430  1.00  0.00    -0.005 C  
HETATM   21  C   UNL     1     -10.863   9.114  69.935  1.00  0.00    -0.242 C  
HETATM   22  C   UNL     1     -12.349   7.542  71.376  1.00  0.00    -0.345 C  
BRANCH  21  23
HETATM   23  C   UNL     1     -11.522  10.470  69.893  1.00  0.00    -0.310 A  
HETATM   24  N   UNL     1     -11.932  11.109  70.996  1.00  0.00    -0.251 NA 
HETATM   25  O   UNL     1     -12.138  12.428  70.615  1.00  0.00    -0.358 OA 
HETATM   26  C   UNL     1     -11.881  12.566  69.286  1.00  0.00    -0.304 A  
HETATM   27  C   UNL     1     -11.566  11.328  68.755  1.00  0.00    -0.383 A  
HETATM   28  C   UNL     1     -11.273  11.228  67.382  1.00  0.00    -0.370 A  
HETATM   29  C   UNL     1     -11.293  12.398  66.612  1.00  0.00    -0.394 A  
HETATM   30  C   UNL     1     -11.579  13.629  67.202  1.00  0.00    -0.361 A  
HETATM   31  C   UNL     1     -11.888  13.751  68.557  1.00  0.00    -0.406 A  
HETATM   32  F   UNL     1     -11.544  14.731  66.442  1.00  0.00    -0.352 F  
ENDBRANCH  21  23
ENDBRANCH  16  17
ENDBRANCH  15  16
ENDBRANCH   3  15
TORSDOF 4
ENDMDL
MODEL      173
REMARK 921   NORMALIZED FREE ENERGY PREDICTED BY IDOCK:   -4.87 KCAL/MOL
REMARK 922        TOTAL FREE ENERGY PREDICTED BY IDOCK:   -6.28 KCAL/MOL
REMARK 923 INTER-LIGAND FREE ENERGY PREDICTED BY IDOCK:   -5.73 KCAL/MOL
REMARK 924 INTRA-LIGAND FREE ENERGY PREDICTED BY IDOCK:   -0.55 KCAL/MOL
REMARK 927      BINDING AFFINITY PREDICTED BY RF-SCORE:    0.00 PKD
ROOT
HETATM    1  C   UNL     1      -6.552   9.646  70.008  1.00  0.00    -0.072 C  
HETATM    2  C   UNL     1      -7.926  10.085  69.576  1.00  0.00    -0.158 C  
HETATM    3  C   UNL     1      -9.080   9.777  70.203  1.00  0.00    -0.240 C  
HETATM    4  C   UNL     1     -10.326  10.353  69.628  1.00  0.00    -0.226 C  
HETATM    5  O   UNL     1      -8.370  13.486  66.947  1.00  0.00    -0.380 OA 
HETATM    6  C   UNL     1      -8.839  12.173  66.657  1.00  0.00    -0.182 C  
HETATM    7  O   UNL     1     -11.416  10.098  70.141  1.00  0.00    -0.261 OA 
HETATM    8  N   UNL     1     -10.190  11.153  68.513  1.00  0.00    -0.191 N  
HETATM    9  C   UNL     1     -11.430  11.598  67.885  1.00  0.00    -0.311 C  
HETATM   10  N   UNL     1      -7.869  10.835  68.430  1.00  0.00    -0.113 NA 
HETATM   11  C   UNL     1     -11.261  12.669  66.823  1.00  0.00    -0.347 C  
HETATM   12  C   UNL     1      -8.958  11.314  67.928  1.00  0.00    -0.146 C  
HETATM   13  C   UNL     1     -10.141  12.269  65.879  1.00  0.00    -0.272 C  
HETATM   14  H   UNL     1      -7.555  13.426  67.433  1.00  0.00     0.000 HD 
ENDROOT
BRANCH   3  15
HETATM   15  C   UNL     1      -9.278   8.988  71.478  1.00  0.00    -0.260 C  
BRANCH  15  16
HETATM   16  C   UNL     1      -9.235   7.445  71.296  1.00  0.00    -0.150 C  
BRANCH  16  17
HETATM   17  N   UNL     1      -8.875   6.975  69.948  1.00  0.00    -0.142 NA 
HETATM   18  C   UNL     1      -8.506   4.560  70.423  1.00  0.00    -0.096 C  
HETATM   19  C   UNL     1     -10.639   5.220  69.296  1.00  0.00    -0.188 C  
HETATM   20  C   UNL     1      -7.908   5.874  69.930  1.00  0.00    -0.096 C  
HETATM   21  C   UNL     1      -9.606   4.094  69.459  1.00  0.00    -0.274 C  
HETATM   22  C   UNL     1     -10.045   6.631  69.112  1.00  0.00    -0.169 C  
BRANCH  21  23
HETATM   23  C   UNL     1      -8.953   3.558  68.208  1.00  0.00    -0.133 A  
HETATM   24  N   UNL     1      -7.996   2.622  68.238  1.00  0.00    -0.058 NA 
HETATM   25  O   UNL     1      -7.907   2.132  66.942  1.00  0.00    -0.065 OA 
HETATM   26  C   UNL     1      -8.785   2.794  66.140  1.00  0.00    -0.131 A  
HETATM   27  C   UNL     1      -9.420   3.775  66.879  1.00  0.00    -0.224 A  
HETATM   28  C   UNL     1     -10.370   4.599  66.246  1.00  0.00    -0.293 A  
HETATM   29  C   UNL     1     -10.647   4.373  64.893  1.00  0.00    -0.120 A  
HETATM   30  C   UNL     1     -10.008   3.344  64.201  1.00  0.00    -0.185 A  
HETATM   31  C   UNL     1      -9.051   2.525  64.801  1.00  0.00    -0.132 A  
HETATM   32  F   UNL     1     -10.334   3.130  62.919  1.00  0.00    -0.116 F  
ENDBRANCH  21  23
ENDBRANCH  16  17
ENDBRANCH  15  16
ENDBRANCH   3  15
TORSDOF 4
ENDMDL
MODEL      174
REMARK 921   NORMALIZED FREE ENERGY PREDICTED BY IDOCK:   -4.87 KCAL/MOL
REMARK 922        TOTAL FREE ENERGY PREDICTED BY IDOCK:   -6.28 KCAL/MOL
REMARK 923 INTER-LIGAND FREE ENERGY PREDICTED BY IDOCK:   -6.76 KCAL/MOL
REMARK 924 INTRA-LIGAND FREE ENERGY PREDICTED BY IDOCK:    0.48 KCAL/MOL
REMARK 927      BINDING AFFINITY PREDICTED BY RF-SCORE:    0.00 PKD
ROOT
HETATM    1  C   UNL     1     -10.340  15.066  68.688  1.00  0.00    -0.236 C  
HETATM    2  C   UNL     1     -10.064  14.052  67.610  1.00  0.00    -0.241 C  
HETATM    3  C   UNL     1      -9.008  13.214  67.574  1.00  0.00    -0.197 C  
HETATM    4  C   UNL     1      -8.952  12.260  66.434  1.00  0.00    -0.117 C  
HETATM    5  O   UNL     1     -13.271  12.727  65.034  1.00  0.00    -0.768 OA 
HETATM    6  C   UNL     1     -12.072  13.346  64.579  1.00  0.00    -0.409 C  
HETATM    7  O   UNL     1      -8.007  11.477  66.331  1.00  0.00    -0.139 OA 
HETATM    8  N   UNL     1      -9.985  12.312  65.521  1.00  0.00    -0.253 N  
HETATM    9  C   UNL     1      -9.845  11.465  64.341  1.00  0.00    -0.261 C  
HETATM   10  N   UNL     1     -11.024  14.096  66.632  1.00  0.00    -0.299 NA 
HETATM   11  C   UNL     1     -11.093  11.350  63.484  1.00  0.00    -0.373 C  
HETATM   12  C   UNL     1     -10.955  13.276  65.636  1.00  0.00    -0.277 C  
HETATM   13  C   UNL     1     -11.669  12.735  63.247  1.00  0.00    -0.444 C  
HETATM   14  H   UNL     1     -13.523  13.109  65.867  1.00  0.00     0.000 HD 
ENDROOT
BRANCH   3  15
HETATM   15  C   UNL     1      -7.903  13.047  68.593  1.00  0.00    -0.050 C  
BRANCH  15  16
HETATM   16  C   UNL     1      -7.185  11.669  68.549  1.00  0.00    -0.094 C  
BRANCH  16  17
HETATM   17  N   UNL     1      -7.374  10.818  69.735  1.00  0.00    -0.114 NA 
HETATM   18  C   UNL     1      -8.704   8.971  68.727  1.00  0.00    -0.136 C  
HETATM   19  C   UNL     1      -6.281   8.555  69.186  1.00  0.00    -0.043 C  
HETATM   20  C   UNL     1      -8.646  10.091  69.761  1.00  0.00    -0.173 C  
HETATM   21  C   UNL     1      -7.664   7.894  69.067  1.00  0.00    -0.101 C  
HETATM   22  C   UNL     1      -6.255   9.881  69.973  1.00  0.00    -0.065 C  
BRANCH  21  23
HETATM   23  C   UNL     1      -8.163   7.100  70.248  1.00  0.00    -0.131 A  
HETATM   24  N   UNL     1      -7.393   6.817  71.306  1.00  0.00    -0.081 NA 
HETATM   25  O   UNL     1      -8.262   6.415  72.311  1.00  0.00    -0.108 OA 
HETATM   26  C   UNL     1      -9.540   6.429  71.843  1.00  0.00    -0.151 A  
HETATM   27  C   UNL     1      -9.528   6.778  70.505  1.00  0.00    -0.171 A  
HETATM   28  C   UNL     1     -10.748   6.845  69.806  1.00  0.00    -0.276 A  
HETATM   29  C   UNL     1     -11.930   6.575  70.506  1.00  0.00    -0.322 A  
HETATM   30  C   UNL     1     -11.892   6.267  71.866  1.00  0.00    -0.305 A  
HETATM   31  C   UNL     1     -10.695   6.178  72.577  1.00  0.00    -0.257 A  
HETATM   32  F   UNL     1     -13.048   6.060  72.511  1.00  0.00    -0.165 F  
ENDBRANCH  21  23
ENDBRANCH  16  17
ENDBRANCH  15  16
ENDBRANCH   3  15
TORSDOF 4
ENDMDL
MODEL      175
REMARK 921   NORMALIZED FREE ENERGY PREDICTED BY IDOCK:   -4.83 KCAL/MOL
REMARK 922        TOTAL FREE ENERGY PREDICTED BY IDOCK:   -6.23 KCAL/MOL
REMARK 923 INTER-LIGAND FREE ENERGY PREDICTED BY IDOCK:   -6.33 KCAL/MOL
REMARK 924 INTRA-LIGAND FREE ENERGY PREDICTED BY IDOCK:    0.10 KCAL/MOL
REMARK 927      BINDING AFFINITY PREDICTED BY RF-SCORE:    0.00 PKD
ROOT
HETATM    1  C   UNL     1      -7.070   4.667  68.967  1.00  0.00    -0.052 C  
HETATM    2  C   UNL     1      -8.215   5.548  69.395  1.00  0.00    -0.098 C  
HETATM    3  C   UNL     1      -8.954   6.324  68.577  1.00  0.00    -0.123 C  
HETATM    4  C   UNL     1     -10.067   7.085  69.205  1.00  0.00    -0.173 C  
HETATM    5  O   UNL     1     -10.197   4.817  73.164  1.00  0.00    -0.155 OA 
HETATM    6  C   UNL     1      -9.557   6.040  72.811  1.00  0.00    -0.155 C  
HETATM    7  O   UNL     1     -10.772   7.826  68.519  1.00  0.00    -0.150 OA 
HETATM    8  N   UNL     1     -10.248   6.925  70.564  1.00  0.00    -0.191 N  
HETATM    9  C   UNL     1     -11.254   7.779  71.185  1.00  0.00    -0.264 C  
HETATM   10  N   UNL     1      -8.407   5.485  70.751  1.00  0.00    -0.119 NA 
HETATM   11  C   UNL     1     -11.609   7.415  72.615  1.00  0.00    -0.295 C  
HETATM   12  C   UNL     1      -9.364   6.165  71.289  1.00  0.00    -0.159 C  
HETATM   13  C   UNL     1     -10.333   7.201  73.410  1.00  0.00    -0.391 C  
HETATM   14  H   UNL     1      -9.712   4.091  72.790  1.00  0.00     0.000 HD 
ENDROOT
BRANCH   3  15
HETATM   15  C   UNL     1      -8.864   6.463  67.074  1.00  0.00    -0.115 C  
BRANCH  15  16
HETATM   16  C   UNL     1      -7.894   7.575  66.584  1.00  0.00    -0.106 C  
BRANCH  16  17
HETATM   17  N   UNL     1      -8.450   8.508  65.590  1.00  0.00    -0.146 NA 
HETATM   18  C   UNL     1      -9.556  10.139  67.109  1.00  0.00    -0.202 C  
HETATM   19  C   UNL     1      -7.381  10.798  66.067  1.00  0.00    -0.114 C  
HETATM   20  C   UNL     1      -9.720   9.123  65.983  1.00  0.00    -0.287 C  
HETATM   21  C   UNL     1      -8.713  11.326  66.622  1.00  0.00    -0.174 C  
HETATM   22  C   UNL     1      -7.495   9.553  65.164  1.00  0.00    -0.109 C  
BRANCH  21  23
HETATM   23  C   UNL     1      -9.563  12.176  65.710  1.00  0.00    -0.197 A  
HETATM   24  N   UNL     1     -10.567  11.672  64.981  1.00  0.00    -0.278 NA 
HETATM   25  O   UNL     1     -11.323  12.763  64.574  1.00  0.00    -0.307 OA 
HETATM   26  C   UNL     1     -10.755  13.911  65.032  1.00  0.00    -0.386 A  
HETATM   27  C   UNL     1      -9.579  13.601  65.693  1.00  0.00    -0.026 A  
HETATM   28  C   UNL     1      -8.810  14.644  66.244  1.00  0.00    -0.006 A  
HETATM   29  C   UNL     1      -9.283  15.955  66.117  1.00  0.00    -0.384 A  
HETATM   30  C   UNL     1     -10.495  16.212  65.475  1.00  0.00    -0.386 A  
HETATM   31  C   UNL     1     -11.266  15.199  64.907  1.00  0.00    -0.424 A  
HETATM   32  F   UNL     1     -10.935  17.476  65.414  1.00  0.00    -0.352 F  
ENDBRANCH  21  23
ENDBRANCH  16  17
ENDBRANCH  15  16
ENDBRANCH   3  15
TORSDOF 4
ENDMDL
MODEL      176
REMARK 921   NORMALIZED FREE ENERGY PREDICTED BY IDOCK:   -4.81 KCAL/MOL
REMARK 922        TOTAL FREE ENERGY PREDICTED BY IDOCK:   -6.21 KCAL/MOL
REMARK 923 INTER-LIGAND FREE ENERGY PREDICTED BY IDOCK:   -5.51 KCAL/MOL
REMARK 924 INTRA-LIGAND FREE ENERGY PREDICTED BY IDOCK:   -0.70 KCAL/MOL
REMARK 927      BINDING AFFINITY PREDICTED BY RF-SCORE:    0.00 PKD
ROOT
HETATM    1  C   UNL     1     -12.533  10.268  69.329  1.00  0.00     0.532 C  
HETATM    2  C   UNL     1     -12.380  11.761  69.450  1.00  0.00    -0.035 C  
HETATM    3  C   UNL     1     -12.121  12.608  68.433  1.00  0.00    -0.135 C  
HETATM    4  C   UNL     1     -12.051  14.055  68.770  1.00  0.00    -0.303 C  
HETATM    5  O   UNL     1     -13.989  13.814  72.896  1.00  0.00    -0.635 OA 
HETATM    6  C   UNL     1     -12.617  13.834  72.510  1.00  0.00    -0.006 C  
HETATM    7  O   UNL     1     -11.802  14.881  67.892  1.00  0.00    -0.338 OA 
HETATM    8  N   UNL     1     -12.262  14.402  70.089  1.00  0.00    -0.323 N  
HETATM    9  C   UNL     1     -12.056  15.807  70.425  1.00  0.00    -0.370 C  
HETATM   10  N   UNL     1     -12.514  12.168  70.753  1.00  0.00    -0.325 NA 
HETATM   11  C   UNL     1     -12.531  16.210  71.809  1.00  0.00    -0.321 C  
HETATM   12  C   UNL     1     -12.432  13.425  71.038  1.00  0.00    -0.353 C  
HETATM   13  C   UNL     1     -12.030  15.200  72.826  1.00  0.00    -0.482 C  
HETATM   14  H   UNL     1     -14.356  12.960  72.698  1.00  0.00     0.000 HD 
ENDROOT
BRANCH   3  15
HETATM   15  C   UNL     1     -11.978  12.294  66.960  1.00  0.00    -0.213 C  
BRANCH  15  16
HETATM   16  C   UNL     1     -10.516  12.050  66.490  1.00  0.00    -0.221 C  
BRANCH  16  17
HETATM   17  N   UNL     1      -9.771  11.029  67.246  1.00  0.00    -0.165 NA 
HETATM   18  C   UNL     1      -9.698   9.211  65.547  1.00  0.00    -0.171 C  
HETATM   19  C   UNL     1      -7.624  10.561  65.908  1.00  0.00    -0.148 C  
HETATM   20  C   UNL     1     -10.153   9.649  66.936  1.00  0.00    -0.227 C  
HETATM   21  C   UNL     1      -8.165   9.185  65.485  1.00  0.00    -0.124 C  
HETATM   22  C   UNL     1      -8.303  11.179  67.147  1.00  0.00    -0.136 C  
BRANCH  21  23
HETATM   23  C   UNL     1      -7.673   7.978  66.245  1.00  0.00    -0.091 A  
HETATM   24  N   UNL     1      -7.168   8.060  67.482  1.00  0.00    -0.086 NA 
HETATM   25  O   UNL     1      -7.172   6.764  67.979  1.00  0.00    -0.086 OA 
HETATM   26  C   UNL     1      -7.648   5.911  67.031  1.00  0.00    -0.099 A  
HETATM   27  C   UNL     1      -7.905   6.622  65.872  1.00  0.00    -0.102 A  
HETATM   28  C   UNL     1      -8.398   5.936  64.746  1.00  0.00    -0.103 A  
HETATM   29  C   UNL     1      -8.628   4.559  64.856  1.00  0.00    -0.135 A  
HETATM   30  C   UNL     1      -8.390   3.895  66.059  1.00  0.00    -0.109 A  
HETATM   31  C   UNL     1      -7.886   4.549  67.184  1.00  0.00    -0.097 A  
HETATM   32  F   UNL     1      -8.666   2.587  66.138  1.00  0.00    -0.103 F  
ENDBRANCH  21  23
ENDBRANCH  16  17
ENDBRANCH  15  16
ENDBRANCH   3  15
TORSDOF 4
ENDMDL
MODEL      177
REMARK 921   NORMALIZED FREE ENERGY PREDICTED BY IDOCK:   -4.78 KCAL/MOL
REMARK 922        TOTAL FREE ENERGY PREDICTED BY IDOCK:   -6.18 KCAL/MOL
REMARK 923 INTER-LIGAND FREE ENERGY PREDICTED BY IDOCK:   -5.64 KCAL/MOL
REMARK 924 INTRA-LIGAND FREE ENERGY PREDICTED BY IDOCK:   -0.53 KCAL/MOL
REMARK 927      BINDING AFFINITY PREDICTED BY RF-SCORE:    0.00 PKD
ROOT
HETATM    1  C   UNL     1      -7.518   8.421  72.165  1.00  0.00    -0.146 C  
HETATM    2  C   UNL     1      -8.729   8.928  71.426  1.00  0.00    -0.192 C  
HETATM    3  C   UNL     1     -10.009   8.618  71.713  1.00  0.00    -0.371 C  
HETATM    4  C   UNL     1     -11.056   9.265  70.877  1.00  0.00    -0.306 C  
HETATM    5  O   UNL     1      -8.430  12.494  69.003  1.00  0.00    -0.335 OA 
HETATM    6  C   UNL     1      -8.827  11.216  68.515  1.00  0.00    -0.161 C  
HETATM    7  O   UNL     1     -12.245   9.014  71.075  1.00  0.00    -0.289 OA 
HETATM    8  N   UNL     1     -10.626  10.128  69.890  1.00  0.00    -0.269 N  
HETATM    9  C   UNL     1     -11.655  10.647  68.995  1.00  0.00    -0.261 C  
HETATM   10  N   UNL     1      -8.367   9.744  70.385  1.00  0.00    -0.175 NA 
HETATM   11  C   UNL     1     -11.203  11.775  68.086  1.00  0.00    -0.320 C  
HETATM   12  C   UNL     1      -9.283  10.286  69.653  1.00  0.00    -0.129 C  
HETATM   13  C   UNL     1      -9.883  11.399  67.437  1.00  0.00    -0.199 C  
HETATM   14  H   UNL     1      -7.770  12.380  69.677  1.00  0.00     0.000 HD 
ENDROOT
BRANCH   3  15
HETATM   15  C   UNL     1     -10.541   7.759  72.839  1.00  0.00    -0.428 C  
BRANCH  15  16
HETATM   16  C   UNL     1      -9.903   6.344  72.929  1.00  0.00    -0.167 C  
BRANCH  16  17
HETATM   17  N   UNL     1     -10.327   5.391  71.889  1.00  0.00    -0.207 NA 
HETATM   18  C   UNL     1      -8.276   5.362  70.479  1.00  0.00    -0.110 C  
HETATM   19  C   UNL     1      -8.679   3.418  72.000  1.00  0.00    -0.117 C  
HETATM   20  C   UNL     1      -9.771   5.660  70.561  1.00  0.00    -0.180 C  
HETATM   21  C   UNL     1      -8.033   3.859  70.677  1.00  0.00    -0.054 C  
HETATM   22  C   UNL     1     -10.093   3.978  72.256  1.00  0.00    -0.170 C  
BRANCH  21  23
HETATM   23  C   UNL     1      -8.450   3.136  69.420  1.00  0.00    -0.062 A  
HETATM   24  N   UNL     1      -9.399   2.192  69.412  1.00  0.00    -0.117 NA 
HETATM   25  O   UNL     1      -9.758   2.028  68.080  1.00  0.00    -0.161 OA 
HETATM   26  C   UNL     1      -9.003   2.847  67.299  1.00  0.00    -0.161 A  
HETATM   27  C   UNL     1      -8.091   3.517  68.094  1.00  0.00    -0.083 A  
HETATM   28  C   UNL     1      -7.192   4.417  67.492  1.00  0.00    -0.069 A  
HETATM   29  C   UNL     1      -7.275   4.612  66.108  1.00  0.00    -0.076 A  
HETATM   30  C   UNL     1      -8.238   3.942  65.355  1.00  0.00    -0.101 A  
HETATM   31  C   UNL     1      -9.130   3.033  65.926  1.00  0.00    -0.141 A  
HETATM   32  F   UNL     1      -8.316   4.190  64.041  1.00  0.00    -0.088 F  
ENDBRANCH  21  23
ENDBRANCH  16  17
ENDBRANCH  15  16
ENDBRANCH   3  15
TORSDOF 4
ENDMDL
MODEL      178
REMARK 921   NORMALIZED FREE ENERGY PREDICTED BY IDOCK:   -4.78 KCAL/MOL
REMARK 922        TOTAL FREE ENERGY PREDICTED BY IDOCK:   -6.17 KCAL/MOL
REMARK 923 INTER-LIGAND FREE ENERGY PREDICTED BY IDOCK:   -5.51 KCAL/MOL
REMARK 924 INTRA-LIGAND FREE ENERGY PREDICTED BY IDOCK:   -0.66 KCAL/MOL
REMARK 927      BINDING AFFINITY PREDICTED BY RF-SCORE:    0.00 PKD
ROOT
HETATM    1  C   UNL     1     -12.308  15.107  66.592  1.00  0.00     0.612 C  
HETATM    2  C   UNL     1     -10.967  15.381  67.219  1.00  0.00    -0.317 C  
HETATM    3  C   UNL     1     -10.209  14.478  67.875  1.00  0.00    -0.231 C  
HETATM    4  C   UNL     1      -8.894  14.954  68.382  1.00  0.00    -0.178 C  
HETATM    5  O   UNL     1      -8.666  18.816  65.961  1.00  0.00    -0.481 OA 
HETATM    6  C   UNL     1      -9.099  18.578  67.297  1.00  0.00    -0.277 C  
HETATM    7  O   UNL     1      -8.159  14.186  69.004  1.00  0.00    -0.078 OA 
HETATM    8  N   UNL     1      -8.564  16.270  68.132  1.00  0.00    -0.180 N  
HETATM    9  C   UNL     1      -7.335  16.754  68.751  1.00  0.00    -0.227 C  
HETATM   10  N   UNL     1     -10.606  16.695  67.062  1.00  0.00    -0.288 NA 
HETATM   11  C   UNL     1      -6.865  18.112  68.264  1.00  0.00    -0.229 C  
HETATM   12  C   UNL     1      -9.470  17.102  67.523  1.00  0.00    -0.247 C  
HETATM   13  C   UNL     1      -8.036  19.078  68.262  1.00  0.00    -0.359 C  
HETATM   14  H   UNL     1      -9.331  18.503  65.357  1.00  0.00     0.000 HD 
ENDROOT
BRANCH   3  15
HETATM   15  C   UNL     1     -10.477  13.006  68.094  1.00  0.00    -0.252 C  
BRANCH  15  16
HETATM   16  C   UNL     1      -9.887  12.072  67.000  1.00  0.00    -0.194 C  
BRANCH  16  17
HETATM   17  N   UNL     1      -8.901  11.087  67.473  1.00  0.00    -0.130 NA 
HETATM   18  C   UNL     1     -10.344   9.731  68.982  1.00  0.00    -0.222 C  
HETATM   19  C   UNL     1      -9.772   8.780  66.740  1.00  0.00    -0.286 C  
HETATM   20  C   UNL     1      -9.117  10.628  68.848  1.00  0.00    -0.176 C  
HETATM   21  C   UNL     1     -10.127   8.431  68.194  1.00  0.00    -0.239 C  
HETATM   22  C   UNL     1      -8.752   9.924  66.572  1.00  0.00    -0.128 C  
BRANCH  21  23
HETATM   23  C   UNL     1      -9.161   7.561  68.960  1.00  0.00    -0.140 A  
HETATM   24  N   UNL     1      -7.874   7.432  68.613  1.00  0.00    -0.119 NA 
HETATM   25  O   UNL     1      -7.238   6.878  69.716  1.00  0.00    -0.075 OA 
HETATM   26  C   UNL     1      -8.148   6.649  70.702  1.00  0.00    -0.112 A  
HETATM   27  C   UNL     1      -9.408   6.989  70.242  1.00  0.00    -0.159 A  
HETATM   28  C   UNL     1     -10.514   6.822  71.097  1.00  0.00    -0.239 A  
HETATM   29  C   UNL     1     -10.286   6.337  72.390  1.00  0.00    -0.215 A  
HETATM   30  C   UNL     1      -8.992   6.046  72.819  1.00  0.00    -0.123 A  
HETATM   31  C   UNL     1      -7.881   6.187  71.987  1.00  0.00    -0.105 A  
HETATM   32  F   UNL     1      -8.810   5.627  74.079  1.00  0.00    -0.119 F  
ENDBRANCH  21  23
ENDBRANCH  16  17
ENDBRANCH  15  16
ENDBRANCH   3  15
TORSDOF 4
ENDMDL
MODEL      179
REMARK 921   NORMALIZED FREE ENERGY PREDICTED BY IDOCK:   -4.76 KCAL/MOL
REMARK 922        TOTAL FREE ENERGY PREDICTED BY IDOCK:   -6.14 KCAL/MOL
REMARK 923 INTER-LIGAND FREE ENERGY PREDICTED BY IDOCK:   -5.42 KCAL/MOL
REMARK 924 INTRA-LIGAND FREE ENERGY PREDICTED BY IDOCK:   -0.72 KCAL/MOL
REMARK 927      BINDING AFFINITY PREDICTED BY RF-SCORE:    0.00 PKD
ROOT
HETATM    1  C   UNL     1     -10.371  11.594  63.573  1.00  0.00    -0.488 C  
HETATM    2  C   UNL     1     -10.431  11.902  65.046  1.00  0.00    -0.289 C  
HETATM    3  C   UNL     1     -10.289  11.003  66.041  1.00  0.00    -0.311 C  
HETATM    4  C   UNL     1     -10.343  11.532  67.430  1.00  0.00    -0.207 C  
HETATM    5  O   UNL     1      -9.818  15.953  66.423  1.00  0.00    -0.249 OA 
HETATM    6  C   UNL     1     -10.993  15.185  66.666  1.00  0.00    -0.318 C  
HETATM    7  O   UNL     1     -10.236  10.763  68.387  1.00  0.00    -0.163 OA 
HETATM    8  N   UNL     1     -10.527  12.891  67.578  1.00  0.00    -0.222 N  
HETATM    9  C   UNL     1     -10.712  13.372  68.943  1.00  0.00    -0.190 C  
HETATM   10  N   UNL     1     -10.678  13.234  65.264  1.00  0.00    -0.301 NA 
HETATM   11  C   UNL     1     -10.662  14.880  69.103  1.00  0.00    -0.253 C  
HETATM   12  C   UNL     1     -10.742  13.679  66.474  1.00  0.00    -0.284 C  
HETATM   13  C   UNL     1     -11.536  15.527  68.044  1.00  0.00    -0.276 C  
HETATM   14  H   UNL     1      -9.478  15.739  65.561  1.00  0.00     0.000 HD 
ENDROOT
BRANCH   3  15
HETATM   15  C   UNL     1      -9.990   9.524  65.938  1.00  0.00    -0.342 C  
BRANCH  15  16
HETATM   16  C   UNL     1      -8.502   9.184  65.641  1.00  0.00    -0.139 C  
BRANCH  16  17
HETATM   17  N   UNL     1      -7.710   8.742  66.800  1.00  0.00    -0.093 NA 
HETATM   18  C   UNL     1      -8.831   6.572  67.279  1.00  0.00    -0.112 C  
HETATM   19  C   UNL     1      -6.615   6.515  66.122  1.00  0.00    -0.048 C  
HETATM   20  C   UNL     1      -8.464   7.963  67.786  1.00  0.00    -0.125 C  
HETATM   21  C   UNL     1      -7.557   5.744  67.060  1.00  0.00    -0.099 C  
HETATM   22  C   UNL     1      -6.474   8.020  66.427  1.00  0.00    -0.047 C  
BRANCH  21  23
HETATM   23  C   UNL     1      -7.017   5.329  68.406  1.00  0.00    -0.061 A  
HETATM   24  N   UNL     1      -5.833   5.747  68.870  1.00  0.00    -0.015 NA 
HETATM   25  O   UNL     1      -5.842   5.476  70.231  1.00  0.00    -0.019 OA 
HETATM   26  C   UNL     1      -7.013   4.871  70.570  1.00  0.00    -0.044 A  
HETATM   27  C   UNL     1      -7.767   4.675  69.427  1.00  0.00    -0.059 A  
HETATM   28  C   UNL     1      -9.023   4.048  69.537  1.00  0.00    -0.163 A  
HETATM   29  C   UNL     1      -9.466   3.668  70.810  1.00  0.00    -0.238 A  
HETATM   30  C   UNL     1      -8.684   3.924  71.937  1.00  0.00    -0.096 A  
HETATM   31  C   UNL     1      -7.430   4.528  71.852  1.00  0.00    -0.075 A  
HETATM   32  F   UNL     1      -9.163   3.586  73.142  1.00  0.00    -0.098 F  
ENDBRANCH  21  23
ENDBRANCH  16  17
ENDBRANCH  15  16
ENDBRANCH   3  15
TORSDOF 4
ENDMDL
MODEL      180
REMARK 921   NORMALIZED FREE ENERGY PREDICTED BY IDOCK:   -4.75 KCAL/MOL
REMARK 922        TOTAL FREE ENERGY PREDICTED BY IDOCK:   -6.14 KCAL/MOL
REMARK 923 INTER-LIGAND FREE ENERGY PREDICTED BY IDOCK:   -5.63 KCAL/MOL
REMARK 924 INTRA-LIGAND FREE ENERGY PREDICTED BY IDOCK:   -0.50 KCAL/MOL
REMARK 927      BINDING AFFINITY PREDICTED BY RF-SCORE:    0.00 PKD
ROOT
HETATM    1  C   UNL     1     -11.403  12.469  66.112  1.00  0.00    -0.388 C  
HETATM    2  C   UNL     1     -10.086  11.761  65.929  1.00  0.00    -0.234 C  
HETATM    3  C   UNL     1      -9.197  11.495  66.908  1.00  0.00    -0.181 C  
HETATM    4  C   UNL     1      -7.974  10.746  66.513  1.00  0.00    -0.144 C  
HETATM    5  O   UNL     1      -9.432   9.303  62.436  1.00  0.00    -0.583 OA 
HETATM    6  C   UNL     1      -8.633  10.426  62.796  1.00  0.00    -0.199 C  
HETATM    7  O   UNL     1      -7.114  10.484  67.354  1.00  0.00    -0.087 OA 
HETATM    8  N   UNL     1      -7.861  10.386  65.186  1.00  0.00    -0.144 N  
HETATM    9  C   UNL     1      -6.597   9.773  64.792  1.00  0.00    -0.110 C  
HETATM   10  N   UNL     1      -9.880  11.431  64.615  1.00  0.00    -0.250 NA 
HETATM   11  C   UNL     1      -6.588   9.164  63.402  1.00  0.00    -0.090 C  
HETATM   12  C   UNL     1      -8.805  10.798  64.280  1.00  0.00    -0.114 C  
HETATM   13  C   UNL     1      -7.187  10.151  62.416  1.00  0.00    -0.142 C  
HETATM   14  H   UNL     1     -10.336   9.474  62.674  1.00  0.00     0.000 HD 
ENDROOT
BRANCH   3  15
HETATM   15  C   UNL     1      -9.314  11.779  68.389  1.00  0.00    -0.185 C  
BRANCH  15  16
HETATM   16  C   UNL     1     -10.635  11.281  69.041  1.00  0.00    -0.208 C  
BRANCH  16  17
HETATM   17  N   UNL     1     -10.821   9.821  69.058  1.00  0.00    -0.217 NA 
HETATM   18  C   UNL     1      -9.099   9.192  70.741  1.00  0.00    -0.313 C  
HETATM   19  C   UNL     1     -11.493   9.204  71.464  1.00  0.00    -0.437 C  
HETATM   20  C   UNL     1      -9.595   9.058  69.304  1.00  0.00    -0.162 C  
HETATM   21  C   UNL     1     -10.117   8.564  71.704  1.00  0.00    -0.338 C  
HETATM   22  C   UNL     1     -11.886   9.374  69.982  1.00  0.00     0.148 C  
BRANCH  21  23
HETATM   23  C   UNL     1     -10.016   7.063  71.598  1.00  0.00    -0.178 A  
HETATM   24  N   UNL     1     -10.871   6.331  70.872  1.00  0.00    -0.258 NA 
HETATM   25  O   UNL     1     -10.269   5.090  70.716  1.00  0.00    -0.232 OA 
HETATM   26  C   UNL     1      -9.076   5.074  71.370  1.00  0.00    -0.143 A  
HETATM   27  C   UNL     1      -8.902   6.281  72.023  1.00  0.00    -0.138 A  
HETATM   28  C   UNL     1      -7.734   6.485  72.781  1.00  0.00    -0.102 A  
HETATM   29  C   UNL     1      -6.782   5.459  72.823  1.00  0.00    -0.072 A  
HETATM   30  C   UNL     1      -6.986   4.275  72.115  1.00  0.00    -0.054 A  
HETATM   31  C   UNL     1      -8.143   4.042  71.371  1.00  0.00    -0.073 A  
HETATM   32  F   UNL     1      -6.032   3.335  72.143  1.00  0.00    -0.008 F  
ENDBRANCH  21  23
ENDBRANCH  16  17
ENDBRANCH  15  16
ENDBRANCH   3  15
TORSDOF 4
ENDMDL
MODEL      181
REMARK 921   NORMALIZED FREE ENERGY PREDICTED BY IDOCK:   -4.75 KCAL/MOL
REMARK 922        TOTAL FREE ENERGY PREDICTED BY IDOCK:   -6.13 KCAL/MOL
REMARK 923 INTER-LIGAND FREE ENERGY PREDICTED BY IDOCK:   -5.31 KCAL/MOL
REMARK 924 INTRA-LIGAND FREE ENERGY PREDICTED BY IDOCK:   -0.82 KCAL/MOL
REMARK 927      BINDING AFFINITY PREDICTED BY RF-SCORE:    0.00 PKD
ROOT
HETATM    1  C   UNL     1      -5.508   4.878  71.503  1.00  0.00    -0.004 C  
HETATM    2  C   UNL     1      -6.892   5.250  71.968  1.00  0.00    -0.065 C  
HETATM    3  C   UNL     1      -7.372   6.506  72.073  1.00  0.00    -0.091 C  
HETATM    4  C   UNL     1      -8.785   6.646  72.515  1.00  0.00    -0.124 C  
HETATM    5  O   UNL     1     -10.057   2.310  71.869  1.00  0.00    -0.164 OA 
HETATM    6  C   UNL     1      -9.619   2.988  73.043  1.00  0.00    -0.098 C  
HETATM    7  O   UNL     1      -9.282   7.764  72.648  1.00  0.00    -0.149 OA 
HETATM    8  N   UNL     1      -9.480   5.481  72.772  1.00  0.00    -0.149 N  
HETATM    9  C   UNL     1     -10.817   5.640  73.333  1.00  0.00    -0.275 C  
HETATM   10  N   UNL     1      -7.618   4.136  72.304  1.00  0.00    -0.074 NA 
HETATM   11  C   UNL     1     -11.649   4.371  73.373  1.00  0.00    -0.225 C  
HETATM   12  C   UNL     1      -8.838   4.270  72.705  1.00  0.00    -0.104 C  
HETATM   13  C   UNL     1     -10.815   3.241  73.947  1.00  0.00    -0.298 C  
HETATM   14  H   UNL     1      -9.310   2.152  71.303  1.00  0.00     0.000 HD 
ENDROOT
BRANCH   3  15
HETATM   15  C   UNL     1      -6.691   7.808  71.714  1.00  0.00    -0.050 C  
BRANCH  15  16
HETATM   16  C   UNL     1      -6.722   8.158  70.199  1.00  0.00    -0.036 C  
BRANCH  16  17
HETATM   17  N   UNL     1      -8.036   8.556  69.669  1.00  0.00    -0.111 NA 
HETATM   18  C   UNL     1      -7.623  10.980  69.283  1.00  0.00    -0.090 C  
HETATM   19  C   UNL     1      -7.617   9.460  67.297  1.00  0.00    -0.091 C  
HETATM   20  C   UNL     1      -8.441   9.920  70.016  1.00  0.00    -0.165 C  
HETATM   21  C   UNL     1      -7.894  10.895  67.774  1.00  0.00    -0.109 C  
HETATM   22  C   UNL     1      -8.170   8.348  68.211  1.00  0.00    -0.124 C  
BRANCH  21  23
HETATM   23  C   UNL     1      -9.261  11.471  67.498  1.00  0.00    -0.166 A  
HETATM   24  N   UNL     1     -10.306  10.713  67.143  1.00  0.00    -0.216 NA 
HETATM   25  O   UNL     1     -11.430  11.506  67.332  1.00  0.00    -0.403 OA 
HETATM   26  C   UNL     1     -11.052  12.739  67.767  1.00  0.00    -0.253 A  
HETATM   27  C   UNL     1      -9.671  12.800  67.810  1.00  0.00    -0.207 A  
HETATM   28  C   UNL     1      -9.053  13.995  68.224  1.00  0.00    -0.191 A  
HETATM   29  C   UNL     1      -9.869  15.070  68.596  1.00  0.00    -0.222 A  
HETATM   30  C   UNL     1     -11.258  14.945  68.573  1.00  0.00    -0.279 A  
HETATM   31  C   UNL     1     -11.894  13.777  68.151  1.00  0.00    -0.411 A  
HETATM   32  F   UNL     1     -12.004  15.981  68.980  1.00  0.00    -0.370 F  
ENDBRANCH  21  23
ENDBRANCH  16  17
ENDBRANCH  15  16
ENDBRANCH   3  15
TORSDOF 4
ENDMDL
MODEL      182
REMARK 921   NORMALIZED FREE ENERGY PREDICTED BY IDOCK:   -4.72 KCAL/MOL
REMARK 922        TOTAL FREE ENERGY PREDICTED BY IDOCK:   -6.10 KCAL/MOL
REMARK 923 INTER-LIGAND FREE ENERGY PREDICTED BY IDOCK:   -6.01 KCAL/MOL
REMARK 924 INTRA-LIGAND FREE ENERGY PREDICTED BY IDOCK:   -0.09 KCAL/MOL
REMARK 927      BINDING AFFINITY PREDICTED BY RF-SCORE:    0.00 PKD
ROOT
HETATM    1  C   UNL     1      -5.631  14.501  67.741  1.00  0.00    -0.055 C  
HETATM    2  C   UNL     1      -6.943  15.178  67.446  1.00  0.00    -0.163 C  
HETATM    3  C   UNL     1      -8.105  14.550  67.174  1.00  0.00    -0.196 C  
HETATM    4  C   UNL     1      -9.295  15.415  66.951  1.00  0.00    -0.236 C  
HETATM    5  O   UNL     1      -7.563  19.283  68.646  1.00  0.00    -0.323 OA 
HETATM    6  C   UNL     1      -7.652  18.810  67.305  1.00  0.00    -0.223 C  
HETATM    7  O   UNL     1     -10.384  14.907  66.683  1.00  0.00    -0.273 OA 
HETATM    8  N   UNL     1      -9.106  16.778  67.048  1.00  0.00    -0.218 N  
HETATM    9  C   UNL     1     -10.249  17.613  66.695  1.00  0.00    -0.341 C  
HETATM   10  N   UNL     1      -6.811  16.543  67.462  1.00  0.00    -0.134 NA 
HETATM   11  C   UNL     1     -10.101  19.082  67.045  1.00  0.00    -0.433 C  
HETATM   12  C   UNL     1      -7.846  17.284  67.248  1.00  0.00    -0.189 C  
HETATM   13  C   UNL     1      -8.744  19.577  66.577  1.00  0.00    -0.388 C  
HETATM   14  H   UNL     1      -6.880  18.804  69.101  1.00  0.00     0.000 HD 
ENDROOT
BRANCH   3  15
HETATM   15  C   UNL     1      -8.390  13.065  67.150  1.00  0.00    -0.153 C  
BRANCH  15  16
HETATM   16  C   UNL     1      -8.453  12.396  68.552  1.00  0.00    -0.069 C  
BRANCH  16  17
HETATM   17  N   UNL     1      -8.281  10.934  68.565  1.00  0.00    -0.132 NA 
HETATM   18  C   UNL     1     -10.385  10.248  67.425  1.00  0.00    -0.282 C  
HETATM   19  C   UNL     1      -8.263  10.185  66.103  1.00  0.00    -0.125 C  
HETATM   20  C   UNL     1      -9.531  10.179  68.687  1.00  0.00    -0.164 C  
HETATM   21  C   UNL     1      -9.656   9.556  66.264  1.00  0.00    -0.287 C  
HETATM   22  C   UNL     1      -7.496  10.424  67.420  1.00  0.00    -0.094 C  
BRANCH  21  23
HETATM   23  C   UNL     1      -9.729   8.064  66.473  1.00  0.00    -0.227 A  
HETATM   24  N   UNL     1     -10.779   7.466  67.050  1.00  0.00    -0.356 NA 
HETATM   25  O   UNL     1     -10.661   6.117  66.743  1.00  0.00    -0.291 OA 
HETATM   26  C   UNL     1      -9.532   5.910  66.013  1.00  0.00    -0.060 A  
HETATM   27  C   UNL     1      -8.852   7.108  65.883  1.00  0.00    -0.128 A  
HETATM   28  C   UNL     1      -7.638   7.130  65.170  1.00  0.00    -0.102 A  
HETATM   29  C   UNL     1      -7.180   5.934  64.603  1.00  0.00    -0.063 A  
HETATM   30  C   UNL     1      -7.922   4.760  64.729  1.00  0.00    -0.095 A  
HETATM   31  C   UNL     1      -9.119   4.709  65.444  1.00  0.00    -0.149 A  
HETATM   32  F   UNL     1      -7.474   3.647  64.133  1.00  0.00    -0.067 F  
ENDBRANCH  21  23
ENDBRANCH  16  17
ENDBRANCH  15  16
ENDBRANCH   3  15
TORSDOF 4
ENDMDL
MODEL      183
REMARK 921   NORMALIZED FREE ENERGY PREDICTED BY IDOCK:   -4.67 KCAL/MOL
REMARK 922        TOTAL FREE ENERGY PREDICTED BY IDOCK:   -6.04 KCAL/MOL
REMARK 923 INTER-LIGAND FREE ENERGY PREDICTED BY IDOCK:   -5.19 KCAL/MOL
REMARK 924 INTRA-LIGAND FREE ENERGY PREDICTED BY IDOCK:   -0.85 KCAL/MOL
REMARK 927      BINDING AFFINITY PREDICTED BY RF-SCORE:    0.00 PKD
ROOT
HETATM    1  C   UNL     1      -9.523   3.935  66.122  1.00  0.00    -0.191 C  
HETATM    2  C   UNL     1      -8.414   4.951  66.043  1.00  0.00    -0.117 C  
HETATM    3  C   UNL     1      -7.228   4.869  66.680  1.00  0.00    -0.080 C  
HETATM    4  C   UNL     1      -6.257   5.967  66.429  1.00  0.00    -0.037 C  
HETATM    5  O   UNL     1      -8.291   7.747  62.750  1.00  0.00    -0.334 OA 
HETATM    6  C   UNL     1      -8.359   8.118  64.124  1.00  0.00    -0.017 C  
HETATM    7  O   UNL     1      -5.162   5.962  66.991  1.00  0.00    -0.005 OA 
HETATM    8  N   UNL     1      -6.652   6.966  65.563  1.00  0.00    -0.050 N  
HETATM    9  C   UNL     1      -5.744   8.101  65.433  1.00  0.00    -0.040 C  
HETATM   10  N   UNL     1      -8.768   6.009  65.246  1.00  0.00    -0.099 NA 
HETATM   11  C   UNL     1      -6.072   9.057  64.301  1.00  0.00    -0.071 C  
HETATM   12  C   UNL     1      -7.925   6.967  65.049  1.00  0.00    -0.129 C  
HETATM   13  C   UNL     1      -7.553   9.389  64.338  1.00  0.00    -0.114 C  
HETATM   14  H   UNL     1      -8.794   6.952  62.616  1.00  0.00     0.000 HD 
ENDROOT
BRANCH   3  15
HETATM   15  C   UNL     1      -6.708   3.754  67.560  1.00  0.00    -0.043 C  
BRANCH  15  16
HETATM   16  C   UNL     1      -7.316   3.720  68.990  1.00  0.00    -0.053 C  
BRANCH  16  17
HETATM   17  N   UNL     1      -7.543   5.035  69.613  1.00  0.00    -0.056 NA 
HETATM   18  C   UNL     1      -9.824   4.677  70.542  1.00  0.00    -0.301 C  
HETATM   19  C   UNL     1      -7.889   4.597  72.124  1.00  0.00    -0.096 C  
HETATM   20  C   UNL     1      -8.938   5.480  69.594  1.00  0.00    -0.117 C  
HETATM   21  C   UNL     1      -9.386   4.919  71.994  1.00  0.00    -0.175 C  
HETATM   22  C   UNL     1      -7.001   5.137  70.985  1.00  0.00    -0.051 C  
BRANCH  21  23
HETATM   23  C   UNL     1      -9.843   6.295  72.410  1.00  0.00    -0.164 A  
HETATM   24  N   UNL     1      -8.995   7.240  72.835  1.00  0.00    -0.130 NA 
HETATM   25  O   UNL     1      -9.699   8.435  72.774  1.00  0.00    -0.273 OA 
HETATM   26  C   UNL     1     -10.968   8.198  72.344  1.00  0.00    -0.345 A  
HETATM   27  C   UNL     1     -11.142   6.835  72.178  1.00  0.00    -0.284 A  
HETATM   28  C   UNL     1     -12.392   6.354  71.747  1.00  0.00    -0.259 A  
HETATM   29  C   UNL     1     -13.406   7.283  71.484  1.00  0.00    -0.435 A  
HETATM   30  C   UNL     1     -13.169   8.650  71.630  1.00  0.00    -0.346 A  
HETATM   31  C   UNL     1     -11.944   9.151  72.071  1.00  0.00    -0.421 A  
HETATM   32  F   UNL     1     -14.150   9.509  71.324  1.00  0.00    -0.353 F  
ENDBRANCH  21  23
ENDBRANCH  16  17
ENDBRANCH  15  16
ENDBRANCH   3  15
TORSDOF 4
ENDMDL
MODEL      184
REMARK 921   NORMALIZED FREE ENERGY PREDICTED BY IDOCK:   -4.66 KCAL/MOL
REMARK 922        TOTAL FREE ENERGY PREDICTED BY IDOCK:   -6.03 KCAL/MOL
REMARK 923 INTER-LIGAND FREE ENERGY PREDICTED BY IDOCK:   -5.96 KCAL/MOL
REMARK 924 INTRA-LIGAND FREE ENERGY PREDICTED BY IDOCK:   -0.07 KCAL/MOL
REMARK 927      BINDING AFFINITY PREDICTED BY RF-SCORE:    0.00 PKD
ROOT
HETATM    1  C   UNL     1      -6.463   7.718  71.944  1.00  0.00    -0.043 C  
HETATM    2  C   UNL     1      -7.702   6.875  72.096  1.00  0.00    -0.093 C  
HETATM    3  C   UNL     1      -8.939   7.220  71.685  1.00  0.00    -0.131 C  
HETATM    4  C   UNL     1     -10.017   6.217  71.899  1.00  0.00    -0.172 C  
HETATM    5  O   UNL     1      -7.341   2.619  72.750  1.00  0.00    -0.038 OA 
HETATM    6  C   UNL     1      -8.000   3.520  73.635  1.00  0.00    -0.074 C  
HETATM    7  O   UNL     1     -11.173   6.474  71.562  1.00  0.00    -0.252 OA 
HETATM    8  N   UNL     1      -9.655   5.024  72.489  1.00  0.00    -0.145 N  
HETATM    9  C   UNL     1     -10.744   4.109  72.812  1.00  0.00    -0.114 C  
HETATM   10  N   UNL     1      -7.423   5.696  72.738  1.00  0.00    -0.095 NA 
HETATM   11  C   UNL     1     -10.309   2.715  73.226  1.00  0.00    -0.222 C  
HETATM   12  C   UNL     1      -8.370   4.840  72.935  1.00  0.00    -0.101 C  
HETATM   13  C   UNL     1      -9.198   2.821  74.256  1.00  0.00    -0.097 C  
HETATM   14  H   UNL     1      -6.592   3.056  72.361  1.00  0.00     0.000 HD 
ENDROOT
BRANCH   3  15
HETATM   15  C   UNL     1      -9.374   8.468  70.949  1.00  0.00    -0.214 C  
BRANCH  15  16
HETATM   16  C   UNL     1      -9.443   8.315  69.403  1.00  0.00    -0.159 C  
BRANCH  16  17
HETATM   17  N   UNL     1     -10.242   9.334  68.702  1.00  0.00    -0.193 NA 
HETATM   18  C   UNL     1      -8.736  11.300  68.950  1.00  0.00    -0.053 C  
HETATM   19  C   UNL     1      -8.805  10.150  66.730  1.00  0.00    -0.143 C  
HETATM   20  C   UNL     1     -10.103  10.688  69.242  1.00  0.00    -0.206 C  
HETATM   21  C   UNL     1      -8.565  11.494  67.437  1.00  0.00    -0.145 C  
HETATM   22  C   UNL     1     -10.021   9.351  67.240  1.00  0.00    -0.196 C  
BRANCH  21  23
HETATM   23  C   UNL     1      -9.405  12.670  67.005  1.00  0.00    -0.220 A  
HETATM   24  N   UNL     1      -9.149  13.924  67.399  1.00  0.00    -0.207 NA 
HETATM   25  O   UNL     1      -9.869  14.744  66.542  1.00  0.00    -0.250 OA 
HETATM   26  C   UNL     1     -10.575  13.982  65.663  1.00  0.00    -0.307 A  
HETATM   27  C   UNL     1     -10.382  12.646  65.968  1.00  0.00    -0.287 A  
HETATM   28  C   UNL     1     -11.031  11.668  65.190  1.00  0.00    -0.326 A  
HETATM   29  C   UNL     1     -11.831  12.092  64.123  1.00  0.00    -0.490 A  
HETATM   30  C   UNL     1     -11.962  13.450  63.832  1.00  0.00    -0.465 A  
HETATM   31  C   UNL     1     -11.343  14.439  64.597  1.00  0.00    -0.373 A  
HETATM   32  F   UNL     1     -12.700  13.814  62.775  1.00  0.00    -0.150 F  
ENDBRANCH  21  23
ENDBRANCH  16  17
ENDBRANCH  15  16
ENDBRANCH   3  15
TORSDOF 4
ENDMDL
MODEL      185
REMARK 921   NORMALIZED FREE ENERGY PREDICTED BY IDOCK:   -4.62 KCAL/MOL
REMARK 922        TOTAL FREE ENERGY PREDICTED BY IDOCK:   -5.98 KCAL/MOL
REMARK 923 INTER-LIGAND FREE ENERGY PREDICTED BY IDOCK:   -6.02 KCAL/MOL
REMARK 924 INTRA-LIGAND FREE ENERGY PREDICTED BY IDOCK:    0.04 KCAL/MOL
REMARK 927      BINDING AFFINITY PREDICTED BY RF-SCORE:    0.00 PKD
ROOT
HETATM    1  C   UNL     1      -6.474   4.532  68.191  1.00  0.00    -0.038 C  
HETATM    2  C   UNL     1      -7.722   4.547  67.348  1.00  0.00    -0.089 C  
HETATM    3  C   UNL     1      -8.774   5.373  67.521  1.00  0.00    -0.107 C  
HETATM    4  C   UNL     1      -9.890   5.245  66.546  1.00  0.00    -0.185 C  
HETATM    5  O   UNL     1      -7.674   2.789  63.401  1.00  0.00    -0.062 OA 
HETATM    6  C   UNL     1      -8.544   2.387  64.455  1.00  0.00    -0.090 C  
HETATM    7  O   UNL     1     -10.888   5.957  66.654  1.00  0.00    -0.301 OA 
HETATM    8  N   UNL     1      -9.748   4.299  65.551  1.00  0.00    -0.188 N  
HETATM    9  C   UNL     1     -10.906   4.094  64.687  1.00  0.00    -0.101 C  
HETATM   10  N   UNL     1      -7.674   3.582  66.375  1.00  0.00    -0.083 NA 
HETATM   11  C   UNL     1     -10.646   3.242  63.459  1.00  0.00    -0.257 C  
HETATM   12  C   UNL     1      -8.657   3.466  65.546  1.00  0.00    -0.112 C  
HETATM   13  C   UNL     1      -9.888   1.991  63.867  1.00  0.00    -0.129 C  
HETATM   14  H   UNL     1      -6.833   3.037  63.768  1.00  0.00     0.000 HD 
ENDROOT
BRANCH   3  15
HETATM   15  C   UNL     1      -8.940   6.488  68.529  1.00  0.00    -0.126 C  
BRANCH  15  16
HETATM   16  C   UNL     1      -7.778   7.520  68.550  1.00  0.00    -0.120 C  
BRANCH  16  17
HETATM   17  N   UNL     1      -8.173   8.912  68.823  1.00  0.00    -0.114 NA 
HETATM   18  C   UNL     1      -8.833   9.624  66.531  1.00  0.00    -0.158 C  
HETATM   19  C   UNL     1     -10.653   9.105  68.166  1.00  0.00    -0.235 C  
HETATM   20  C   UNL     1      -7.906   9.842  67.723  1.00  0.00    -0.094 C  
HETATM   21  C   UNL     1     -10.280   9.942  66.931  1.00  0.00    -0.302 C  
HETATM   22  C   UNL     1      -9.576   9.050  69.268  1.00  0.00    -0.162 C  
BRANCH  21  23
HETATM   23  C   UNL     1     -10.434  11.439  67.031  1.00  0.00    -0.236 A  
HETATM   24  N   UNL     1     -10.278  12.252  65.978  1.00  0.00    -0.237 NA 
HETATM   25  O   UNL     1     -10.839  13.466  66.352  1.00  0.00    -0.286 OA 
HETATM   26  C   UNL     1     -11.298  13.384  67.630  1.00  0.00    -0.290 A  
HETATM   27  C   UNL     1     -10.989  12.137  68.143  1.00  0.00    -0.271 A  
HETATM   28  C   UNL     1     -11.361  11.831  69.466  1.00  0.00    -0.317 A  
HETATM   29  C   UNL     1     -12.050  12.802  70.202  1.00  0.00    -0.370 A  
HETATM   30  C   UNL     1     -12.373  14.031  69.627  1.00  0.00    -0.260 A  
HETATM   31  C   UNL     1     -12.002  14.364  68.324  1.00  0.00    -0.323 A  
HETATM   32  F   UNL     1     -13.073  14.916  70.349  1.00  0.00    -0.374 F  
ENDBRANCH  21  23
ENDBRANCH  16  17
ENDBRANCH  15  16
ENDBRANCH   3  15
TORSDOF 4
ENDMDL
MODEL      186
REMARK 921   NORMALIZED FREE ENERGY PREDICTED BY IDOCK:   -4.62 KCAL/MOL
REMARK 922        TOTAL FREE ENERGY PREDICTED BY IDOCK:   -5.98 KCAL/MOL
REMARK 923 INTER-LIGAND FREE ENERGY PREDICTED BY IDOCK:   -6.39 KCAL/MOL
REMARK 924 INTRA-LIGAND FREE ENERGY PREDICTED BY IDOCK:    0.41 KCAL/MOL
REMARK 927      BINDING AFFINITY PREDICTED BY RF-SCORE:    0.00 PKD
ROOT
HETATM    1  C   UNL     1     -11.057  16.496  69.796  1.00  0.00    -0.248 C  
HETATM    2  C   UNL     1      -9.759  16.242  69.074  1.00  0.00    -0.252 C  
HETATM    3  C   UNL     1      -9.379  16.821  67.917  1.00  0.00    -0.229 C  
HETATM    4  C   UNL     1      -8.034  16.456  67.399  1.00  0.00    -0.155 C  
HETATM    5  O   UNL     1      -6.410  14.541  71.210  1.00  0.00    -0.170 OA 
HETATM    6  C   UNL     1      -7.015  13.959  70.059  1.00  0.00     0.275 C  
HETATM    7  O   UNL     1      -7.630  16.936  66.339  1.00  0.00    -0.262 OA 
HETATM    8  N   UNL     1      -7.294  15.565  68.148  1.00  0.00    -0.111 N  
HETATM    9  C   UNL     1      -6.037  15.116  67.558  1.00  0.00    -0.019 C  
HETATM   10  N   UNL     1      -9.000  15.311  69.735  1.00  0.00    -0.126 NA 
HETATM   11  C   UNL     1      -5.130  14.341  68.496  1.00  0.00    -0.100 C  
HETATM   12  C   UNL     1      -7.841  14.987  69.266  1.00  0.00    -0.190 C  
HETATM   13  C   UNL     1      -5.943  13.282  69.220  1.00  0.00    -0.094 C  
HETATM   14  H   UNL     1      -7.080  14.964  71.735  1.00  0.00     0.000 HD 
ENDROOT
BRANCH   3  15
HETATM   15  C   UNL     1     -10.105  17.873  67.108  1.00  0.00    -0.340 C  
BRANCH  15  16
HETATM   16  C   UNL     1     -11.069  17.306  66.028  1.00  0.00     0.416 C  
BRANCH  16  17
HETATM   17  N   UNL     1     -10.586  16.114  65.311  1.00  0.00    -0.544 NA 
HETATM   18  C   UNL     1     -11.840  14.346  66.533  1.00  0.00    -0.406 C  
HETATM   19  C   UNL     1     -12.660  15.008  64.265  1.00  0.00     0.051 C  
HETATM   20  C   UNL     1     -10.479  14.912  66.141  1.00  0.00    -0.306 C  
HETATM   21  C   UNL     1     -12.581  13.857  65.280  1.00  0.00    -0.508 C  
HETATM   22  C   UNL     1     -11.356  15.813  64.085  1.00  0.00    -0.020 C  
BRANCH  21  23
HETATM   23  C   UNL     1     -11.952  12.564  64.824  1.00  0.00    -0.409 A  
HETATM   24  N   UNL     1     -11.811  12.247  63.530  1.00  0.00    -0.495 NA 
HETATM   25  O   UNL     1     -10.895  11.204  63.495  1.00  0.00    -0.352 OA 
HETATM   26  C   UNL     1     -10.516  10.883  64.762  1.00  0.00    -0.303 A  
HETATM   27  C   UNL     1     -11.226  11.664  65.657  1.00  0.00    -0.275 A  
HETATM   28  C   UNL     1     -11.004  11.493  67.036  1.00  0.00    -0.347 A  
HETATM   29  C   UNL     1     -10.054  10.550  67.444  1.00  0.00    -0.236 A  
HETATM   30  C   UNL     1      -9.336   9.814  66.501  1.00  0.00    -0.162 A  
HETATM   31  C   UNL     1      -9.549   9.953  65.129  1.00  0.00    -0.367 A  
HETATM   32  F   UNL     1      -8.403   8.954  66.929  1.00  0.00    -0.108 F  
ENDBRANCH  21  23
ENDBRANCH  16  17
ENDBRANCH  15  16
ENDBRANCH   3  15
TORSDOF 4
ENDMDL
MODEL      187
REMARK 921   NORMALIZED FREE ENERGY PREDICTED BY IDOCK:   -4.61 KCAL/MOL
REMARK 922        TOTAL FREE ENERGY PREDICTED BY IDOCK:   -5.96 KCAL/MOL
REMARK 923 INTER-LIGAND FREE ENERGY PREDICTED BY IDOCK:   -5.75 KCAL/MOL
REMARK 924 INTRA-LIGAND FREE ENERGY PREDICTED BY IDOCK:   -0.21 KCAL/MOL
REMARK 927      BINDING AFFINITY PREDICTED BY RF-SCORE:    0.00 PKD
ROOT
HETATM    1  C   UNL     1     -10.391   8.829  66.349  1.00  0.00    -0.169 C  
HETATM    2  C   UNL     1      -9.446   9.219  65.242  1.00  0.00    -0.164 C  
HETATM    3  C   UNL     1      -9.639  10.225  64.365  1.00  0.00    -0.378 C  
HETATM    4  C   UNL     1      -8.555  10.464  63.375  1.00  0.00    -0.189 C  
HETATM    5  O   UNL     1      -5.304   8.000  65.422  1.00  0.00    -0.028 OA 
HETATM    6  C   UNL     1      -6.200   7.667  64.366  1.00  0.00    -0.048 C  
HETATM    7  O   UNL     1      -8.674  11.357  62.535  1.00  0.00    -0.264 OA 
HETATM    8  N   UNL     1      -7.449   9.642  63.445  1.00  0.00    -0.113 N  
HETATM    9  C   UNL     1      -6.460   9.802  62.385  1.00  0.00    -0.103 C  
HETATM   10  N   UNL     1      -8.350   8.396  65.214  1.00  0.00    -0.153 NA 
HETATM   11  C   UNL     1      -5.149   9.074  62.617  1.00  0.00    -0.069 C  
HETATM   12  C   UNL     1      -7.424   8.600  64.338  1.00  0.00    -0.108 C  
HETATM   13  C   UNL     1      -5.437   7.648  63.052  1.00  0.00    -0.046 C  
HETATM   14  H   UNL     1      -5.781   8.012  66.244  1.00  0.00     0.000 HD 
ENDROOT
BRANCH   3  15
HETATM   15  C   UNL     1     -10.781  11.214  64.303  1.00  0.00    -0.403 C  
BRANCH  15  16
HETATM   16  C   UNL     1     -10.528  12.544  65.069  1.00  0.00    -0.297 C  
BRANCH  16  17
HETATM   17  N   UNL     1     -11.501  12.860  66.128  1.00  0.00    -0.330 NA 
HETATM   18  C   UNL     1     -10.679  11.349  67.926  1.00  0.00    -0.242 C  
HETATM   19  C   UNL     1     -10.144  13.785  68.108  1.00  0.00    -0.245 C  
HETATM   20  C   UNL     1     -11.831  11.732  67.002  1.00  0.00    -0.044 C  
HETATM   21  C   UNL     1     -10.394  12.496  68.906  1.00  0.00    -0.063 C  
HETATM   22  C   UNL     1     -11.123  14.034  66.943  1.00  0.00    -0.304 C  
BRANCH  21  23
HETATM   23  C   UNL     1     -11.485  12.520  69.948  1.00  0.00    -0.085 A  
HETATM   24  N   UNL     1     -12.334  13.547  70.080  1.00  0.00    -0.304 NA 
HETATM   25  O   UNL     1     -13.384  13.072  70.855  1.00  0.00     0.077 OA 
HETATM   26  C   UNL     1     -13.146  11.780  71.206  1.00  0.00    -0.141 A  
HETATM   27  C   UNL     1     -11.906  11.401  70.724  1.00  0.00    -0.232 A  
HETATM   28  C   UNL     1     -11.443  10.097  70.981  1.00  0.00    -0.436 A  
HETATM   29  C   UNL     1     -12.272   9.228  71.700  1.00  0.00    -0.445 A  
HETATM   30  C   UNL     1     -13.532   9.645  72.130  1.00  0.00    -0.429 A  
HETATM   31  C   UNL     1     -14.007  10.937  71.902  1.00  0.00     0.480 A  
HETATM   32  F   UNL     1     -14.314   8.769  72.775  1.00  0.00    -0.477 F  
ENDBRANCH  21  23
ENDBRANCH  16  17
ENDBRANCH  15  16
ENDBRANCH   3  15
TORSDOF 4
ENDMDL
MODEL      188
REMARK 921   NORMALIZED FREE ENERGY PREDICTED BY IDOCK:   -4.60 KCAL/MOL
REMARK 922        TOTAL FREE ENERGY PREDICTED BY IDOCK:   -5.95 KCAL/MOL
REMARK 923 INTER-LIGAND FREE ENERGY PREDICTED BY IDOCK:   -5.41 KCAL/MOL
REMARK 924 INTRA-LIGAND FREE ENERGY PREDICTED BY IDOCK:   -0.55 KCAL/MOL
REMARK 927      BINDING AFFINITY PREDICTED BY RF-SCORE:    0.00 PKD
ROOT
HETATM    1  C   UNL     1     -12.359  10.162  71.508  1.00  0.00    -0.505 C  
HETATM    2  C   UNL     1     -11.241  10.485  70.551  1.00  0.00    -0.265 C  
HETATM    3  C   UNL     1     -10.000   9.959  70.591  1.00  0.00    -0.094 C  
HETATM    4  C   UNL     1      -9.059  10.387  69.520  1.00  0.00    -0.107 C  
HETATM    5  O   UNL     1     -12.142  12.223  66.699  1.00  0.00    -0.612 OA 
HETATM    6  C   UNL     1     -11.303  12.823  67.681  1.00  0.00    -0.310 C  
HETATM    7  O   UNL     1      -7.905   9.957  69.506  1.00  0.00    -0.109 OA 
HETATM    8  N   UNL     1      -9.541  11.276  68.582  1.00  0.00    -0.200 N  
HETATM    9  C   UNL     1      -8.569  11.787  67.621  1.00  0.00    -0.153 C  
HETATM   10  N   UNL     1     -11.635  11.417  69.626  1.00  0.00    -0.301 NA 
HETATM   11  C   UNL     1      -9.163  12.559  66.458  1.00  0.00    -0.210 C  
HETATM   12  C   UNL     1     -10.804  11.796  68.713  1.00  0.00    -0.227 C  
HETATM   13  C   UNL     1     -10.172  13.564  66.985  1.00  0.00    -0.249 C  
HETATM   14  H   UNL     1     -12.849  11.759  67.133  1.00  0.00     0.000 HD 
ENDROOT
BRANCH   3  15
HETATM   15  C   UNL     1      -9.450   8.912  71.534  1.00  0.00    -0.347 C  
BRANCH  15  16
HETATM   16  C   UNL     1      -9.825   7.449  71.167  1.00  0.00    -0.174 C  
BRANCH  16  17
HETATM   17  N   UNL     1      -8.783   6.686  70.461  1.00  0.00    -0.143 NA 
HETATM   18  C   UNL     1      -9.836   4.431  70.456  1.00  0.00    -0.285 C  
HETATM   19  C   UNL     1      -9.885   5.751  68.332  1.00  0.00    -0.174 C  
HETATM   20  C   UNL     1      -8.656   5.293  70.895  1.00  0.00    -0.128 C  
HETATM   21  C   UNL     1      -9.869   4.333  68.924  1.00  0.00    -0.131 C  
HETATM   22  C   UNL     1      -8.906   6.745  68.988  1.00  0.00    -0.129 C  
BRANCH  21  23
HETATM   23  C   UNL     1      -8.768   3.403  68.479  1.00  0.00    -0.102 A  
HETATM   24  N   UNL     1      -8.659   2.145  68.928  1.00  0.00    -0.063 NA 
HETATM   25  O   UNL     1      -7.790   1.506  68.054  1.00  0.00    -0.056 OA 
HETATM   26  C   UNL     1      -7.360   2.386  67.109  1.00  0.00    -0.057 A  
HETATM   27  C   UNL     1      -7.887   3.636  67.383  1.00  0.00    -0.079 A  
HETATM   28  C   UNL     1      -7.565   4.713  66.536  1.00  0.00    -0.087 A  
HETATM   29  C   UNL     1      -6.736   4.466  65.434  1.00  0.00    -0.052 A  
HETATM   30  C   UNL     1      -6.262   3.179  65.180  1.00  0.00    -0.023 A  
HETATM   31  C   UNL     1      -6.554   2.099  66.013  1.00  0.00    -0.027 A  
HETATM   32  F   UNL     1      -5.509   2.975  64.090  1.00  0.00    -0.008 F  
ENDBRANCH  21  23
ENDBRANCH  16  17
ENDBRANCH  15  16
ENDBRANCH   3  15
TORSDOF 4
ENDMDL
MODEL      189
REMARK 921   NORMALIZED FREE ENERGY PREDICTED BY IDOCK:   -4.60 KCAL/MOL
REMARK 922        TOTAL FREE ENERGY PREDICTED BY IDOCK:   -5.94 KCAL/MOL
REMARK 923 INTER-LIGAND FREE ENERGY PREDICTED BY IDOCK:   -7.23 KCAL/MOL
REMARK 924 INTRA-LIGAND FREE ENERGY PREDICTED BY IDOCK:    1.29 KCAL/MOL
REMARK 927      BINDING AFFINITY PREDICTED BY RF-SCORE:    0.00 PKD
ROOT
HETATM    1  C   UNL     1     -10.452  11.575  64.940  1.00  0.00    -0.345 C  
HETATM    2  C   UNL     1     -10.671  11.197  66.382  1.00  0.00    -0.247 C  
HETATM    3  C   UNL     1     -11.032  12.044  67.368  1.00  0.00    -0.311 C  
HETATM    4  C   UNL     1     -11.236  11.450  68.716  1.00  0.00    -0.247 C  
HETATM    5  O   UNL     1     -11.427   7.074  67.432  1.00  0.00    -0.591 OA 
HETATM    6  C   UNL     1     -10.345   7.851  67.935  1.00  0.00    -0.221 C  
HETATM    7  O   UNL     1     -11.550  12.169  69.665  1.00  0.00    -0.298 OA 
HETATM    8  N   UNL     1     -11.046  10.089  68.837  1.00  0.00    -0.208 N  
HETATM    9  C   UNL     1     -11.118   9.546  70.189  1.00  0.00    -0.255 C  
HETATM   10  N   UNL     1     -10.434   9.862  66.585  1.00  0.00    -0.200 NA 
HETATM   11  C   UNL     1     -11.155   8.031  70.270  1.00  0.00    -0.224 C  
HETATM   12  C   UNL     1     -10.596   9.360  67.764  1.00  0.00    -0.258 C  
HETATM   13  C   UNL     1     -10.072   7.453  69.377  1.00  0.00    -0.185 C  
HETATM   14  H   UNL     1     -11.598   7.323  66.531  1.00  0.00     0.000 HD 
ENDROOT
BRANCH   3  15
HETATM   15  C   UNL     1     -11.347  13.520  67.273  1.00  0.00    -0.339 C  
BRANCH  15  16
HETATM   16  C   UNL     1     -11.248  14.290  68.620  1.00  0.00    -0.264 C  
BRANCH  16  17
HETATM   17  N   UNL     1      -9.976  14.994  68.855  1.00  0.00    -0.229 NA 
HETATM   18  C   UNL     1      -9.619  15.991  66.603  1.00  0.00    -0.258 C  
HETATM   19  C   UNL     1     -10.439  17.489  68.430  1.00  0.00    -0.372 C  
HETATM   20  C   UNL     1      -9.094  15.055  67.687  1.00  0.00    -0.182 C  
HETATM   21  C   UNL     1      -9.631  17.435  67.123  1.00  0.00    -0.265 C  
HETATM   22  C   UNL     1     -10.149  16.347  69.426  1.00  0.00    -0.243 C  
BRANCH  21  23
HETATM   23  C   UNL     1      -8.212  17.946  67.157  1.00  0.00    -0.216 A  
HETATM   24  N   UNL     1      -7.462  18.068  66.055  1.00  0.00    -0.455 NA 
HETATM   25  O   UNL     1      -6.396  18.884  66.411  1.00  0.00    -0.183 OA 
HETATM   26  C   UNL     1      -6.496  19.220  67.726  1.00  0.00    -0.220 A  
HETATM   27  C   UNL     1      -7.592  18.579  68.274  1.00  0.00    -0.305 A  
HETATM   28  C   UNL     1      -7.885  18.772  69.638  1.00  0.00     0.475 A  
HETATM   29  C   UNL     1      -7.060  19.627  70.379  1.00  0.00     0.374 A  
HETATM   30  C   UNL     1      -5.990  20.281  69.770  1.00  0.00    -0.359 A  
HETATM   31  C   UNL     1      -5.670  20.094  68.425  1.00  0.00    -0.271 A  
HETATM   32  F   UNL     1      -5.252  21.127  70.501  1.00  0.00    -0.327 F  
ENDBRANCH  21  23
ENDBRANCH  16  17
ENDBRANCH  15  16
ENDBRANCH   3  15
TORSDOF 4
ENDMDL
MODEL      190
REMARK 921   NORMALIZED FREE ENERGY PREDICTED BY IDOCK:   -4.58 KCAL/MOL
REMARK 922        TOTAL FREE ENERGY PREDICTED BY IDOCK:   -5.92 KCAL/MOL
REMARK 923 INTER-LIGAND FREE ENERGY PREDICTED BY IDOCK:   -6.27 KCAL/MOL
REMARK 924 INTRA-LIGAND FREE ENERGY PREDICTED BY IDOCK:    0.35 KCAL/MOL
REMARK 927      BINDING AFFINITY PREDICTED BY RF-SCORE:    0.00 PKD
ROOT
HETATM    1  C   UNL     1      -7.977  11.043  68.641  1.00  0.00    -0.143 C  
HETATM    2  C   UNL     1      -8.773  11.539  67.462  1.00  0.00    -0.145 C  
HETATM    3  C   UNL     1      -9.229  10.775  66.447  1.00  0.00    -0.191 C  
HETATM    4  C   UNL     1     -10.032  11.464  65.402  1.00  0.00    -0.245 C  
HETATM    5  O   UNL     1     -10.860  15.314  67.709  1.00  0.00    -0.278 OA 
HETATM    6  C   UNL     1      -9.862  15.004  66.741  1.00  0.00    -0.243 C  
HETATM    7  O   UNL     1     -10.465  10.830  64.440  1.00  0.00    -0.365 OA 
HETATM    8  N   UNL     1     -10.246  12.817  65.566  1.00  0.00    -0.279 N  
HETATM    9  C   UNL     1     -10.919  13.500  64.466  1.00  0.00    -0.394 C  
HETATM   10  N   UNL     1      -8.966  12.894  67.529  1.00  0.00    -0.182 NA 
HETATM   11  C   UNL     1     -11.362  14.919  64.770  1.00  0.00    -0.400 C  
HETATM   12  C   UNL     1      -9.649  13.486  66.606  1.00  0.00    -0.278 C  
HETATM   13  C   UNL     1     -10.219  15.674  65.425  1.00  0.00    -0.401 C  
HETATM   14  H   UNL     1     -10.638  14.895  68.533  1.00  0.00     0.000 HD 
ENDROOT
BRANCH   3  15
HETATM   15  C   UNL     1      -9.108   9.278  66.268  1.00  0.00    -0.213 C  
BRANCH  15  16
HETATM   16  C   UNL     1     -10.315   8.462  66.809  1.00  0.00    -0.287 C  
BRANCH  16  17
HETATM   17  N   UNL     1      -9.996   7.480  67.858  1.00  0.00    -0.158 NA 
HETATM   18  C   UNL     1     -10.620   5.379  66.678  1.00  0.00    -0.359 C  
HETATM   19  C   UNL     1      -8.189   5.933  66.878  1.00  0.00    -0.105 C  
HETATM   20  C   UNL     1     -10.867   6.302  67.868  1.00  0.00    -0.333 C  
HETATM   21  C   UNL     1      -9.206   4.786  66.763  1.00  0.00    -0.127 C  
HETATM   22  C   UNL     1      -8.579   7.058  67.858  1.00  0.00    -0.126 C  
BRANCH  21  23
HETATM   23  C   UNL     1      -9.192   3.730  67.840  1.00  0.00    -0.172 A  
HETATM   24  N   UNL     1      -9.249   2.420  67.568  1.00  0.00    -0.173 NA 
HETATM   25  O   UNL     1      -8.853   1.774  68.731  1.00  0.00    -0.068 OA 
HETATM   26  C   UNL     1      -8.592   2.694  69.699  1.00  0.00    -0.067 A  
HETATM   27  C   UNL     1      -8.874   3.957  69.211  1.00  0.00    -0.145 A  
HETATM   28  C   UNL     1      -8.688   5.071  70.051  1.00  0.00    -0.119 A  
HETATM   29  C   UNL     1      -8.201   4.852  71.345  1.00  0.00    -0.112 A  
HETATM   30  C   UNL     1      -7.894   3.562  71.778  1.00  0.00    -0.061 A  
HETATM   31  C   UNL     1      -8.086   2.441  70.970  1.00  0.00    -0.058 A  
HETATM   32  F   UNL     1      -7.388   3.398  73.007  1.00  0.00    -0.045 F  
ENDBRANCH  21  23
ENDBRANCH  16  17
ENDBRANCH  15  16
ENDBRANCH   3  15
TORSDOF 4
ENDMDL
MODEL      191
REMARK 921   NORMALIZED FREE ENERGY PREDICTED BY IDOCK:   -4.47 KCAL/MOL
REMARK 922        TOTAL FREE ENERGY PREDICTED BY IDOCK:   -5.79 KCAL/MOL
REMARK 923 INTER-LIGAND FREE ENERGY PREDICTED BY IDOCK:   -5.32 KCAL/MOL
REMARK 924 INTRA-LIGAND FREE ENERGY PREDICTED BY IDOCK:   -0.47 KCAL/MOL
REMARK 927      BINDING AFFINITY PREDICTED BY RF-SCORE:    0.00 PKD
ROOT
HETATM    1  C   UNL     1      -8.598   8.257  70.226  1.00  0.00    -0.127 C  
HETATM    2  C   UNL     1      -8.177   7.956  68.811  1.00  0.00    -0.127 C  
HETATM    3  C   UNL     1      -7.818   8.872  67.889  1.00  0.00    -0.102 C  
HETATM    4  C   UNL     1      -7.397   8.351  66.561  1.00  0.00    -0.081 C  
HETATM    5  O   UNL     1      -6.814   3.989  67.772  1.00  0.00    -0.049 OA 
HETATM    6  C   UNL     1      -7.922   4.649  67.165  1.00  0.00    -0.102 C  
HETATM    7  O   UNL     1      -7.071   9.134  65.667  1.00  0.00    -0.080 OA 
HETATM    8  N   UNL     1      -7.405   6.982  66.392  1.00  0.00    -0.078 N  
HETATM    9  C   UNL     1      -7.120   6.497  65.046  1.00  0.00    -0.057 C  
HETATM   10  N   UNL     1      -8.226   6.610  68.556  1.00  0.00    -0.118 NA 
HETATM   11  C   UNL     1      -6.889   5.001  64.940  1.00  0.00    -0.049 C  
HETATM   12  C   UNL     1      -7.877   6.170  67.393  1.00  0.00    -0.098 C  
HETATM   13  C   UNL     1      -7.984   4.269  65.695  1.00  0.00    -0.094 C  
HETATM   14  H   UNL     1      -6.775   4.226  68.691  1.00  0.00     0.000 HD 
ENDROOT
BRANCH   3  15
HETATM   15  C   UNL     1      -7.698  10.371  68.047  1.00  0.00    -0.092 C  
BRANCH  15  16
HETATM   16  C   UNL     1      -9.055  11.127  68.101  1.00  0.00    -0.159 C  
BRANCH  16  17
HETATM   17  N   UNL     1      -9.152  12.317  67.239  1.00  0.00    -0.178 NA 
HETATM   18  C   UNL     1     -10.367  13.855  68.772  1.00  0.00    -0.210 C  
HETATM   19  C   UNL     1      -7.910  14.205  68.467  1.00  0.00    -0.140 C  
HETATM   20  C   UNL     1     -10.366  13.111  67.440  1.00  0.00    -0.239 C  
HETATM   21  C   UNL     1      -9.243  14.900  68.786  1.00  0.00    -0.193 C  
HETATM   22  C   UNL     1      -7.961  13.191  67.307  1.00  0.00    -0.133 C  
BRANCH  21  23
HETATM   23  C   UNL     1      -9.653  16.059  67.911  1.00  0.00    -0.219 A  
HETATM   24  N   UNL     1     -10.880  16.594  67.949  1.00  0.00    -0.344 NA 
HETATM   25  O   UNL     1     -10.778  17.821  67.308  1.00  0.00    -0.334 OA 
HETATM   26  C   UNL     1      -9.505  18.001  66.864  1.00  0.00    -0.288 A  
HETATM   27  C   UNL     1      -8.763  16.868  67.147  1.00  0.00    -0.219 A  
HETATM   28  C   UNL     1      -7.409  16.826  66.764  1.00  0.00    -0.275 A  
HETATM   29  C   UNL     1      -6.863  17.947  66.128  1.00  0.00    -0.324 A  
HETATM   30  C   UNL     1      -7.643  19.081  65.900  1.00  0.00    -0.195 A  
HETATM   31  C   UNL     1      -8.991  19.142  66.255  1.00  0.00    -0.320 A  
HETATM   32  F   UNL     1      -7.073  20.151  65.330  1.00  0.00    -0.293 F  
ENDBRANCH  21  23
ENDBRANCH  16  17
ENDBRANCH  15  16
ENDBRANCH   3  15
TORSDOF 4
ENDMDL
MODEL      192
REMARK 921   NORMALIZED FREE ENERGY PREDICTED BY IDOCK:   -4.46 KCAL/MOL
REMARK 922        TOTAL FREE ENERGY PREDICTED BY IDOCK:   -5.77 KCAL/MOL
REMARK 923 INTER-LIGAND FREE ENERGY PREDICTED BY IDOCK:   -5.03 KCAL/MOL
REMARK 924 INTRA-LIGAND FREE ENERGY PREDICTED BY IDOCK:   -0.75 KCAL/MOL
REMARK 927      BINDING AFFINITY PREDICTED BY RF-SCORE:    0.00 PKD
ROOT
HETATM    1  C   UNL     1      -6.002  14.346  70.137  1.00  0.00    -0.151 C  
HETATM    2  C   UNL     1      -7.034  14.089  69.070  1.00  0.00    -0.112 C  
HETATM    3  C   UNL     1      -7.213  12.922  68.418  1.00  0.00    -0.113 C  
HETATM    4  C   UNL     1      -8.322  12.874  67.428  1.00  0.00    -0.190 C  
HETATM    5  O   UNL     1     -10.489  16.666  68.756  1.00  0.00    -0.280 OA 
HETATM    6  C   UNL     1      -9.544  16.449  67.712  1.00  0.00    -0.231 C  
HETATM    7  O   UNL     1      -8.531  11.845  66.786  1.00  0.00    -0.179 OA 
HETATM    8  N   UNL     1      -9.071  14.022  67.270  1.00  0.00    -0.210 N  
HETATM    9  C   UNL     1     -10.065  14.000  66.202  1.00  0.00    -0.309 C  
HETATM   10  N   UNL     1      -7.775  15.214  68.816  1.00  0.00    -0.133 NA 
HETATM   11  C   UNL     1     -11.037  15.165  66.208  1.00  0.00    -0.309 C  
HETATM   12  C   UNL     1      -8.723  15.167  67.941  1.00  0.00    -0.157 C  
HETATM   13  C   UNL     1     -10.266  16.462  66.375  1.00  0.00    -0.325 C  
HETATM   14  H   UNL     1     -10.038  16.657  69.592  1.00  0.00     0.000 HD 
ENDROOT
BRANCH   3  15
HETATM   15  C   UNL     1      -6.488  11.610  68.620  1.00  0.00    -0.059 C  
BRANCH  15  16
HETATM   16  C   UNL     1      -6.968  10.788  69.849  1.00  0.00    -0.123 C  
BRANCH  16  17
HETATM   17  N   UNL     1      -6.860   9.326  69.714  1.00  0.00    -0.050 NA 
HETATM   18  C   UNL     1      -9.118   8.657  70.518  1.00  0.00    -0.188 C  
HETATM   19  C   UNL     1      -8.692   8.614  68.054  1.00  0.00    -0.141 C  
HETATM   20  C   UNL     1      -7.609   8.569  70.721  1.00  0.00    -0.074 C  
HETATM   21  C   UNL     1      -9.506   7.983  69.194  1.00  0.00    -0.155 C  
HETATM   22  C   UNL     1      -7.196   8.833  68.361  1.00  0.00    -0.081 C  
BRANCH  21  23
HETATM   23  C   UNL     1      -9.416   6.487  69.373  1.00  0.00    -0.145 A  
HETATM   24  N   UNL     1      -9.803   5.869  70.496  1.00  0.00    -0.178 NA 
HETATM   25  O   UNL     1      -9.918   4.525  70.167  1.00  0.00    -0.217 OA 
HETATM   26  C   UNL     1      -9.572   4.341  68.864  1.00  0.00    -0.157 A  
HETATM   27  C   UNL     1      -9.161   5.549  68.331  1.00  0.00    -0.117 A  
HETATM   28  C   UNL     1      -8.742   5.594  66.987  1.00  0.00    -0.108 A  
HETATM   29  C   UNL     1      -8.781   4.411  66.240  1.00  0.00    -0.113 A  
HETATM   30  C   UNL     1      -9.242   3.226  66.813  1.00  0.00    -0.167 A  
HETATM   31  C   UNL     1      -9.646   3.152  68.146  1.00  0.00    -0.139 A  
HETATM   32  F   UNL     1      -9.307   2.126  66.052  1.00  0.00    -0.117 F  
ENDBRANCH  21  23
ENDBRANCH  16  17
ENDBRANCH  15  16
ENDBRANCH   3  15
TORSDOF 4
ENDMDL
MODEL      193
REMARK 921   NORMALIZED FREE ENERGY PREDICTED BY IDOCK:   -4.41 KCAL/MOL
REMARK 922        TOTAL FREE ENERGY PREDICTED BY IDOCK:   -5.71 KCAL/MOL
REMARK 923 INTER-LIGAND FREE ENERGY PREDICTED BY IDOCK:   -5.42 KCAL/MOL
REMARK 924 INTRA-LIGAND FREE ENERGY PREDICTED BY IDOCK:   -0.29 KCAL/MOL
REMARK 927      BINDING AFFINITY PREDICTED BY RF-SCORE:    0.00 PKD
ROOT
HETATM    1  C   UNL     1     -10.841   7.358  68.601  1.00  0.00    -0.073 C  
HETATM    2  C   UNL     1     -10.730   7.201  70.095  1.00  0.00    -0.240 C  
HETATM    3  C   UNL     1     -11.385   7.943  71.011  1.00  0.00    -0.292 C  
HETATM    4  C   UNL     1     -11.161   7.591  72.439  1.00  0.00    -0.308 C  
HETATM    5  O   UNL     1      -9.252   3.500  71.766  1.00  0.00    -0.106 OA 
HETATM    6  C   UNL     1      -8.664   4.778  71.985  1.00  0.00    -0.124 C  
HETATM    7  O   UNL     1     -11.716   8.238  73.328  1.00  0.00    -0.069 OA 
HETATM    8  N   UNL     1     -10.311   6.536  72.698  1.00  0.00    -0.187 N  
HETATM    9  C   UNL     1      -9.998   6.291  74.102  1.00  0.00    -0.286 C  
HETATM   10  N   UNL     1      -9.846   6.206  70.424  1.00  0.00    -0.175 NA 
HETATM   11  C   UNL     1      -9.271   4.988  74.379  1.00  0.00    -0.116 C  
HETATM   12  C   UNL     1      -9.644   5.921  71.668  1.00  0.00    -0.152 C  
HETATM   13  C   UNL     1      -8.118   4.839  73.403  1.00  0.00    -0.100 C  
HETATM   14  H   UNL     1      -9.594   3.461  70.880  1.00  0.00     0.000 HD 
ENDROOT
BRANCH   3  15
HETATM   15  C   UNL     1     -12.398   9.042  70.782  1.00  0.00    -0.064 C  
BRANCH  15  16
HETATM   16  C   UNL     1     -11.790  10.467  70.657  1.00  0.00    -0.360 C  
BRANCH  16  17
HETATM   17  N   UNL     1     -11.891  11.085  69.324  1.00  0.00    -0.321 NA 
HETATM   18  C   UNL     1     -11.324  13.438  69.901  1.00  0.00    -0.082 C  
HETATM   19  C   UNL     1      -9.566  12.048  68.792  1.00  0.00     0.004 C  
HETATM   20  C   UNL     1     -12.361  12.472  69.335  1.00  0.00     0.096 C  
HETATM   21  C   UNL     1     -10.094  13.478  68.983  1.00  0.00     0.076 C  
HETATM   22  C   UNL     1     -10.648  10.980  68.531  1.00  0.00    -0.190 C  
BRANCH  21  23
HETATM   23  C   UNL     1     -10.444  14.265  67.745  1.00  0.00    -0.245 A  
HETATM   24  N   UNL     1     -11.564  14.048  67.044  1.00  0.00    -0.350 NA 
HETATM   25  O   UNL     1     -11.721  15.161  66.228  1.00  0.00    -0.180 OA 
HETATM   26  C   UNL     1     -10.684  16.020  66.421  1.00  0.00    -0.232 A  
HETATM   27  C   UNL     1      -9.793  15.459  67.318  1.00  0.00    -0.217 A  
HETATM   28  C   UNL     1      -8.629  16.173  67.660  1.00  0.00    -0.181 A  
HETATM   29  C   UNL     1      -8.433  17.437  67.090  1.00  0.00    -0.227 A  
HETATM   30  C   UNL     1      -9.382  17.976  66.221  1.00  0.00    -0.206 A  
HETATM   31  C   UNL     1     -10.535  17.282  65.853  1.00  0.00    -0.267 A  
HETATM   32  F   UNL     1      -9.181  19.207  65.732  1.00  0.00    -0.245 F  
ENDBRANCH  21  23
ENDBRANCH  16  17
ENDBRANCH  15  16
ENDBRANCH   3  15
TORSDOF 4
ENDMDL
MODEL      194
REMARK 921   NORMALIZED FREE ENERGY PREDICTED BY IDOCK:   -4.40 KCAL/MOL
REMARK 922        TOTAL FREE ENERGY PREDICTED BY IDOCK:   -5.70 KCAL/MOL
REMARK 923 INTER-LIGAND FREE ENERGY PREDICTED BY IDOCK:   -5.84 KCAL/MOL
REMARK 924 INTRA-LIGAND FREE ENERGY PREDICTED BY IDOCK:    0.14 KCAL/MOL
REMARK 927      BINDING AFFINITY PREDICTED BY RF-SCORE:    0.00 PKD
ROOT
HETATM    1  C   UNL     1     -12.357  11.938  63.612  1.00  0.00    -0.591 C  
HETATM    2  C   UNL     1     -11.050  11.872  64.358  1.00  0.00    -0.336 C  
HETATM    3  C   UNL     1     -10.580  12.814  65.200  1.00  0.00    -0.324 C  
HETATM    4  C   UNL     1      -9.281  12.526  65.865  1.00  0.00     0.054 C  
HETATM    5  O   UNL     1      -9.098   8.060  64.938  1.00  0.00    -0.340 OA 
HETATM    6  C   UNL     1      -8.513   9.175  64.272  1.00  0.00    -0.187 C  
HETATM    7  O   UNL     1      -8.786  13.350  66.635  1.00  0.00    -0.176 OA 
HETATM    8  N   UNL     1      -8.678  11.321  65.568  1.00  0.00    -0.100 N  
HETATM    9  C   UNL     1      -7.344  11.115  66.122  1.00  0.00    -0.007 C  
HETATM   10  N   UNL     1     -10.366  10.723  64.055  1.00  0.00    -0.340 NA 
HETATM   11  C   UNL     1      -6.809   9.701  65.993  1.00  0.00    -0.088 C  
HETATM   12  C   UNL     1      -9.229  10.491  64.623  1.00  0.00    -0.235 C  
HETATM   13  C   UNL     1      -7.024   9.210  64.572  1.00  0.00    -0.090 C  
HETATM   14  H   UNL     1     -10.030   8.038  64.751  1.00  0.00     0.000 HD 
ENDROOT
BRANCH   3  15
HETATM   15  C   UNL     1     -11.242  14.102  65.637  1.00  0.00    -0.308 C  
BRANCH  15  16
HETATM   16  C   UNL     1     -11.272  14.325  67.175  1.00  0.00    -0.322 C  
BRANCH  16  17
HETATM   17  N   UNL     1     -12.224  13.483  67.918  1.00  0.00    -0.244 NA 
HETATM   18  C   UNL     1     -10.656  11.793  68.855  1.00  0.00    -0.211 C  
HETATM   19  C   UNL     1     -11.504  13.580  70.386  1.00  0.00     0.067 C  
HETATM   20  C   UNL     1     -11.866  12.064  67.966  1.00  0.00    -0.269 C  
HETATM   21  C   UNL     1     -10.995  12.131  70.314  1.00  0.00     1.005 C  
HETATM   22  C   UNL     1     -12.506  13.978  69.283  1.00  0.00    -0.010 C  
BRANCH  21  23
HETATM   23  C   UNL     1     -11.891  11.048  70.862  1.00  0.00    -0.196 A  
HETATM   24  N   UNL     1     -13.227  11.137  70.842  1.00  0.00    -0.032 NA 
HETATM   25  O   UNL     1     -13.695   9.851  71.077  1.00  0.00    -0.268 OA 
HETATM   26  C   UNL     1     -12.644   9.008  71.266  1.00  0.00    -0.280 A  
HETATM   27  C   UNL     1     -11.468   9.736  71.224  1.00  0.00    -0.457 A  
HETATM   28  C   UNL     1     -10.244   9.066  71.410  1.00  0.00    -0.399 A  
HETATM   29  C   UNL     1     -10.269   7.680  71.608  1.00  0.00    -0.217 A  
HETATM   30  C   UNL     1     -11.479   6.986  71.603  1.00  0.00    -0.266 A  
HETATM   31  C   UNL     1     -12.706   7.629  71.438  1.00  0.00    -0.357 A  
HETATM   32  F   UNL     1     -11.458   5.655  71.751  1.00  0.00    -0.313 F  
ENDBRANCH  21  23
ENDBRANCH  16  17
ENDBRANCH  15  16
ENDBRANCH   3  15
TORSDOF 4
ENDMDL
MODEL      195
REMARK 921   NORMALIZED FREE ENERGY PREDICTED BY IDOCK:   -4.36 KCAL/MOL
REMARK 922        TOTAL FREE ENERGY PREDICTED BY IDOCK:   -5.65 KCAL/MOL
REMARK 923 INTER-LIGAND FREE ENERGY PREDICTED BY IDOCK:   -4.95 KCAL/MOL
REMARK 924 INTRA-LIGAND FREE ENERGY PREDICTED BY IDOCK:   -0.70 KCAL/MOL
REMARK 927      BINDING AFFINITY PREDICTED BY RF-SCORE:    0.00 PKD
ROOT
HETATM    1  C   UNL     1     -10.984  15.037  67.183  1.00  0.00    -0.329 C  
HETATM    2  C   UNL     1      -9.515  15.274  67.417  1.00  0.00    -0.199 C  
HETATM    3  C   UNL     1      -8.626  14.343  67.821  1.00  0.00    -0.171 C  
HETATM    4  C   UNL     1      -7.211  14.783  67.949  1.00  0.00    -0.156 C  
HETATM    5  O   UNL     1      -7.575  18.694  65.623  1.00  0.00    -0.505 OA 
HETATM    6  C   UNL     1      -7.625  18.434  67.023  1.00  0.00    -0.220 C  
HETATM    7  O   UNL     1      -6.350  13.989  68.329  1.00  0.00    -0.091 OA 
HETATM    8  N   UNL     1      -6.933  16.098  67.637  1.00  0.00    -0.137 N  
HETATM    9  C   UNL     1      -5.569  16.547  67.897  1.00  0.00    -0.120 C  
HETATM   10  N   UNL     1      -9.181  16.583  67.187  1.00  0.00    -0.211 NA 
HETATM   11  C   UNL     1      -5.221  17.907  67.321  1.00  0.00    -0.148 C  
HETATM   12  C   UNL     1      -7.953  16.960  67.319  1.00  0.00    -0.174 C  
HETATM   13  C   UNL     1      -6.324  18.894  67.661  1.00  0.00    -0.210 C  
HETATM   14  H   UNL     1      -8.388  18.406  65.223  1.00  0.00     0.000 HD 
ENDROOT
BRANCH   3  15
HETATM   15  C   UNL     1      -8.856  12.871  68.081  1.00  0.00    -0.194 C  
BRANCH  15  16
HETATM   16  C   UNL     1      -8.765  11.969  66.819  1.00  0.00    -0.192 C  
BRANCH  16  17
HETATM   17  N   UNL     1      -7.853  10.818  66.928  1.00  0.00    -0.124 NA 
HETATM   18  C   UNL     1      -9.265   9.283  68.286  1.00  0.00    -0.134 C  
HETATM   19  C   UNL     1      -9.063   8.828  65.836  1.00  0.00    -0.271 C  
HETATM   20  C   UNL     1      -7.965  10.075  68.186  1.00  0.00    -0.100 C  
HETATM   21  C   UNL     1      -9.291   8.186  67.213  1.00  0.00    -0.174 C  
HETATM   22  C   UNL     1      -7.942   9.886  65.784  1.00  0.00    -0.120 C  
BRANCH  21  23
HETATM   23  C   UNL     1      -8.353   7.081  67.633  1.00  0.00    -0.117 A  
HETATM   24  N   UNL     1      -7.163   6.884  67.051  1.00  0.00    -0.082 NA 
HETATM   25  O   UNL     1      -6.454   6.056  67.911  1.00  0.00    -0.042 OA 
HETATM   26  C   UNL     1      -7.228   5.738  68.983  1.00  0.00    -0.078 A  
HETATM   27  C   UNL     1      -8.483   6.297  68.817  1.00  0.00    -0.119 A  
HETATM   28  C   UNL     1      -9.461   6.087  69.807  1.00  0.00    -0.173 A  
HETATM   29  C   UNL     1      -9.113   5.334  70.935  1.00  0.00    -0.168 A  
HETATM   30  C   UNL     1      -7.822   4.824  71.075  1.00  0.00    -0.082 A  
HETATM   31  C   UNL     1      -6.840   5.005  70.100  1.00  0.00    -0.044 A  
HETATM   32  F   UNL     1      -7.514   4.148  72.189  1.00  0.00    -0.060 F  
ENDBRANCH  21  23
ENDBRANCH  16  17
ENDBRANCH  15  16
ENDBRANCH   3  15
TORSDOF 4
ENDMDL
MODEL      196
REMARK 921   NORMALIZED FREE ENERGY PREDICTED BY IDOCK:   -4.24 KCAL/MOL
REMARK 922        TOTAL FREE ENERGY PREDICTED BY IDOCK:   -5.51 KCAL/MOL
REMARK 923 INTER-LIGAND FREE ENERGY PREDICTED BY IDOCK:   -5.07 KCAL/MOL
REMARK 924 INTRA-LIGAND FREE ENERGY PREDICTED BY IDOCK:   -0.44 KCAL/MOL
REMARK 927      BINDING AFFINITY PREDICTED BY RF-SCORE:    0.00 PKD
ROOT
HETATM    1  C   UNL     1      -7.217  13.980  68.847  1.00  0.00    -0.108 C  
HETATM    2  C   UNL     1      -8.259  13.359  67.954  1.00  0.00    -0.162 C  
HETATM    3  C   UNL     1      -8.313  12.058  67.600  1.00  0.00    -0.160 C  
HETATM    4  C   UNL     1      -9.455  11.647  66.740  1.00  0.00    -0.186 C  
HETATM    5  O   UNL     1     -12.041  15.360  67.346  1.00  0.00    -0.157 OA 
HETATM    6  C   UNL     1     -11.130  15.018  66.305  1.00  0.00    -0.334 C  
HETATM    7  O   UNL     1      -9.556  10.478  66.367  1.00  0.00    -0.167 OA 
HETATM    8  N   UNL     1     -10.359  12.628  66.388  1.00  0.00    -0.245 N  
HETATM    9  C   UNL     1     -11.395  12.238  65.437  1.00  0.00    -0.343 C  
HETATM   10  N   UNL     1      -9.157  14.297  67.513  1.00  0.00    -0.185 NA 
HETATM   11  C   UNL     1     -12.513  13.248  65.258  1.00  0.00    -0.543 C  
HETATM   12  C   UNL     1     -10.134  13.933  66.751  1.00  0.00    -0.265 C  
HETATM   13  C   UNL     1     -11.916  14.630  65.063  1.00  0.00    -0.364 C  
HETATM   14  H   UNL     1     -11.550  15.602  68.123  1.00  0.00     0.000 HD 
ENDROOT
BRANCH   3  15
HETATM   15  C   UNL     1      -7.409  10.926  68.034  1.00  0.00    -0.088 C  
BRANCH  15  16
HETATM   16  C   UNL     1      -8.008  10.005  69.134  1.00  0.00    -0.116 C  
BRANCH  16  17
HETATM   17  N   UNL     1      -7.606   8.590  69.063  1.00  0.00    -0.093 NA 
HETATM   18  C   UNL     1      -9.759   7.572  68.341  1.00  0.00    -0.161 C  
HETATM   19  C   UNL     1      -7.963   7.856  66.624  1.00  0.00    -0.103 C  
HETATM   20  C   UNL     1      -8.669   7.642  69.406  1.00  0.00    -0.136 C  
HETATM   21  C   UNL     1      -9.177   7.009  67.036  1.00  0.00    -0.167 C  
HETATM   22  C   UNL     1      -6.996   8.216  67.769  1.00  0.00    -0.078 C  
BRANCH  21  23
HETATM   23  C   UNL     1      -8.968   5.524  67.205  1.00  0.00    -0.111 A  
HETATM   24  N   UNL     1      -9.811   4.751  67.901  1.00  0.00    -0.153 NA 
HETATM   25  O   UNL     1      -9.512   3.444  67.539  1.00  0.00    -0.205 OA 
HETATM   26  C   UNL     1      -8.477   3.439  66.655  1.00  0.00    -0.109 A  
HETATM   27  C   UNL     1      -8.034   4.737  66.471  1.00  0.00    -0.103 A  
HETATM   28  C   UNL     1      -6.953   4.972  65.600  1.00  0.00    -0.063 A  
HETATM   29  C   UNL     1      -6.385   3.877  64.937  1.00  0.00    -0.027 A  
HETATM   30  C   UNL     1      -6.894   2.592  65.127  1.00  0.00    -0.044 A  
HETATM   31  C   UNL     1      -7.953   2.331  65.997  1.00  0.00    -0.082 A  
HETATM   32  F   UNL     1      -6.352   1.577  64.441  1.00  0.00    -0.015 F  
ENDBRANCH  21  23
ENDBRANCH  16  17
ENDBRANCH  15  16
ENDBRANCH   3  15
TORSDOF 4
ENDMDL
MODEL      197
REMARK 921   NORMALIZED FREE ENERGY PREDICTED BY IDOCK:   -4.18 KCAL/MOL
REMARK 922        TOTAL FREE ENERGY PREDICTED BY IDOCK:   -5.43 KCAL/MOL
REMARK 923 INTER-LIGAND FREE ENERGY PREDICTED BY IDOCK:   -5.20 KCAL/MOL
REMARK 924 INTRA-LIGAND FREE ENERGY PREDICTED BY IDOCK:   -0.24 KCAL/MOL
REMARK 927      BINDING AFFINITY PREDICTED BY RF-SCORE:    0.00 PKD
ROOT
HETATM    1  C   UNL     1      -7.637  15.058  70.102  1.00  0.00     0.302 C  
HETATM    2  C   UNL     1      -7.479  16.039  68.969  1.00  0.00    -0.202 C  
HETATM    3  C   UNL     1      -6.515  15.998  68.027  1.00  0.00    -0.148 C  
HETATM    4  C   UNL     1      -6.570  17.045  66.971  1.00  0.00    -0.202 C  
HETATM    5  O   UNL     1     -10.834  18.475  67.751  1.00  0.00    -0.388 OA 
HETATM    6  C   UNL     1      -9.583  18.987  68.199  1.00  0.00    -0.341 C  
HETATM    7  O   UNL     1      -5.712  17.077  66.089  1.00  0.00    -0.302 OA 
HETATM    8  N   UNL     1      -7.603  17.957  67.046  1.00  0.00    -0.196 N  
HETATM    9  C   UNL     1      -7.564  19.054  66.084  1.00  0.00    -0.266 C  
HETATM   10  N   UNL     1      -8.440  17.015  69.022  1.00  0.00    -0.185 NA 
HETATM   11  C   UNL     1      -8.826  19.894  66.020  1.00  0.00    -0.287 C  
HETATM   12  C   UNL     1      -8.468  17.930  68.112  1.00  0.00    -0.267 C  
HETATM   13  C   UNL     1      -9.260  20.257  67.429  1.00  0.00    -0.507 C  
HETATM   14  H   UNL     1     -11.036  17.680  68.233  1.00  0.00     0.000 HD 
ENDROOT
BRANCH   3  15
HETATM   15  C   UNL     1      -5.421  14.971  67.842  1.00  0.00    -0.120 C  
BRANCH  15  16
HETATM   16  C   UNL     1      -5.836  13.514  68.194  1.00  0.00    -0.115 C  
BRANCH  16  17
HETATM   17  N   UNL     1      -6.529  12.777  67.126  1.00  0.00    -0.195 NA 
HETATM   18  C   UNL     1      -6.816  10.573  68.246  1.00  0.00    -0.068 C  
HETATM   19  C   UNL     1      -8.809  12.076  68.090  1.00  0.00    -0.182 C  
HETATM   20  C   UNL     1      -6.216  11.347  67.076  1.00  0.00    -0.123 C  
HETATM   21  C   UNL     1      -8.349  10.612  68.164  1.00  0.00    -0.121 C  
HETATM   22  C   UNL     1      -7.995  12.970  67.133  1.00  0.00    -0.087 C  
BRANCH  21  23
HETATM   23  C   UNL     1      -8.794   9.683  67.062  1.00  0.00    -0.131 A  
HETATM   24  N   UNL     1      -9.013  10.101  65.809  1.00  0.00    -0.153 NA 
HETATM   25  O   UNL     1      -9.043   8.954  65.027  1.00  0.00    -0.165 OA 
HETATM   26  C   UNL     1      -8.874   7.858  65.815  1.00  0.00    -0.119 A  
HETATM   27  C   UNL     1      -8.795   8.259  67.137  1.00  0.00    -0.145 A  
HETATM   28  C   UNL     1      -8.631   7.283  68.138  1.00  0.00    -0.122 A  
HETATM   29  C   UNL     1      -8.532   5.942  67.747  1.00  0.00    -0.107 A  
HETATM   30  C   UNL     1      -8.578   5.592  66.398  1.00  0.00    -0.123 A  
HETATM   31  C   UNL     1      -8.757   6.539  65.389  1.00  0.00    -0.020 A  
HETATM   32  F   UNL     1      -8.435   4.304  66.061  1.00  0.00    -0.111 F  
ENDBRANCH  21  23
ENDBRANCH  16  17
ENDBRANCH  15  16
ENDBRANCH   3  15
TORSDOF 4
ENDMDL
MODEL      198
REMARK 921   NORMALIZED FREE ENERGY PREDICTED BY IDOCK:   -4.14 KCAL/MOL
REMARK 922        TOTAL FREE ENERGY PREDICTED BY IDOCK:   -5.38 KCAL/MOL
REMARK 923 INTER-LIGAND FREE ENERGY PREDICTED BY IDOCK:   -5.73 KCAL/MOL
REMARK 924 INTRA-LIGAND FREE ENERGY PREDICTED BY IDOCK:    0.35 KCAL/MOL
REMARK 927      BINDING AFFINITY PREDICTED BY RF-SCORE:    0.00 PKD
ROOT
HETATM    1  C   UNL     1      -6.685   4.104  67.166  1.00  0.00    -0.047 C  
HETATM    2  C   UNL     1      -7.410   5.304  66.615  1.00  0.00    -0.086 C  
HETATM    3  C   UNL     1      -8.712   5.591  66.812  1.00  0.00    -0.114 C  
HETATM    4  C   UNL     1      -9.216   6.854  66.208  1.00  0.00    -0.120 C  
HETATM    5  O   UNL     1      -5.166   8.763  65.320  1.00  0.00    -0.037 OA 
HETATM    6  C   UNL     1      -6.045   8.011  64.488  1.00  0.00    -0.052 C  
HETATM    7  O   UNL     1     -10.399   7.169  66.335  1.00  0.00    -0.088 OA 
HETATM    8  N   UNL     1      -8.307   7.620  65.507  1.00  0.00    -0.134 N  
HETATM    9  C   UNL     1      -8.847   8.782  64.810  1.00  0.00    -0.045 C  
HETATM   10  N   UNL     1      -6.575   6.078  65.850  1.00  0.00    -0.046 NA 
HETATM   11  C   UNL     1      -7.806   9.739  64.260  1.00  0.00    -0.134 C  
HETATM   12  C   UNL     1      -7.027   7.162  65.314  1.00  0.00    -0.056 C  
HETATM   13  C   UNL     1      -6.740   8.952  63.519  1.00  0.00    -0.089 C  
HETATM   14  H   UNL     1      -4.731   8.175  65.927  1.00  0.00     0.000 HD 
ENDROOT
BRANCH   3  15
HETATM   15  C   UNL     1      -9.726   4.842  67.647  1.00  0.00    -0.202 C  
BRANCH  15  16
HETATM   16  C   UNL     1      -9.962   5.435  69.065  1.00  0.00    -0.190 C  
BRANCH  16  17
HETATM   17  N   UNL     1     -10.736   6.687  69.106  1.00  0.00    -0.241 NA 
HETATM   18  C   UNL     1     -11.881   6.407  71.299  1.00  0.00    -0.333 C  
HETATM   19  C   UNL     1      -9.930   7.968  71.187  1.00  0.00    -0.206 C  
HETATM   20  C   UNL     1     -12.027   6.577  69.789  1.00  0.00     0.118 C  
HETATM   21  C   UNL     1     -11.255   7.670  71.907  1.00  0.00    -0.299 C  
HETATM   22  C   UNL     1      -9.974   7.832  69.651  1.00  0.00    -0.190 C  
BRANCH  21  23
HETATM   23  C   UNL     1     -12.298   8.759  71.930  1.00  0.00    -0.363 A  
HETATM   24  N   UNL     1     -13.308   8.774  72.810  1.00  0.00    -0.287 NA 
HETATM   25  O   UNL     1     -13.823  10.063  72.772  1.00  0.00     0.054 OA 
HETATM   26  C   UNL     1     -13.144  10.801  71.853  1.00  0.00    -0.451 A  
HETATM   27  C   UNL     1     -12.213   9.994  71.223  1.00  0.00    -0.498 A  
HETATM   28  C   UNL     1     -11.398  10.549  70.218  1.00  0.00    -0.407 A  
HETATM   29  C   UNL     1     -11.552  11.906  69.913  1.00  0.00    -0.333 A  
HETATM   30  C   UNL     1     -12.478  12.687  70.605  1.00  0.00    -0.239 A  
HETATM   31  C   UNL     1     -13.308  12.158  71.593  1.00  0.00    -0.244 A  
HETATM   32  F   UNL     1     -12.563  13.993  70.316  1.00  0.00    -0.374 F  
ENDBRANCH  21  23
ENDBRANCH  16  17
ENDBRANCH  15  16
ENDBRANCH   3  15
TORSDOF 4
ENDMDL
MODEL      199
REMARK 921   NORMALIZED FREE ENERGY PREDICTED BY IDOCK:   -4.12 KCAL/MOL
REMARK 922        TOTAL FREE ENERGY PREDICTED BY IDOCK:   -5.35 KCAL/MOL
REMARK 923 INTER-LIGAND FREE ENERGY PREDICTED BY IDOCK:   -4.83 KCAL/MOL
REMARK 924 INTRA-LIGAND FREE ENERGY PREDICTED BY IDOCK:   -0.52 KCAL/MOL
REMARK 927      BINDING AFFINITY PREDICTED BY RF-SCORE:    0.00 PKD
ROOT
HETATM    1  C   UNL     1      -9.428   3.665  69.488  1.00  0.00    -0.246 C  
HETATM    2  C   UNL     1      -9.206   4.420  68.203  1.00  0.00    -0.137 C  
HETATM    3  C   UNL     1      -9.527   5.712  67.989  1.00  0.00    -0.121 C  
HETATM    4  C   UNL     1      -9.181   6.272  66.655  1.00  0.00    -0.146 C  
HETATM    5  O   UNL     1      -6.333   2.963  65.322  1.00  0.00    -0.026 OA 
HETATM    6  C   UNL     1      -7.717   3.167  65.053  1.00  0.00    -0.081 C  
HETATM    7  O   UNL     1      -9.460   7.441  66.386  1.00  0.00    -0.178 OA 
HETATM    8  N   UNL     1      -8.559   5.425  65.761  1.00  0.00    -0.133 N  
HETATM    9  C   UNL     1      -8.350   5.950  64.415  1.00  0.00    -0.048 C  
HETATM   10  N   UNL     1      -8.648   3.613  67.246  1.00  0.00    -0.103 NA 
HETATM   11  C   UNL     1      -7.451   5.105  63.531  1.00  0.00    -0.053 C  
HETATM   12  C   UNL     1      -8.369   4.105  66.084  1.00  0.00    -0.109 C  
HETATM   13  C   UNL     1      -7.880   3.651  63.621  1.00  0.00    -0.079 C  
HETATM   14  H   UNL     1      -6.231   2.660  66.217  1.00  0.00     0.000 HD 
ENDROOT
BRANCH   3  15
HETATM   15  C   UNL     1     -10.117   6.710  68.959  1.00  0.00    -0.176 C  
BRANCH  15  16
HETATM   16  C   UNL     1      -9.124   7.800  69.452  1.00  0.00    -0.146 C  
BRANCH  16  17
HETATM   17  N   UNL     1      -9.733   9.084  69.836  1.00  0.00    -0.176 NA 
HETATM   18  C   UNL     1      -8.718  10.567  68.114  1.00  0.00    -0.130 C  
HETATM   19  C   UNL     1     -11.101   9.874  67.805  1.00  0.00    -0.196 C  
HETATM   20  C   UNL     1      -8.881  10.252  69.598  1.00  0.00    -0.103 C  
HETATM   21  C   UNL     1     -10.071  10.978  67.517  1.00  0.00    -0.208 C  
HETATM   22  C   UNL     1     -11.067   9.305  69.238  1.00  0.00    -0.009 C  
BRANCH  21  23
HETATM   23  C   UNL     1     -10.397  12.376  67.983  1.00  0.00    -0.216 A  
HETATM   24  N   UNL     1     -11.529  12.675  68.633  1.00  0.00    -0.283 NA 
HETATM   25  O   UNL     1     -11.318  13.922  69.206  1.00  0.00    -0.253 OA 
HETATM   26  C   UNL     1     -10.079  14.375  68.873  1.00  0.00    -0.200 A  
HETATM   27  C   UNL     1      -9.478  13.465  68.022  1.00  0.00    -0.218 A  
HETATM   28  C   UNL     1      -8.185  13.736  67.536  1.00  0.00    -0.194 A  
HETATM   29  C   UNL     1      -7.552  14.912  67.955  1.00  0.00    -0.146 A  
HETATM   30  C   UNL     1      -8.185  15.779  68.845  1.00  0.00    -0.210 A  
HETATM   31  C   UNL     1      -9.472  15.541  69.328  1.00  0.00    -0.263 A  
HETATM   32  F   UNL     1      -7.527  16.871  69.258  1.00  0.00    -0.243 F  
ENDBRANCH  21  23
ENDBRANCH  16  17
ENDBRANCH  15  16
ENDBRANCH   3  15
TORSDOF 4
ENDMDL
MODEL      200
REMARK 921   NORMALIZED FREE ENERGY PREDICTED BY IDOCK:   -4.09 KCAL/MOL
REMARK 922        TOTAL FREE ENERGY PREDICTED BY IDOCK:   -5.32 KCAL/MOL
REMARK 923 INTER-LIGAND FREE ENERGY PREDICTED BY IDOCK:   -5.02 KCAL/MOL
REMARK 924 INTRA-LIGAND FREE ENERGY PREDICTED BY IDOCK:   -0.30 KCAL/MOL
REMARK 927      BINDING AFFINITY PREDICTED BY RF-SCORE:    0.00 PKD
ROOT
HETATM    1  C   UNL     1      -9.085   4.738  71.489  1.00  0.00    -0.172 C  
HETATM    2  C   UNL     1      -9.491   4.763  70.039  1.00  0.00    -0.170 C  
HETATM    3  C   UNL     1     -10.326   5.658  69.474  1.00  0.00    -0.345 C  
HETATM    4  C   UNL     1     -10.559   5.523  68.011  1.00  0.00    -0.140 C  
HETATM    5  O   UNL     1      -7.074   2.720  67.096  1.00  0.00    -0.051 OA 
HETATM    6  C   UNL     1      -8.450   2.447  67.343  1.00  0.00    -0.096 C  
HETATM    7  O   UNL     1     -11.322   6.298  67.434  1.00  0.00    -0.247 OA 
HETATM    8  N   UNL     1      -9.897   4.500  67.362  1.00  0.00    -0.177 N  
HETATM    9  C   UNL     1     -10.240   4.299  65.959  1.00  0.00    -0.157 C  
HETATM   10  N   UNL     1      -8.916   3.728  69.347  1.00  0.00    -0.102 NA 
HETATM   11  C   UNL     1      -9.330   3.345  65.207  1.00  0.00    -0.155 C  
HETATM   12  C   UNL     1      -9.140   3.608  68.081  1.00  0.00    -0.149 C  
HETATM   13  C   UNL     1      -9.130   2.086  66.032  1.00  0.00    -0.050 C  
HETATM   14  H   UNL     1      -6.648   2.946  67.915  1.00  0.00     0.000 HD 
ENDROOT
BRANCH   3  15
HETATM   15  C   UNL     1     -11.000   6.852  70.113  1.00  0.00    -0.322 C  
BRANCH  15  16
HETATM   16  C   UNL     1     -10.022   7.913  70.692  1.00  0.00    -0.186 C  
BRANCH  16  17
HETATM   17  N   UNL     1     -10.295   9.306  70.298  1.00  0.00    -0.211 NA 
HETATM   18  C   UNL     1      -8.499   9.629  68.606  1.00  0.00    -0.119 C  
HETATM   19  C   UNL     1     -10.831   9.257  67.783  1.00  0.00    -0.192 C  
HETATM   20  C   UNL     1      -9.103  10.075  69.934  1.00  0.00    -0.154 C  
HETATM   21  C   UNL     1      -9.482   9.920  67.463  1.00  0.00    -0.173 C  
HETATM   22  C   UNL     1     -11.316   9.428  69.236  1.00  0.00     0.152 C  
BRANCH  21  23
HETATM   23  C   UNL     1      -9.479  11.404  67.194  1.00  0.00    -0.175 A  
HETATM   24  N   UNL     1     -10.605  12.118  67.068  1.00  0.00    -0.223 NA 
HETATM   25  O   UNL     1     -10.227  13.447  67.196  1.00  0.00    -0.243 OA 
HETATM   26  C   UNL     1      -8.880  13.526  67.365  1.00  0.00    -0.221 A  
HETATM   27  C   UNL     1      -8.339  12.255  67.287  1.00  0.00    -0.182 A  
HETATM   28  C   UNL     1      -6.947  12.096  67.423  1.00  0.00    -0.146 A  
HETATM   29  C   UNL     1      -6.168  13.236  67.653  1.00  0.00    -0.153 A  
HETATM   30  C   UNL     1      -6.765  14.491  67.763  1.00  0.00    -0.174 A  
HETATM   31  C   UNL     1      -8.140  14.677  67.616  1.00  0.00    -0.185 A  
HETATM   32  F   UNL     1      -5.991  15.551  68.030  1.00  0.00    -0.100 F  
ENDBRANCH  21  23
ENDBRANCH  16  17
ENDBRANCH  15  16
ENDBRANCH   3  15
TORSDOF 4
ENDMDL
MODEL      201
REMARK 921   NORMALIZED FREE ENERGY PREDICTED BY IDOCK:   -4.09 KCAL/MOL
REMARK 922        TOTAL FREE ENERGY PREDICTED BY IDOCK:   -5.32 KCAL/MOL
REMARK 923 INTER-LIGAND FREE ENERGY PREDICTED BY IDOCK:   -4.59 KCAL/MOL
REMARK 924 INTRA-LIGAND FREE ENERGY PREDICTED BY IDOCK:   -0.73 KCAL/MOL
REMARK 927      BINDING AFFINITY PREDICTED BY RF-SCORE:    0.00 PKD
ROOT
HETATM    1  C   UNL     1      -5.753  14.215  68.259  1.00  0.00    -0.117 C  
HETATM    2  C   UNL     1      -7.152  13.657  68.226  1.00  0.00    -0.110 C  
HETATM    3  C   UNL     1      -7.477  12.372  67.980  1.00  0.00    -0.114 C  
HETATM    4  C   UNL     1      -8.923  12.027  68.038  1.00  0.00    -0.187 C  
HETATM    5  O   UNL     1     -10.366  15.799  70.164  1.00  0.00    -0.297 OA 
HETATM    6  C   UNL     1     -10.338  15.462  68.780  1.00  0.00    -0.229 C  
HETATM    7  O   UNL     1      -9.291  10.874  67.807  1.00  0.00    -0.153 OA 
HETATM    8  N   UNL     1      -9.799  13.048  68.343  1.00  0.00    -0.225 N  
HETATM    9  C   UNL     1     -11.220  12.722  68.263  1.00  0.00    -0.271 C  
HETATM   10  N   UNL     1      -8.081  14.638  68.459  1.00  0.00    -0.139 NA 
HETATM   11  C   UNL     1     -12.150  13.773  68.839  1.00  0.00    -0.348 C  
HETATM   12  C   UNL     1      -9.335  14.331  68.488  1.00  0.00    -0.200 C  
HETATM   13  C   UNL     1     -11.749  15.141  68.316  1.00  0.00    -0.336 C  
HETATM   14  H   UNL     1      -9.484  16.000  70.455  1.00  0.00     0.000 HD 
ENDROOT
BRANCH   3  15
HETATM   15  C   UNL     1      -6.556  11.197  67.737  1.00  0.00    -0.064 C  
BRANCH  15  16
HETATM   16  C   UNL     1      -6.253  10.913  66.239  1.00  0.00    -0.134 C  
BRANCH  16  17
HETATM   17  N   UNL     1      -5.854   9.530  65.925  1.00  0.00    -0.053 NA 
HETATM   18  C   UNL     1      -8.082   8.423  65.974  1.00  0.00    -0.104 C  
HETATM   19  C   UNL     1      -7.063   8.905  63.742  1.00  0.00    -0.092 C  
HETATM   20  C   UNL     1      -6.678   8.503  66.566  1.00  0.00    -0.067 C  
HETATM   21  C   UNL     1      -8.005   7.965  64.511  1.00  0.00    -0.140 C  
HETATM   22  C   UNL     1      -5.753   9.262  64.474  1.00  0.00    -0.068 C  
BRANCH  21  23
HETATM   23  C   UNL     1      -7.694   6.489  64.485  1.00  0.00    -0.108 A  
HETATM   24  N   UNL     1      -6.575   5.996  63.939  1.00  0.00    -0.036 NA 
HETATM   25  O   UNL     1      -6.462   4.697  64.414  1.00  0.00    -0.036 OA 
HETATM   26  C   UNL     1      -7.524   4.409  65.215  1.00  0.00    -0.077 A  
HETATM   27  C   UNL     1      -8.387   5.489  65.228  1.00  0.00    -0.144 A  
HETATM   28  C   UNL     1      -9.570   5.409  65.987  1.00  0.00    -0.149 A  
HETATM   29  C   UNL     1      -9.812   4.240  66.718  1.00  0.00    -0.230 A  
HETATM   30  C   UNL     1      -8.890   3.193  66.703  1.00  0.00    -0.145 A  
HETATM   31  C   UNL     1      -7.720   3.241  65.946  1.00  0.00    -0.081 A  
HETATM   32  F   UNL     1      -9.135   2.109  67.451  1.00  0.00    -0.136 F  
ENDBRANCH  21  23
ENDBRANCH  16  17
ENDBRANCH  15  16
ENDBRANCH   3  15
TORSDOF 4
ENDMDL
MODEL      202
REMARK 921   NORMALIZED FREE ENERGY PREDICTED BY IDOCK:   -4.07 KCAL/MOL
REMARK 922        TOTAL FREE ENERGY PREDICTED BY IDOCK:   -5.30 KCAL/MOL
REMARK 923 INTER-LIGAND FREE ENERGY PREDICTED BY IDOCK:   -6.11 KCAL/MOL
REMARK 924 INTRA-LIGAND FREE ENERGY PREDICTED BY IDOCK:    0.82 KCAL/MOL
REMARK 927      BINDING AFFINITY PREDICTED BY RF-SCORE:    0.00 PKD
ROOT
HETATM    1  C   UNL     1     -12.411   7.574  71.800  1.00  0.00    -0.360 C  
HETATM    2  C   UNL     1     -11.408   7.423  70.686  1.00  0.00    -0.281 C  
HETATM    3  C   UNL     1     -11.101   8.368  69.775  1.00  0.00    -0.062 C  
HETATM    4  C   UNL     1     -10.048   8.022  68.783  1.00  0.00    -0.195 C  
HETATM    5  O   UNL     1      -8.369   4.361  70.931  1.00  0.00    -0.084 OA 
HETATM    6  C   UNL     1      -9.326   4.468  69.881  1.00  0.00    -0.148 C  
HETATM    7  O   UNL     1      -9.730   8.833  67.913  1.00  0.00    -0.149 OA 
HETATM    8  N   UNL     1      -9.476   6.771  68.888  1.00  0.00    -0.129 N  
HETATM    9  C   UNL     1      -8.544   6.399  67.828  1.00  0.00    -0.116 C  
HETATM   10  N   UNL     1     -10.847   6.172  70.693  1.00  0.00    -0.272 NA 
HETATM   11  C   UNL     1      -7.746   5.135  68.092  1.00  0.00    -0.084 C  
HETATM   12  C   UNL     1      -9.947   5.875  69.815  1.00  0.00    -0.181 C  
HETATM   13  C   UNL     1      -8.682   4.041  68.573  1.00  0.00    -0.128 C  
HETATM   14  H   UNL     1      -8.772   4.628  71.749  1.00  0.00     0.000 HD 
ENDROOT
BRANCH   3  15
HETATM   15  C   UNL     1     -11.624   9.784  69.674  1.00  0.00    -0.032 C  
BRANCH  15  16
HETATM   16  C   UNL     1     -10.863  10.683  68.659  1.00  0.00    -0.227 C  
BRANCH  16  17
HETATM   17  N   UNL     1     -11.281  12.095  68.627  1.00  0.00    -0.247 NA 
HETATM   18  C   UNL     1      -9.083  13.179  68.193  1.00  0.00    -0.200 C  
HETATM   19  C   UNL     1     -10.685  12.974  66.284  1.00  0.00    -0.290 C  
HETATM   20  C   UNL     1     -10.277  13.034  69.132  1.00  0.00     0.249 C  
HETATM   21  C   UNL     1      -9.536  13.810  66.869  1.00  0.00    -0.263 C  
HETATM   22  C   UNL     1     -11.760  12.537  67.300  1.00  0.00    -0.362 C  
BRANCH  21  23
HETATM   23  C   UNL     1      -9.788  15.280  67.099  1.00  0.00    -0.224 A  
HETATM   24  N   UNL     1     -11.020  15.805  67.131  1.00  0.00    -0.288 NA 
HETATM   25  O   UNL     1     -10.881  17.058  67.712  1.00  0.00    -0.340 OA 
HETATM   26  C   UNL     1      -9.570  17.290  67.994  1.00  0.00    -0.274 A  
HETATM   27  C   UNL     1      -8.816  16.221  67.546  1.00  0.00    -0.194 A  
HETATM   28  C   UNL     1      -7.419  16.249  67.722  1.00  0.00    -0.150 A  
HETATM   29  C   UNL     1      -6.854  17.356  68.367  1.00  0.00    -0.194 A  
HETATM   30  C   UNL     1      -7.663  18.391  68.837  1.00  0.00    -0.211 A  
HETATM   31  C   UNL     1      -9.047  18.394  68.659  1.00  0.00    -0.317 A  
HETATM   32  F   UNL     1      -7.090  19.411  69.489  1.00  0.00    -0.361 F  
ENDBRANCH  21  23
ENDBRANCH  16  17
ENDBRANCH  15  16
ENDBRANCH   3  15
TORSDOF 4
ENDMDL
MODEL      203
REMARK 921   NORMALIZED FREE ENERGY PREDICTED BY IDOCK:   -4.00 KCAL/MOL
REMARK 922        TOTAL FREE ENERGY PREDICTED BY IDOCK:   -5.21 KCAL/MOL
REMARK 923 INTER-LIGAND FREE ENERGY PREDICTED BY IDOCK:   -5.71 KCAL/MOL
REMARK 924 INTRA-LIGAND FREE ENERGY PREDICTED BY IDOCK:    0.51 KCAL/MOL
REMARK 927      BINDING AFFINITY PREDICTED BY RF-SCORE:    0.00 PKD
ROOT
HETATM    1  C   UNL     1     -10.001   5.395  66.036  1.00  0.00    -0.118 C  
HETATM    2  C   UNL     1      -9.287   5.729  67.319  1.00  0.00    -0.113 C  
HETATM    3  C   UNL     1      -8.859   6.957  67.680  1.00  0.00    -0.118 C  
HETATM    4  C   UNL     1      -8.211   7.071  69.014  1.00  0.00    -0.125 C  
HETATM    5  O   UNL     1      -9.567   3.051  70.699  1.00  0.00    -0.165 OA 
HETATM    6  C   UNL     1      -8.347   3.435  70.069  1.00  0.00    -0.051 C  
HETATM    7  O   UNL     1      -7.783   8.159  69.400  1.00  0.00    -0.098 OA 
HETATM    8  N   UNL     1      -8.110   5.917  69.764  1.00  0.00    -0.104 N  
HETATM    9  C   UNL     1      -7.354   6.021  71.007  1.00  0.00    -0.080 C  
HETATM   10  N   UNL     1      -9.095   4.609  68.086  1.00  0.00    -0.115 NA 
HETATM   11  C   UNL     1      -7.467   4.819  71.927  1.00  0.00    -0.087 C  
HETATM   12  C   UNL     1      -8.514   4.717  69.234  1.00  0.00    -0.079 C  
HETATM   13  C   UNL     1      -7.257   3.549  71.123  1.00  0.00    -0.033 C  
HETATM   14  H   UNL     1     -10.248   2.980  70.040  1.00  0.00     0.000 HD 
ENDROOT
BRANCH   3  15
HETATM   15  C   UNL     1      -9.029   8.267  66.945  1.00  0.00    -0.169 C  
BRANCH  15  16
HETATM   16  C   UNL     1      -9.655   9.409  67.794  1.00  0.00    -0.134 C  
BRANCH  16  17
HETATM   17  N   UNL     1      -9.398  10.775  67.306  1.00  0.00    -0.151 NA 
HETATM   18  C   UNL     1     -11.146  10.931  65.541  1.00  0.00     0.075 C  
HETATM   19  C   UNL     1     -11.562  12.106  67.709  1.00  0.00    -0.410 C  
HETATM   20  C   UNL     1      -9.658  10.964  65.877  1.00  0.00    -0.216 C  
HETATM   21  C   UNL     1     -11.856  12.122  66.201  1.00  0.00    -0.327 C  
HETATM   22  C   UNL     1     -10.095  11.819  68.088  1.00  0.00    -0.192 C  
BRANCH  21  23
HETATM   23  C   UNL     1     -11.507  13.373  65.434  1.00  0.00    -0.302 A  
HETATM   24  N   UNL     1     -11.999  13.635  64.216  1.00  0.00    -0.429 NA 
HETATM   25  O   UNL     1     -11.766  14.985  63.996  1.00  0.00    -0.233 OA 
HETATM   26  C   UNL     1     -11.112  15.517  65.064  1.00  0.00    -0.401 A  
HETATM   27  C   UNL     1     -10.845  14.513  65.977  1.00  0.00    -0.310 A  
HETATM   28  C   UNL     1     -10.158  14.833  67.163  1.00  0.00    -0.240 A  
HETATM   29  C   UNL     1      -9.792  16.167  67.378  1.00  0.00    -0.238 A  
HETATM   30  C   UNL     1     -10.119  17.150  66.445  1.00  0.00    -0.320 A  
HETATM   31  C   UNL     1     -10.784  16.856  65.254  1.00  0.00    -0.147 A  
HETATM   32  F   UNL     1      -9.792  18.422  66.708  1.00  0.00    -0.287 F  
ENDBRANCH  21  23
ENDBRANCH  16  17
ENDBRANCH  15  16
ENDBRANCH   3  15
TORSDOF 4
ENDMDL
MODEL      204
REMARK 921   NORMALIZED FREE ENERGY PREDICTED BY IDOCK:   -3.96 KCAL/MOL
REMARK 922        TOTAL FREE ENERGY PREDICTED BY IDOCK:   -5.15 KCAL/MOL
REMARK 923 INTER-LIGAND FREE ENERGY PREDICTED BY IDOCK:   -4.69 KCAL/MOL
REMARK 924 INTRA-LIGAND FREE ENERGY PREDICTED BY IDOCK:   -0.46 KCAL/MOL
REMARK 927      BINDING AFFINITY PREDICTED BY RF-SCORE:    0.00 PKD
ROOT
HETATM    1  C   UNL     1      -8.736   8.169  73.064  1.00  0.00    -0.309 C  
HETATM    2  C   UNL     1      -8.709   6.785  72.470  1.00  0.00    -0.123 C  
HETATM    3  C   UNL     1      -9.544   6.326  71.515  1.00  0.00    -0.168 C  
HETATM    4  C   UNL     1      -9.314   4.935  71.041  1.00  0.00    -0.153 C  
HETATM    5  O   UNL     1      -5.137   4.374  72.794  1.00  0.00    -0.003 OA 
HETATM    6  C   UNL     1      -6.417   3.996  73.294  1.00  0.00    -0.040 C  
HETATM    7  O   UNL     1     -10.049   4.447  70.182  1.00  0.00    -0.217 OA 
HETATM    8  N   UNL     1      -8.267   4.242  71.613  1.00  0.00    -0.090 N  
HETATM    9  C   UNL     1      -8.140   2.839  71.235  1.00  0.00    -0.057 C  
HETATM   10  N   UNL     1      -7.728   6.018  73.044  1.00  0.00    -0.102 NA 
HETATM   11  C   UNL     1      -6.851   2.171  71.674  1.00  0.00    -0.027 C  
HETATM   12  C   UNL     1      -7.549   4.806  72.638  1.00  0.00    -0.091 C  
HETATM   13  C   UNL     1      -6.590   2.494  73.135  1.00  0.00    -0.018 C  
HETATM   14  H   UNL     1      -5.029   5.313  72.894  1.00  0.00     0.000 HD 
ENDROOT
BRANCH   3  15
HETATM   15  C   UNL     1     -10.641   7.069  70.787  1.00  0.00    -0.240 C  
BRANCH  15  16
HETATM   16  C   UNL     1     -10.293   7.467  69.325  1.00  0.00    -0.209 C  
BRANCH  16  17
HETATM   17  N   UNL     1     -10.823   8.767  68.880  1.00  0.00    -0.083 NA 
HETATM   18  C   UNL     1      -8.905  10.235  69.480  1.00  0.00    -0.166 C  
HETATM   19  C   UNL     1      -9.206   9.627  67.073  1.00  0.00    -0.167 C  
HETATM   20  C   UNL     1     -10.381   9.907  69.686  1.00  0.00    -0.241 C  
HETATM   21  C   UNL     1      -8.671  10.699  68.035  1.00  0.00    -0.126 C  
HETATM   22  C   UNL     1     -10.582   9.040  67.447  1.00  0.00    -0.239 C  
BRANCH  21  23
HETATM   23  C   UNL     1      -9.209  12.101  67.888  1.00  0.00    -0.188 A  
HETATM   24  N   UNL     1     -10.507  12.360  67.688  1.00  0.00    -0.213 NA 
HETATM   25  O   UNL     1     -10.671  13.710  67.966  1.00  0.00    -0.238 OA 
HETATM   26  C   UNL     1      -9.471  14.258  68.299  1.00  0.00    -0.209 A  
HETATM   27  C   UNL     1      -8.486  13.294  68.183  1.00  0.00    -0.173 A  
HETATM   28  C   UNL     1      -7.153  13.643  68.469  1.00  0.00    -0.107 A  
HETATM   29  C   UNL     1      -6.884  14.954  68.881  1.00  0.00    -0.104 A  
HETATM   30  C   UNL     1      -7.918  15.879  69.020  1.00  0.00    -0.222 A  
HETATM   31  C   UNL     1      -9.245  15.563  68.727  1.00  0.00    -0.210 A  
HETATM   32  F   UNL     1      -7.626  17.110  69.460  1.00  0.00    -0.160 F  
ENDBRANCH  21  23
ENDBRANCH  16  17
ENDBRANCH  15  16
ENDBRANCH   3  15
TORSDOF 4
ENDMDL
MODEL      205
REMARK 921   NORMALIZED FREE ENERGY PREDICTED BY IDOCK:   -3.84 KCAL/MOL
REMARK 922        TOTAL FREE ENERGY PREDICTED BY IDOCK:   -5.01 KCAL/MOL
REMARK 923 INTER-LIGAND FREE ENERGY PREDICTED BY IDOCK:   -4.49 KCAL/MOL
REMARK 924 INTRA-LIGAND FREE ENERGY PREDICTED BY IDOCK:   -0.52 KCAL/MOL
REMARK 927      BINDING AFFINITY PREDICTED BY RF-SCORE:    0.00 PKD
ROOT
HETATM    1  C   UNL     1      -9.709   9.812  68.621  1.00  0.00    -0.162 C  
HETATM    2  C   UNL     1      -9.914  10.276  67.203  1.00  0.00    -0.197 C  
HETATM    3  C   UNL     1     -10.998  10.934  66.743  1.00  0.00    -0.248 C  
HETATM    4  C   UNL     1     -10.976  11.337  65.311  1.00  0.00    -0.137 C  
HETATM    5  O   UNL     1      -6.515  10.720  64.572  1.00  0.00    -0.367 OA 
HETATM    6  C   UNL     1      -7.628   9.868  64.319  1.00  0.00    -0.139 C  
HETATM    7  O   UNL     1     -11.941  11.926  64.822  1.00  0.00    -0.263 OA 
HETATM    8  N   UNL     1      -9.850  11.010  64.585  1.00  0.00    -0.261 N  
HETATM    9  C   UNL     1      -9.902  11.292  63.154  1.00  0.00    -0.375 C  
HETATM   10  N   UNL     1      -8.854   9.924  66.408  1.00  0.00    -0.141 NA 
HETATM   11  C   UNL     1      -8.576  11.159  62.427  1.00  0.00    -0.307 C  
HETATM   12  C   UNL     1      -8.853  10.262  65.162  1.00  0.00    -0.184 C  
HETATM   13  C   UNL     1      -7.914   9.852  62.826  1.00  0.00    -0.134 C  
HETATM   14  H   UNL     1      -6.336  10.730  65.506  1.00  0.00     0.000 HD 
ENDROOT
BRANCH   3  15
HETATM   15  C   UNL     1     -12.213  11.401  67.513  1.00  0.00     0.727 C  
BRANCH  15  16
HETATM   16  C   UNL     1     -11.891  12.175  68.822  1.00  0.00    -0.303 C  
BRANCH  16  17
HETATM   17  N   UNL     1     -12.086  13.634  68.759  1.00  0.00    -0.348 NA 
HETATM   18  C   UNL     1      -9.754  14.393  69.183  1.00  0.00    -0.011 C  
HETATM   19  C   UNL     1     -10.605  14.481  66.833  1.00  0.00    -0.279 C  
HETATM   20  C   UNL     1     -11.207  14.399  69.647  1.00  0.00    -0.232 C  
HETATM   21  C   UNL     1      -9.633  15.121  67.837  1.00  0.00    -0.203 C  
HETATM   22  C   UNL     1     -12.013  14.179  67.387  1.00  0.00    -0.404 C  
BRANCH  21  23
HETATM   23  C   UNL     1      -9.757  16.605  68.081  1.00  0.00    -0.244 A  
HETATM   24  N   UNL     1     -10.930  17.249  68.031  1.00  0.00    -0.289 NA 
HETATM   25  O   UNL     1     -10.716  18.473  68.649  1.00  0.00    -0.049 OA 
HETATM   26  C   UNL     1      -9.415  18.569  69.037  1.00  0.00    -0.165 A  
HETATM   27  C   UNL     1      -8.736  17.437  68.623  1.00  0.00    -0.261 A  
HETATM   28  C   UNL     1      -7.361  17.324  68.907  1.00  0.00    -0.243 A  
HETATM   29  C   UNL     1      -6.743  18.359  69.619  1.00  0.00    -0.043 A  
HETATM   30  C   UNL     1      -7.481  19.462  70.049  1.00  0.00     0.460 A  
HETATM   31  C   UNL     1      -8.840  19.605  69.766  1.00  0.00     0.638 A  
HETATM   32  F   UNL     1      -6.864  20.409  70.767  1.00  0.00    -0.320 F  
ENDBRANCH  21  23
ENDBRANCH  16  17
ENDBRANCH  15  16
ENDBRANCH   3  15
TORSDOF 4
ENDMDL
MODEL      206
REMARK 921   NORMALIZED FREE ENERGY PREDICTED BY IDOCK:   -3.82 KCAL/MOL
REMARK 922        TOTAL FREE ENERGY PREDICTED BY IDOCK:   -4.98 KCAL/MOL
REMARK 923 INTER-LIGAND FREE ENERGY PREDICTED BY IDOCK:   -4.71 KCAL/MOL
REMARK 924 INTRA-LIGAND FREE ENERGY PREDICTED BY IDOCK:   -0.27 KCAL/MOL
REMARK 927      BINDING AFFINITY PREDICTED BY RF-SCORE:    0.00 PKD
ROOT
HETATM    1  C   UNL     1      -8.188  11.041  66.370  1.00  0.00    -0.166 C  
HETATM    2  C   UNL     1      -7.637  12.014  67.379  1.00  0.00    -0.151 C  
HETATM    3  C   UNL     1      -6.944  11.684  68.489  1.00  0.00    -0.085 C  
HETATM    4  C   UNL     1      -6.455  12.809  69.329  1.00  0.00    -0.105 C  
HETATM    5  O   UNL     1      -7.061  16.154  66.282  1.00  0.00    -0.039 OA 
HETATM    6  C   UNL     1      -7.887  15.709  67.355  1.00  0.00    -0.182 C  
HETATM    7  O   UNL     1      -5.829  12.579  70.365  1.00  0.00    -0.162 OA 
HETATM    8  N   UNL     1      -6.746  14.087  68.897  1.00  0.00    -0.099 N  
HETATM    9  C   UNL     1      -6.376  15.172  69.801  1.00  0.00    -0.154 C  
HETATM   10  N   UNL     1      -7.948  13.306  67.043  1.00  0.00    -0.049 NA 
HETATM   11  C   UNL     1      -6.476  16.563  69.204  1.00  0.00    -0.193 C  
HETATM   12  C   UNL     1      -7.535  14.275  67.790  1.00  0.00    -0.164 C  
HETATM   13  C   UNL     1      -7.809  16.712  68.494  1.00  0.00    -0.218 C  
HETATM   14  H   UNL     1      -7.109  15.527  65.570  1.00  0.00     0.000 HD 
ENDROOT
BRANCH   3  15
HETATM   15  C   UNL     1      -6.515  10.312  68.957  1.00  0.00    -0.045 C  
BRANCH  15  16
HETATM   16  C   UNL     1      -7.408   9.700  70.073  1.00  0.00    -0.130 C  
BRANCH  16  17
HETATM   17  N   UNL     1      -7.345   8.235  70.203  1.00  0.00    -0.055 NA 
HETATM   18  C   UNL     1      -9.756   7.736  70.566  1.00  0.00    -0.175 C  
HETATM   19  C   UNL     1      -8.791   7.276  68.304  1.00  0.00    -0.127 C  
HETATM   20  C   UNL     1      -8.336   7.666  71.120  1.00  0.00    -0.111 C  
HETATM   21  C   UNL     1      -9.870   6.854  69.314  1.00  0.00    -0.159 C  
HETATM   22  C   UNL     1      -7.394   7.527  68.906  1.00  0.00    -0.094 C  
BRANCH  21  23
HETATM   23  C   UNL     1      -9.896   5.408  69.746  1.00  0.00    -0.201 A  
HETATM   24  N   UNL     1      -9.265   4.441  69.069  1.00  0.00    -0.127 NA 
HETATM   25  O   UNL     1      -9.201   3.355  69.931  1.00  0.00    -0.120 OA 
HETATM   26  C   UNL     1      -9.819   3.664  71.104  1.00  0.00    -0.130 A  
HETATM   27  C   UNL     1     -10.356   4.936  71.010  1.00  0.00    -0.217 A  
HETATM   28  C   UNL     1     -11.058   5.463  72.110  1.00  0.00    -0.234 A  
HETATM   29  C   UNL     1     -11.163   4.682  73.267  1.00  0.00    -0.411 A  
HETATM   30  C   UNL     1     -10.570   3.421  73.326  1.00  0.00    -0.187 A  
HETATM   31  C   UNL     1      -9.884   2.869  72.243  1.00  0.00    -0.234 A  
HETATM   32  F   UNL     1     -10.653   2.722  74.466  1.00  0.00    -0.188 F  
ENDBRANCH  21  23
ENDBRANCH  16  17
ENDBRANCH  15  16
ENDBRANCH   3  15
TORSDOF 4
ENDMDL
MODEL      207
REMARK 921   NORMALIZED FREE ENERGY PREDICTED BY IDOCK:   -3.81 KCAL/MOL
REMARK 922        TOTAL FREE ENERGY PREDICTED BY IDOCK:   -4.98 KCAL/MOL
REMARK 923 INTER-LIGAND FREE ENERGY PREDICTED BY IDOCK:   -4.71 KCAL/MOL
REMARK 924 INTRA-LIGAND FREE ENERGY PREDICTED BY IDOCK:   -0.26 KCAL/MOL
REMARK 927      BINDING AFFINITY PREDICTED BY RF-SCORE:    0.00 PKD
ROOT
HETATM    1  C   UNL     1      -6.064  15.542  68.393  1.00  0.00    -0.105 C  
HETATM    2  C   UNL     1      -7.176  14.815  67.685  1.00  0.00    -0.188 C  
HETATM    3  C   UNL     1      -7.260  13.479  67.523  1.00  0.00    -0.165 C  
HETATM    4  C   UNL     1      -8.470  12.966  66.825  1.00  0.00    -0.013 C  
HETATM    5  O   UNL     1     -10.992  16.759  67.109  1.00  0.00    -0.168 OA 
HETATM    6  C   UNL     1     -10.170  16.263  66.057  1.00  0.00    -0.358 C  
HETATM    7  O   UNL     1      -8.603  11.757  66.630  1.00  0.00    -0.178 OA 
HETATM    8  N   UNL     1      -9.398  13.899  66.412  1.00  0.00    -0.245 N  
HETATM    9  C   UNL     1     -10.509  13.392  65.613  1.00  0.00    -0.290 C  
HETATM   10  N   UNL     1      -8.105  15.693  67.190  1.00  0.00    -0.194 NA 
HETATM   11  C   UNL     1     -11.637  14.381  65.385  1.00  0.00    -0.347 C  
HETATM   12  C   UNL     1      -9.142  15.239  66.569  1.00  0.00    -0.300 C  
HETATM   13  C   UNL     1     -11.056  15.715  64.949  1.00  0.00    -0.414 C  
HETATM   14  H   UNL     1     -10.439  17.102  67.802  1.00  0.00     0.000 HD 
ENDROOT
BRANCH   3  15
HETATM   15  C   UNL     1      -6.325  12.407  68.037  1.00  0.00    -0.082 C  
BRANCH  15  16
HETATM   16  C   UNL     1      -7.015  11.296  68.878  1.00  0.00    -0.099 C  
BRANCH  16  17
HETATM   17  N   UNL     1      -6.399   9.961  68.790  1.00  0.00    -0.045 NA 
HETATM   18  C   UNL     1      -8.284   8.690  67.776  1.00  0.00    -0.118 C  
HETATM   19  C   UNL     1      -6.376   9.338  66.294  1.00  0.00    -0.065 C  
HETATM   20  C   UNL     1      -7.338   8.850  68.963  1.00  0.00    -0.073 C  
HETATM   21  C   UNL     1      -7.487   8.300  66.523  1.00  0.00    -0.081 C  
HETATM   22  C   UNL     1      -5.604   9.761  67.560  1.00  0.00    -0.036 C  
BRANCH  21  23
HETATM   23  C   UNL     1      -7.076   6.853  66.647  1.00  0.00    -0.071 A  
HETATM   24  N   UNL     1      -5.819   6.480  66.918  1.00  0.00    -0.013 NA 
HETATM   25  O   UNL     1      -5.896   5.150  67.309  1.00  0.00    -0.023 OA 
HETATM   26  C   UNL     1      -7.187   4.726  67.241  1.00  0.00    -0.073 A  
HETATM   27  C   UNL     1      -7.973   5.750  66.742  1.00  0.00    -0.102 A  
HETATM   28  C   UNL     1      -9.353   5.530  66.574  1.00  0.00    -0.154 A  
HETATM   29  C   UNL     1      -9.877   4.284  66.940  1.00  0.00    -0.224 A  
HETATM   30  C   UNL     1      -9.048   3.298  67.476  1.00  0.00    -0.173 A  
HETATM   31  C   UNL     1      -7.675   3.485  67.638  1.00  0.00    -0.077 A  
HETATM   32  F   UNL     1      -9.595   2.136  67.857  1.00  0.00    -0.236 F  
ENDBRANCH  21  23
ENDBRANCH  16  17
ENDBRANCH  15  16
ENDBRANCH   3  15
TORSDOF 4
ENDMDL
MODEL      208
REMARK 921   NORMALIZED FREE ENERGY PREDICTED BY IDOCK:   -3.81 KCAL/MOL
REMARK 922        TOTAL FREE ENERGY PREDICTED BY IDOCK:   -4.97 KCAL/MOL
REMARK 923 INTER-LIGAND FREE ENERGY PREDICTED BY IDOCK:   -4.78 KCAL/MOL
REMARK 924 INTRA-LIGAND FREE ENERGY PREDICTED BY IDOCK:   -0.20 KCAL/MOL
REMARK 927      BINDING AFFINITY PREDICTED BY RF-SCORE:    0.00 PKD
ROOT
HETATM    1  C   UNL     1      -8.327  14.349  67.394  1.00  0.00    -0.216 C  
HETATM    2  C   UNL     1      -8.694  13.085  66.661  1.00  0.00    -0.019 C  
HETATM    3  C   UNL     1      -9.828  12.887  65.959  1.00  0.00    -0.256 C  
HETATM    4  C   UNL     1      -9.970  11.573  65.277  1.00  0.00    -0.260 C  
HETATM    5  O   UNL     1      -5.613  10.249  65.593  1.00  0.00    -0.064 OA 
HETATM    6  C   UNL     1      -6.740   9.949  66.411  1.00  0.00    -0.085 C  
HETATM    7  O   UNL     1     -10.988  11.320  64.632  1.00  0.00    -0.294 OA 
HETATM    8  N   UNL     1      -8.928  10.679  65.416  1.00  0.00    -0.183 N  
HETATM    9  C   UNL     1      -9.142   9.349  64.855  1.00  0.00    -0.202 C  
HETATM   10  N   UNL     1      -7.726  12.126  66.814  1.00  0.00    -0.040 NA 
HETATM   11  C   UNL     1      -7.905   8.472  64.798  1.00  0.00    -0.125 C  
HETATM   12  C   UNL     1      -7.867  10.982  66.233  1.00  0.00    -0.141 C  
HETATM   13  C   UNL     1      -7.191   8.524  66.136  1.00  0.00    -0.081 C  
HETATM   14  H   UNL     1      -5.331  11.140  65.765  1.00  0.00     0.000 HD 
ENDROOT
BRANCH   3  15
HETATM   15  C   UNL     1     -10.954  13.862  65.694  1.00  0.00    -0.290 C  
BRANCH  15  16
HETATM   16  C   UNL     1     -11.370  14.719  66.922  1.00  0.00    -0.355 C  
BRANCH  16  17
HETATM   17  N   UNL     1     -12.376  14.110  67.808  1.00  0.00    -0.154 NA 
HETATM   18  C   UNL     1     -10.922  12.556  69.098  1.00  0.00    -0.198 C  
HETATM   19  C   UNL     1     -11.658  14.669  70.214  1.00  0.00    -0.335 C  
HETATM   20  C   UNL     1     -12.110  12.711  68.153  1.00  0.00    -0.075 C  
HETATM   21  C   UNL     1     -11.243  13.208  70.450  1.00  0.00     0.687 C  
HETATM   22  C   UNL     1     -12.629  14.892  69.037  1.00  0.00     0.242 C  
BRANCH  21  23
HETATM   23  C   UNL     1     -12.207  12.319  71.195  1.00  0.00     0.004 A  
HETATM   24  N   UNL     1     -13.394  12.753  71.639  1.00  0.00    -0.332 NA 
HETATM   25  O   UNL     1     -14.129  11.612  71.930  1.00  0.00     0.474 OA 
HETATM   26  C   UNL     1     -13.372  10.506  71.691  1.00  0.00    -0.324 A  
HETATM   27  C   UNL     1     -12.106  10.901  71.300  1.00  0.00    -0.322 A  
HETATM   28  C   UNL     1     -11.143   9.916  71.009  1.00  0.00    -0.401 A  
HETATM   29  C   UNL     1     -11.518   8.571  71.109  1.00  0.00    -0.322 A  
HETATM   30  C   UNL     1     -12.820   8.224  71.469  1.00  0.00    -0.293 A  
HETATM   31  C   UNL     1     -13.788   9.181  71.778  1.00  0.00    -0.425 A  
HETATM   32  F   UNL     1     -13.154   6.928  71.509  1.00  0.00    -0.391 F  
ENDBRANCH  21  23
ENDBRANCH  16  17
ENDBRANCH  15  16
ENDBRANCH   3  15
TORSDOF 4
ENDMDL
MODEL      209
REMARK 921   NORMALIZED FREE ENERGY PREDICTED BY IDOCK:   -3.80 KCAL/MOL
REMARK 922        TOTAL FREE ENERGY PREDICTED BY IDOCK:   -4.96 KCAL/MOL
REMARK 923 INTER-LIGAND FREE ENERGY PREDICTED BY IDOCK:   -4.41 KCAL/MOL
REMARK 924 INTRA-LIGAND FREE ENERGY PREDICTED BY IDOCK:   -0.55 KCAL/MOL
REMARK 927      BINDING AFFINITY PREDICTED BY RF-SCORE:    0.00 PKD
ROOT
HETATM    1  C   UNL     1      -9.353   8.038  67.859  1.00  0.00    -0.148 C  
HETATM    2  C   UNL     1      -9.884   8.091  69.268  1.00  0.00    -0.178 C  
HETATM    3  C   UNL     1     -10.681   9.057  69.769  1.00  0.00    -0.233 C  
HETATM    4  C   UNL     1     -11.123   8.891  71.179  1.00  0.00    -0.285 C  
HETATM    5  O   UNL     1      -9.996   4.494  71.660  1.00  0.00    -0.183 OA 
HETATM    6  C   UNL     1      -9.294   5.681  72.017  1.00  0.00    -0.150 C  
HETATM    7  O   UNL     1     -11.839   9.744  71.705  1.00  0.00    -0.389 OA 
HETATM    8  N   UNL     1     -10.686   7.765  71.846  1.00  0.00    -0.218 N  
HETATM    9  C   UNL     1     -11.017   7.687  73.264  1.00  0.00    -0.274 C  
HETATM   10  N   UNL     1      -9.431   7.029  70.007  1.00  0.00    -0.161 NA 
HETATM   11  C   UNL     1     -10.748   6.341  73.912  1.00  0.00    -0.127 C  
HETATM   12  C   UNL     1      -9.806   6.905  71.237  1.00  0.00    -0.175 C  
HETATM   13  C   UNL     1      -9.359   5.866  73.524  1.00  0.00    -0.134 C  
HETATM   14  H   UNL     1      -9.956   4.379  70.718  1.00  0.00     0.000 HD 
ENDROOT
BRANCH   3  15
HETATM   15  C   UNL     1     -11.267  10.257  69.059  1.00  0.00    -0.260 C  
BRANCH  15  16
HETATM   16  C   UNL     1     -10.575  11.608  69.393  1.00  0.00     0.039 C  
BRANCH  16  17
HETATM   17  N   UNL     1     -10.152  12.407  68.231  1.00  0.00    -0.223 NA 
HETATM   18  C   UNL     1      -9.350  14.457  69.393  1.00  0.00     0.272 C  
HETATM   19  C   UNL     1      -7.636  12.851  68.533  1.00  0.00    -0.120 C  
HETATM   20  C   UNL     1     -10.331  13.852  68.393  1.00  0.00    -0.249 C  
HETATM   21  C   UNL     1      -7.916  14.327  68.859  1.00  0.00    -0.080 C  
HETATM   22  C   UNL     1      -8.770  12.118  67.789  1.00  0.00    -0.171 C  
BRANCH  21  23
HETATM   23  C   UNL     1      -7.721  15.335  67.754  1.00  0.00    -0.149 A  
HETATM   24  N   UNL     1      -7.513  14.980  66.480  1.00  0.00     0.440 NA 
HETATM   25  O   UNL     1      -7.744  16.122  65.726  1.00  0.00     0.611 OA 
HETATM   26  C   UNL     1      -8.058  17.159  66.550  1.00  0.00    -0.283 A  
HETATM   27  C   UNL     1      -7.975  16.734  67.863  1.00  0.00    -0.182 A  
HETATM   28  C   UNL     1      -8.248  17.650  68.896  1.00  0.00    -0.151 A  
HETATM   29  C   UNL     1      -8.615  18.955  68.546  1.00  0.00    -0.383 A  
HETATM   30  C   UNL     1      -8.723  19.324  67.205  1.00  0.00    -0.290 A  
HETATM   31  C   UNL     1      -8.441  18.439  66.164  1.00  0.00    -0.145 A  
HETATM   32  F   UNL     1      -9.121  20.569  66.910  1.00  0.00    -0.428 F  
ENDBRANCH  21  23
ENDBRANCH  16  17
ENDBRANCH  15  16
ENDBRANCH   3  15
TORSDOF 4
ENDMDL
MODEL      210
REMARK 921   NORMALIZED FREE ENERGY PREDICTED BY IDOCK:   -3.79 KCAL/MOL
REMARK 922        TOTAL FREE ENERGY PREDICTED BY IDOCK:   -4.94 KCAL/MOL
REMARK 923 INTER-LIGAND FREE ENERGY PREDICTED BY IDOCK:   -5.74 KCAL/MOL
REMARK 924 INTRA-LIGAND FREE ENERGY PREDICTED BY IDOCK:    0.80 KCAL/MOL
REMARK 927      BINDING AFFINITY PREDICTED BY RF-SCORE:    0.00 PKD
ROOT
HETATM    1  C   UNL     1     -11.219  11.446  64.911  1.00  0.00    -0.180 C  
HETATM    2  C   UNL     1     -10.016  11.622  65.800  1.00  0.00    -0.237 C  
HETATM    3  C   UNL     1      -9.985  12.334  66.945  1.00  0.00    -0.223 C  
HETATM    4  C   UNL     1      -8.698  12.341  67.691  1.00  0.00    -0.175 C  
HETATM    5  O   UNL     1      -6.723   8.836  65.535  1.00  0.00    -0.069 OA 
HETATM    6  C   UNL     1      -6.613  10.241  65.326  1.00  0.00    -0.119 C  
HETATM    7  O   UNL     1      -8.595  12.984  68.736  1.00  0.00    -0.010 OA 
HETATM    8  N   UNL     1      -7.656  11.615  67.151  1.00  0.00    -0.145 N  
HETATM    9  C   UNL     1      -6.367  11.742  67.823  1.00  0.00    -0.067 C  
HETATM   10  N   UNL     1      -8.922  10.976  65.285  1.00  0.00    -0.190 NA 
HETATM   11  C   UNL     1      -5.309  10.754  67.370  1.00  0.00    -0.040 C  
HETATM   12  C   UNL     1      -7.804  11.004  65.931  1.00  0.00    -0.034 C  
HETATM   13  C   UNL     1      -5.270  10.719  65.852  1.00  0.00    -0.115 C  
HETATM   14  H   UNL     1      -7.563   8.536  65.206  1.00  0.00     0.000 HD 
ENDROOT
BRANCH   3  15
HETATM   15  C   UNL     1     -11.117  13.065  67.630  1.00  0.00    -0.296 C  
BRANCH  15  16
HETATM   16  C   UNL     1     -11.589  12.422  68.965  1.00  0.00    -0.311 C  
BRANCH  16  17
HETATM   17  N   UNL     1     -11.916  10.988  68.895  1.00  0.00    -0.472 NA 
HETATM   18  C   UNL     1      -9.774  10.023  69.719  1.00  0.00    -0.259 C  
HETATM   19  C   UNL     1     -11.715  10.082  71.295  1.00  0.00    -0.452 C  
HETATM   20  C   UNL     1     -10.777  10.124  68.574  1.00  0.00    -0.230 C  
HETATM   21  C   UNL     1     -10.426   9.331  70.924  1.00  0.00    -0.372 C  
HETATM   22  C   UNL     1     -12.606  10.482  70.102  1.00  0.00    -0.178 C  
BRANCH  21  23
HETATM   23  C   UNL     1     -10.538   7.856  70.628  1.00  0.00    -0.219 A  
HETATM   24  N   UNL     1     -11.282   7.375  69.624  1.00  0.00    -0.114 NA 
HETATM   25  O   UNL     1     -10.861   6.066  69.434  1.00  0.00    -0.293 OA 
HETATM   26  C   UNL     1      -9.894   5.760  70.341  1.00  0.00    -0.186 A  
HETATM   27  C   UNL     1      -9.707   6.840  71.184  1.00  0.00    -0.181 A  
HETATM   28  C   UNL     1      -8.754   6.744  72.216  1.00  0.00    -0.130 A  
HETATM   29  C   UNL     1      -8.018   5.558  72.331  1.00  0.00    -0.103 A  
HETATM   30  C   UNL     1      -8.216   4.512  71.430  1.00  0.00    -0.100 A  
HETATM   31  C   UNL     1      -9.165   4.577  70.410  1.00  0.00    -0.194 A  
HETATM   32  F   UNL     1      -7.460   3.412  71.545  1.00  0.00    -0.043 F  
ENDBRANCH  21  23
ENDBRANCH  16  17
ENDBRANCH  15  16
ENDBRANCH   3  15
TORSDOF 4
ENDMDL
MODEL      211
REMARK 921   NORMALIZED FREE ENERGY PREDICTED BY IDOCK:   -3.74 KCAL/MOL
REMARK 922        TOTAL FREE ENERGY PREDICTED BY IDOCK:   -4.89 KCAL/MOL
REMARK 923 INTER-LIGAND FREE ENERGY PREDICTED BY IDOCK:   -4.40 KCAL/MOL
REMARK 924 INTRA-LIGAND FREE ENERGY PREDICTED BY IDOCK:   -0.49 KCAL/MOL
REMARK 927      BINDING AFFINITY PREDICTED BY RF-SCORE:    0.00 PKD
ROOT
HETATM    1  C   UNL     1      -7.452   8.553  72.054  1.00  0.00    -0.120 C  
HETATM    2  C   UNL     1      -8.159   9.273  70.936  1.00  0.00    -0.124 C  
HETATM    3  C   UNL     1      -9.448   9.096  70.582  1.00  0.00    -0.316 C  
HETATM    4  C   UNL     1      -9.958   9.944  69.471  1.00  0.00    -0.222 C  
HETATM    5  O   UNL     1      -6.562  12.994  69.427  1.00  0.00    -0.153 OA 
HETATM    6  C   UNL     1      -6.778  11.827  68.638  1.00  0.00    -0.073 C  
HETATM    7  O   UNL     1     -11.121   9.822  69.086  1.00  0.00    -0.204 OA 
HETATM    8  N   UNL     1      -9.071  10.839  68.909  1.00  0.00    -0.174 N  
HETATM    9  C   UNL     1      -9.547  11.565  67.736  1.00  0.00    -0.175 C  
HETATM   10  N   UNL     1      -7.312  10.136  70.289  1.00  0.00    -0.230 NA 
HETATM   11  C   UNL     1      -8.659  12.712  67.289  1.00  0.00    -0.196 C  
HETATM   12  C   UNL     1      -7.760  10.854  69.314  1.00  0.00    -0.099 C  
HETATM   13  C   UNL     1      -7.216  12.242  67.243  1.00  0.00    -0.138 C  
HETATM   14  H   UNL     1      -6.288  12.735  70.299  1.00  0.00     0.000 HD 
ENDROOT
BRANCH   3  15
HETATM   15  C   UNL     1     -10.487   8.203  71.223  1.00  0.00    -0.254 C  
BRANCH  15  16
HETATM   16  C   UNL     1     -10.131   6.690  71.220  1.00  0.00    -0.188 C  
BRANCH  16  17
HETATM   17  N   UNL     1     -10.392   5.981  69.956  1.00  0.00    -0.209 NA 
HETATM   18  C   UNL     1      -8.125   6.088  68.934  1.00  0.00    -0.104 C  
HETATM   19  C   UNL     1      -8.851   3.921  69.949  1.00  0.00    -0.143 C  
HETATM   20  C   UNL     1      -9.600   6.460  68.820  1.00  0.00    -0.125 C  
HETATM   21  C   UNL     1      -7.966   4.562  68.868  1.00  0.00    -0.074 C  
HETATM   22  C   UNL     1     -10.270   4.512  70.069  1.00  0.00    -0.010 C  
BRANCH  21  23
HETATM   23  C   UNL     1      -8.174   4.118  67.442  1.00  0.00    -0.099 A  
HETATM   24  N   UNL     1      -8.866   3.017  67.121  1.00  0.00    -0.131 NA 
HETATM   25  O   UNL     1      -9.152   3.131  65.767  1.00  0.00    -0.142 OA 
HETATM   26  C   UNL     1      -8.607   4.278  65.279  1.00  0.00    -0.121 A  
HETATM   27  C   UNL     1      -7.898   4.907  66.286  1.00  0.00    -0.096 A  
HETATM   28  C   UNL     1      -7.235   6.116  66.003  1.00  0.00    -0.075 A  
HETATM   29  C   UNL     1      -7.340   6.643  64.710  1.00  0.00    -0.084 A  
HETATM   30  C   UNL     1      -8.101   5.991  63.739  1.00  0.00    -0.080 A  
HETATM   31  C   UNL     1      -8.753   4.784  63.991  1.00  0.00    -0.138 A  
HETATM   32  F   UNL     1      -8.215   6.551  62.528  1.00  0.00    -0.101 F  
ENDBRANCH  21  23
ENDBRANCH  16  17
ENDBRANCH  15  16
ENDBRANCH   3  15
TORSDOF 4
ENDMDL
MODEL      212
REMARK 921   NORMALIZED FREE ENERGY PREDICTED BY IDOCK:   -3.73 KCAL/MOL
REMARK 922        TOTAL FREE ENERGY PREDICTED BY IDOCK:   -4.87 KCAL/MOL
REMARK 923 INTER-LIGAND FREE ENERGY PREDICTED BY IDOCK:   -6.23 KCAL/MOL
REMARK 924 INTRA-LIGAND FREE ENERGY PREDICTED BY IDOCK:    1.35 KCAL/MOL
REMARK 927      BINDING AFFINITY PREDICTED BY RF-SCORE:    0.00 PKD
ROOT
HETATM    1  C   UNL     1      -8.001  11.094  68.588  1.00  0.00    -0.145 C  
HETATM    2  C   UNL     1      -8.830  11.499  67.397  1.00  0.00    -0.157 C  
HETATM    3  C   UNL     1      -9.164  10.697  66.366  1.00  0.00    -0.190 C  
HETATM    4  C   UNL     1     -10.028  11.292  65.311  1.00  0.00    -0.253 C  
HETATM    5  O   UNL     1     -11.383  14.978  67.638  1.00  0.00    -0.317 OA 
HETATM    6  C   UNL     1     -10.334  14.808  66.689  1.00  0.00    -0.273 C  
HETATM    7  O   UNL     1     -10.358  10.620  64.333  1.00  0.00    -0.363 OA 
HETATM    8  N   UNL     1     -10.414  12.605  65.484  1.00  0.00    -0.276 N  
HETATM    9  C   UNL     1     -11.147  13.212  64.377  1.00  0.00    -0.381 C  
HETATM   10  N   UNL     1      -9.194  12.819  67.474  1.00  0.00    -0.183 NA 
HETATM   11  C   UNL     1     -11.772  14.559  64.686  1.00  0.00    -0.438 C  
HETATM   12  C   UNL     1      -9.928  13.331  66.543  1.00  0.00    -0.280 C  
HETATM   13  C   UNL     1     -10.747  15.445  65.371  1.00  0.00    -0.416 C  
HETATM   14  H   UNL     1     -11.125  14.580  68.462  1.00  0.00     0.000 HD 
ENDROOT
BRANCH   3  15
HETATM   15  C   UNL     1      -8.851   9.230  66.174  1.00  0.00    -0.183 C  
BRANCH  15  16
HETATM   16  C   UNL     1     -10.015   8.267  66.543  1.00  0.00    -0.250 C  
BRANCH  16  17
HETATM   17  N   UNL     1      -9.622   7.050  67.273  1.00  0.00    -0.135 NA 
HETATM   18  C   UNL     1      -9.127   8.035  69.505  1.00  0.00    -0.152 C  
HETATM   19  C   UNL     1     -11.285   6.804  69.220  1.00  0.00    -0.261 C  
HETATM   20  C   UNL     1      -8.598   7.265  68.298  1.00  0.00    -0.123 C  
HETATM   21  C   UNL     1     -10.194   7.201  70.227  1.00  0.00    -0.207 C  
HETATM   22  C   UNL     1     -10.767   6.316  67.852  1.00  0.00    -0.305 C  
BRANCH  21  23
HETATM   23  C   UNL     1      -9.507   6.092  70.985  1.00  0.00    -0.171 A  
HETATM   24  N   UNL     1      -9.814   5.783  72.251  1.00  0.00    -0.161 NA 
HETATM   25  O   UNL     1      -9.266   4.528  72.478  1.00  0.00    -0.125 OA 
HETATM   26  C   UNL     1      -8.610   4.106  71.363  1.00  0.00    -0.101 A  
HETATM   27  C   UNL     1      -8.659   5.103  70.406  1.00  0.00    -0.122 A  
HETATM   28  C   UNL     1      -8.029   4.889  69.165  1.00  0.00    -0.075 A  
HETATM   29  C   UNL     1      -7.395   3.660  68.945  1.00  0.00    -0.053 A  
HETATM   30  C   UNL     1      -7.408   2.672  69.929  1.00  0.00    -0.043 A  
HETATM   31  C   UNL     1      -8.010   2.866  71.173  1.00  0.00    -0.056 A  
HETATM   32  F   UNL     1      -6.830   1.492  69.664  1.00  0.00    -0.031 F  
ENDBRANCH  21  23
ENDBRANCH  16  17
ENDBRANCH  15  16
ENDBRANCH   3  15
TORSDOF 4
ENDMDL
MODEL      213
REMARK 921   NORMALIZED FREE ENERGY PREDICTED BY IDOCK:   -3.71 KCAL/MOL
REMARK 922        TOTAL FREE ENERGY PREDICTED BY IDOCK:   -4.85 KCAL/MOL
REMARK 923 INTER-LIGAND FREE ENERGY PREDICTED BY IDOCK:   -6.14 KCAL/MOL
REMARK 924 INTRA-LIGAND FREE ENERGY PREDICTED BY IDOCK:    1.29 KCAL/MOL
REMARK 927      BINDING AFFINITY PREDICTED BY RF-SCORE:    0.00 PKD
ROOT
HETATM    1  C   UNL     1      -9.388  15.795  65.880  1.00  0.00    -0.356 C  
HETATM    2  C   UNL     1      -8.495  16.698  66.690  1.00  0.00    -0.259 C  
HETATM    3  C   UNL     1      -8.012  16.424  67.919  1.00  0.00    -0.161 C  
HETATM    4  C   UNL     1      -7.110  17.441  68.523  1.00  0.00    -0.219 C  
HETATM    5  O   UNL     1      -6.252  19.827  64.728  1.00  0.00    -0.255 OA 
HETATM    6  C   UNL     1      -7.199  20.042  65.771  1.00  0.00    -0.309 C  
HETATM    7  O   UNL     1      -6.646  17.262  69.650  1.00  0.00    -0.227 OA 
HETATM    8  N   UNL     1      -6.844  18.568  67.773  1.00  0.00    -0.211 N  
HETATM    9  C   UNL     1      -6.069  19.613  68.434  1.00  0.00    -0.235 C  
HETATM   10  N   UNL     1      -8.243  17.870  66.026  1.00  0.00    -0.527 NA 
HETATM   11  C   UNL     1      -5.580  20.721  67.520  1.00  0.00    -0.275 C  
HETATM   12  C   UNL     1      -7.474  18.755  66.568  1.00  0.00    -0.240 C  
HETATM   13  C   UNL     1      -6.726  21.193  66.644  1.00  0.00    -0.282 C  
HETATM   14  H   UNL     1      -6.547  19.108  64.182  1.00  0.00     0.000 HD 
ENDROOT
BRANCH   3  15
HETATM   15  C   UNL     1      -8.191  15.169  68.743  1.00  0.00    -0.169 C  
BRANCH  15  16
HETATM   16  C   UNL     1      -9.338  14.236  68.261  1.00  0.00    -0.208 C  
BRANCH  16  17
HETATM   17  N   UNL     1      -8.940  13.184  67.310  1.00  0.00    -0.207 NA 
HETATM   18  C   UNL     1      -7.794  11.616  68.867  1.00  0.00    -0.040 C  
HETATM   19  C   UNL     1     -10.098  11.024  68.094  1.00  0.00    -0.195 C  
HETATM   20  C   UNL     1      -7.679  12.517  67.640  1.00  0.00    -0.151 C  
HETATM   21  C   UNL     1      -8.753  10.454  68.571  1.00  0.00    -0.135 C  
HETATM   22  C   UNL     1      -9.996  12.176  67.073  1.00  0.00    -0.202 C  
BRANCH  21  23
HETATM   23  C   UNL     1      -8.051   9.470  67.667  1.00  0.00    -0.110 A  
HETATM   24  N   UNL     1      -7.387   8.406  68.135  1.00  0.00    -0.094 NA 
HETATM   25  O   UNL     1      -7.202   7.566  67.045  1.00  0.00    -0.081 OA 
HETATM   26  C   UNL     1      -7.726   8.142  65.929  1.00  0.00    -0.091 A  
HETATM   27  C   UNL     1      -8.207   9.398  66.252  1.00  0.00    -0.111 A  
HETATM   28  C   UNL     1      -8.787  10.188  65.241  1.00  0.00    -0.201 A  
HETATM   29  C   UNL     1      -8.872   9.655  63.949  1.00  0.00    -0.255 A  
HETATM   30  C   UNL     1      -8.408   8.367  63.683  1.00  0.00    -0.045 A  
HETATM   31  C   UNL     1      -7.815   7.571  64.663  1.00  0.00    -0.130 A  
HETATM   32  F   UNL     1      -8.549   7.875  62.445  1.00  0.00    -0.162 F  
ENDBRANCH  21  23
ENDBRANCH  16  17
ENDBRANCH  15  16
ENDBRANCH   3  15
TORSDOF 4
ENDMDL
MODEL      214
REMARK 921   NORMALIZED FREE ENERGY PREDICTED BY IDOCK:   -3.67 KCAL/MOL
REMARK 922        TOTAL FREE ENERGY PREDICTED BY IDOCK:   -4.81 KCAL/MOL
REMARK 923 INTER-LIGAND FREE ENERGY PREDICTED BY IDOCK:   -4.95 KCAL/MOL
REMARK 924 INTRA-LIGAND FREE ENERGY PREDICTED BY IDOCK:    0.14 KCAL/MOL
REMARK 927      BINDING AFFINITY PREDICTED BY RF-SCORE:    0.00 PKD
ROOT
HETATM    1  C   UNL     1     -11.898  12.744  63.636  1.00  0.00    -0.603 C  
HETATM    2  C   UNL     1     -11.305  12.439  64.987  1.00  0.00    -0.320 C  
HETATM    3  C   UNL     1     -11.393  13.228  66.077  1.00  0.00    -0.329 C  
HETATM    4  C   UNL     1     -10.769  12.713  67.325  1.00  0.00    -0.237 C  
HETATM    5  O   UNL     1     -10.270   8.370  66.011  1.00  0.00    -0.417 OA 
HETATM    6  C   UNL     1      -9.352   9.459  65.998  1.00  0.00    -0.220 C  
HETATM    7  O   UNL     1     -10.798  13.390  68.353  1.00  0.00    -0.247 OA 
HETATM    8  N   UNL     1     -10.163  11.475  67.259  1.00  0.00    -0.199 N  
HETATM    9  C   UNL     1      -9.441  11.047  68.452  1.00  0.00    -0.182 C  
HETATM   10  N   UNL     1     -10.630  11.246  64.973  1.00  0.00    -0.299 NA 
HETATM   11  C   UNL     1      -9.001   9.595  68.447  1.00  0.00    -0.123 C  
HETATM   12  C   UNL     1     -10.075  10.817  66.057  1.00  0.00    -0.249 C  
HETATM   13  C   UNL     1      -8.342   9.274  67.118  1.00  0.00    -0.124 C  
HETATM   14  H   UNL     1     -10.902   8.486  65.311  1.00  0.00     0.000 HD 
ENDROOT
BRANCH   3  15
HETATM   15  C   UNL     1     -12.124  14.543  66.232  1.00  0.00    -0.311 C  
BRANCH  15  16
HETATM   16  C   UNL     1     -11.279  15.798  65.877  1.00  0.00     0.004 C  
BRANCH  16  17
HETATM   17  N   UNL     1     -10.818  16.597  67.025  1.00  0.00    -0.168 NA 
HETATM   18  C   UNL     1      -8.533  17.192  66.239  1.00  0.00    -0.279 C  
HETATM   19  C   UNL     1     -10.309  18.949  66.115  1.00  0.00    -0.517 C  
HETATM   20  C   UNL     1      -9.382  16.492  67.296  1.00  0.00    -0.222 C  
HETATM   21  C   UNL     1      -8.800  18.704  66.273  1.00  0.00    -0.227 C  
HETATM   22  C   UNL     1     -11.214  18.019  66.949  1.00  0.00     0.588 C  
BRANCH  21  23
HETATM   23  C   UNL     1      -8.121  19.284  67.490  1.00  0.00    -0.276 A  
HETATM   24  N   UNL     1      -8.504  20.439  68.048  1.00  0.00    -0.081 NA 
HETATM   25  O   UNL     1      -7.922  20.462  69.308  1.00  0.00     0.400 OA 
HETATM   26  C   UNL     1      -7.172  19.340  69.486  1.00  0.00    -0.129 A  
HETATM   27  C   UNL     1      -7.195  18.592  68.323  1.00  0.00    -0.279 A  
HETATM   28  C   UNL     1      -6.472  17.385  68.274  1.00  0.00    -0.172 A  
HETATM   29  C   UNL     1      -5.774  16.982  69.419  1.00  0.00    -0.179 A  
HETATM   30  C   UNL     1      -5.815  17.753  70.581  1.00  0.00     0.156 A  
HETATM   31  C   UNL     1      -6.510  18.960  70.650  1.00  0.00     0.532 A  
HETATM   32  F   UNL     1      -5.172  17.311  71.670  1.00  0.00    -0.238 F  
ENDBRANCH  21  23
ENDBRANCH  16  17
ENDBRANCH  15  16
ENDBRANCH   3  15
TORSDOF 4
ENDMDL
MODEL      215
REMARK 921   NORMALIZED FREE ENERGY PREDICTED BY IDOCK:   -3.65 KCAL/MOL
REMARK 922        TOTAL FREE ENERGY PREDICTED BY IDOCK:   -4.78 KCAL/MOL
REMARK 923 INTER-LIGAND FREE ENERGY PREDICTED BY IDOCK:   -5.04 KCAL/MOL
REMARK 924 INTRA-LIGAND FREE ENERGY PREDICTED BY IDOCK:    0.26 KCAL/MOL
REMARK 927      BINDING AFFINITY PREDICTED BY RF-SCORE:    0.00 PKD
ROOT
HETATM    1  C   UNL     1     -12.399  13.760  68.070  1.00  0.00     0.013 C  
HETATM    2  C   UNL     1     -11.085  14.450  67.816  1.00  0.00    -0.287 C  
HETATM    3  C   UNL     1      -9.865  13.920  68.039  1.00  0.00    -0.234 C  
HETATM    4  C   UNL     1      -8.695  14.764  67.678  1.00  0.00    -0.178 C  
HETATM    5  O   UNL     1     -10.915  17.827  65.124  1.00  0.00    -0.651 OA 
HETATM    6  C   UNL     1     -10.523  17.863  66.493  1.00  0.00    -0.313 C  
HETATM    7  O   UNL     1      -7.552  14.348  67.871  1.00  0.00    -0.120 OA 
HETATM    8  N   UNL     1      -8.960  16.008  67.142  1.00  0.00    -0.195 N  
HETATM    9  C   UNL     1      -7.806  16.872  66.920  1.00  0.00    -0.217 C  
HETATM   10  N   UNL     1     -11.278  15.722  67.341  1.00  0.00    -0.240 NA 
HETATM   11  C   UNL     1      -8.089  18.122  66.108  1.00  0.00    -0.198 C  
HETATM   12  C   UNL     1     -10.255  16.453  67.049  1.00  0.00    -0.282 C  
HETATM   13  C   UNL     1      -9.336  18.800  66.647  1.00  0.00    -0.339 C  
HETATM   14  H   UNL     1     -11.658  17.241  65.027  1.00  0.00     0.000 HD 
ENDROOT
BRANCH   3  15
HETATM   15  C   UNL     1      -9.517  12.533  68.531  1.00  0.00    -0.100 C  
BRANCH  15  16
HETATM   16  C   UNL     1     -10.605  11.457  68.256  1.00  0.00    -0.195 C  
BRANCH  16  17
HETATM   17  N   UNL     1     -10.508  10.776  66.955  1.00  0.00    -0.241 NA 
HETATM   18  C   UNL     1      -8.258   9.737  67.184  1.00  0.00    -0.121 C  
HETATM   19  C   UNL     1     -10.262   8.267  67.465  1.00  0.00    -0.309 C  
HETATM   20  C   UNL     1      -9.150  10.703  66.410  1.00  0.00    -0.164 C  
HETATM   21  C   UNL     1      -8.788   8.304  67.032  1.00  0.00    -0.146 C  
HETATM   22  C   UNL     1     -11.127   9.433  66.946  1.00  0.00     0.408 C  
BRANCH  21  23
HETATM   23  C   UNL     1      -8.455   7.814  65.645  1.00  0.00    -0.141 A  
HETATM   24  N   UNL     1      -7.716   8.526  64.785  1.00  0.00    -0.101 NA 
HETATM   25  O   UNL     1      -7.323   7.636  63.795  1.00  0.00    -0.080 OA 
HETATM   26  C   UNL     1      -7.851   6.408  64.048  1.00  0.00    -0.111 A  
HETATM   27  C   UNL     1      -8.654   6.484  65.173  1.00  0.00     0.004 A  
HETATM   28  C   UNL     1      -9.318   5.325  65.617  1.00  0.00    -0.126 A  
HETATM   29  C   UNL     1      -9.119   4.133  64.909  1.00  0.00    -0.144 A  
HETATM   30  C   UNL     1      -8.269   4.100  63.804  1.00  0.00    -0.094 A  
HETATM   31  C   UNL     1      -7.612   5.238  63.335  1.00  0.00    -0.066 A  
HETATM   32  F   UNL     1      -8.069   2.931  63.181  1.00  0.00    -0.069 F  
ENDBRANCH  21  23
ENDBRANCH  16  17
ENDBRANCH  15  16
ENDBRANCH   3  15
TORSDOF 4
ENDMDL
MODEL      216
REMARK 921   NORMALIZED FREE ENERGY PREDICTED BY IDOCK:   -3.64 KCAL/MOL
REMARK 922        TOTAL FREE ENERGY PREDICTED BY IDOCK:   -4.77 KCAL/MOL
REMARK 923 INTER-LIGAND FREE ENERGY PREDICTED BY IDOCK:   -4.79 KCAL/MOL
REMARK 924 INTRA-LIGAND FREE ENERGY PREDICTED BY IDOCK:    0.02 KCAL/MOL
REMARK 927      BINDING AFFINITY PREDICTED BY RF-SCORE:    0.00 PKD
ROOT
HETATM    1  C   UNL     1      -8.636   7.530  69.616  1.00  0.00    -0.136 C  
HETATM    2  C   UNL     1      -8.604   6.339  68.694  1.00  0.00    -0.121 C  
HETATM    3  C   UNL     1      -9.306   6.215  67.550  1.00  0.00    -0.113 C  
HETATM    4  C   UNL     1      -9.092   4.967  66.768  1.00  0.00    -0.118 C  
HETATM    5  O   UNL     1      -5.284   3.577  68.866  1.00  0.00    -0.010 OA 
HETATM    6  C   UNL     1      -6.647   3.218  69.074  1.00  0.00    -0.034 C  
HETATM    7  O   UNL     1      -9.713   4.782  65.721  1.00  0.00    -0.167 OA 
HETATM    8  N   UNL     1      -8.192   4.054  67.278  1.00  0.00    -0.098 N  
HETATM    9  C   UNL     1      -8.096   2.781  66.571  1.00  0.00    -0.082 C  
HETATM   10  N   UNL     1      -7.774   5.361  69.179  1.00  0.00    -0.088 NA 
HETATM   11  C   UNL     1      -6.936   1.900  66.995  1.00  0.00    -0.039 C  
HETATM   12  C   UNL     1      -7.610   4.274  68.502  1.00  0.00    -0.063 C  
HETATM   13  C   UNL     1      -6.887   1.827  68.510  1.00  0.00    -0.032 C  
HETATM   14  H   UNL     1      -5.134   4.447  69.218  1.00  0.00     0.000 HD 
ENDROOT
BRANCH   3  15
HETATM   15  C   UNL     1     -10.227   7.220  66.896  1.00  0.00    -0.340 C  
BRANCH  15  16
HETATM   16  C   UNL     1      -9.533   8.169  65.879  1.00  0.00    -0.012 C  
BRANCH  16  17
HETATM   17  N   UNL     1      -8.886   9.357  66.461  1.00  0.00    -0.133 NA 
HETATM   18  C   UNL     1     -10.086  11.147  65.216  1.00  0.00    -0.329 C  
HETATM   19  C   UNL     1     -10.755  10.720  67.587  1.00  0.00    -0.305 C  
HETATM   20  C   UNL     1      -8.749  10.485  65.536  1.00  0.00    -0.185 C  
HETATM   21  C   UNL     1     -10.668  11.787  66.484  1.00  0.00    -0.304 C  
HETATM   22  C   UNL     1      -9.516   9.812  67.720  1.00  0.00    -0.133 C  
BRANCH  21  23
HETATM   23  C   UNL     1      -9.891  13.044  66.788  1.00  0.00    -0.243 A  
HETATM   24  N   UNL     1      -8.685  13.293  66.261  1.00  0.00     0.221 NA 
HETATM   25  O   UNL     1      -8.458  14.648  66.460  1.00  0.00    -0.111 OA 
HETATM   26  C   UNL     1      -9.508  15.195  67.130  1.00  0.00    -0.216 A  
HETATM   27  C   UNL     1     -10.416  14.198  67.440  1.00  0.00    -0.271 A  
HETATM   28  C   UNL     1     -11.584  14.534  68.149  1.00  0.00    -0.359 A  
HETATM   29  C   UNL     1     -11.788  15.876  68.493  1.00  0.00    -0.197 A  
HETATM   30  C   UNL     1     -10.862  16.851  68.123  1.00  0.00    -0.351 A  
HETATM   31  C   UNL     1      -9.689  16.540  67.435  1.00  0.00    -0.246 A  
HETATM   32  F   UNL     1     -11.116  18.130  68.431  1.00  0.00    -0.173 F  
ENDBRANCH  21  23
ENDBRANCH  16  17
ENDBRANCH  15  16
ENDBRANCH   3  15
TORSDOF 4
ENDMDL
MODEL      217
REMARK 921   NORMALIZED FREE ENERGY PREDICTED BY IDOCK:   -3.49 KCAL/MOL
REMARK 922        TOTAL FREE ENERGY PREDICTED BY IDOCK:   -4.58 KCAL/MOL
REMARK 923 INTER-LIGAND FREE ENERGY PREDICTED BY IDOCK:   -6.90 KCAL/MOL
REMARK 924 INTRA-LIGAND FREE ENERGY PREDICTED BY IDOCK:    2.32 KCAL/MOL
REMARK 927      BINDING AFFINITY PREDICTED BY RF-SCORE:    0.00 PKD
ROOT
HETATM    1  C   UNL     1     -10.202  11.000  64.826  1.00  0.00    -0.381 C  
HETATM    2  C   UNL     1      -9.913   9.910  65.825  1.00  0.00    -0.277 C  
HETATM    3  C   UNL     1     -10.473   9.798  67.046  1.00  0.00    -0.295 C  
HETATM    4  C   UNL     1     -10.074   8.617  67.858  1.00  0.00    -0.203 C  
HETATM    5  O   UNL     1      -8.158   6.190  64.501  1.00  0.00    -0.130 OA 
HETATM    6  C   UNL     1      -7.579   7.057  65.472  1.00  0.00    -0.091 C  
HETATM    7  O   UNL     1     -10.535   8.462  68.989  1.00  0.00    -0.222 OA 
HETATM    8  N   UNL     1      -9.173   7.741  67.288  1.00  0.00    -0.136 N  
HETATM    9  C   UNL     1      -8.691   6.664  68.148  1.00  0.00    -0.117 C  
HETATM   10  N   UNL     1      -8.972   9.036  65.345  1.00  0.00    -0.204 NA 
HETATM   11  C   UNL     1      -7.905   5.580  67.435  1.00  0.00    -0.101 C  
HETATM   12  C   UNL     1      -8.618   8.024  66.066  1.00  0.00    -0.145 C  
HETATM   13  C   UNL     1      -6.872   6.222  66.527  1.00  0.00    -0.062 C  
HETATM   14  H   UNL     1      -8.600   6.711  63.841  1.00  0.00     0.000 HD 
ENDROOT
BRANCH   3  15
HETATM   15  C   UNL     1     -11.533  10.672  67.680  1.00  0.00    -0.169 C  
BRANCH  15  16
HETATM   16  C   UNL     1     -11.043  11.498  68.903  1.00  0.00    -0.232 C  
BRANCH  16  17
HETATM   17  N   UNL     1     -10.232  12.684  68.581  1.00  0.00    -0.197 NA 
HETATM   18  C   UNL     1     -11.286  13.349  66.427  1.00  0.00    -0.338 C  
HETATM   19  C   UNL     1     -11.865  14.670  68.470  1.00  0.00    -0.346 C  
HETATM   20  C   UNL     1     -10.019  12.900  67.148  1.00  0.00    -0.240 C  
HETATM   21  C   UNL     1     -11.717  14.730  66.941  1.00  0.00    -0.316 C  
HETATM   22  C   UNL     1     -10.733  13.927  69.208  1.00  0.00    -0.085 C  
BRANCH  21  23
HETATM   23  C   UNL     1     -10.784  15.768  66.370  1.00  0.00    -0.277 A  
HETATM   24  N   UNL     1     -11.085  16.488  65.281  1.00  0.00    -0.221 NA 
HETATM   25  O   UNL     1     -10.195  17.553  65.274  1.00  0.00    -0.479 OA 
HETATM   26  C   UNL     1      -9.350  17.451  66.336  1.00  0.00    -0.252 A  
HETATM   27  C   UNL     1      -9.627  16.283  67.023  1.00  0.00    -0.240 A  
HETATM   28  C   UNL     1      -8.861  15.962  68.160  1.00  0.00    -0.176 A  
HETATM   29  C   UNL     1      -7.862  16.856  68.561  1.00  0.00    -0.240 A  
HETATM   30  C   UNL     1      -7.648  18.041  67.858  1.00  0.00    -0.231 A  
HETATM   31  C   UNL     1      -8.381  18.374  66.718  1.00  0.00    -0.271 A  
HETATM   32  F   UNL     1      -6.713  18.893  68.299  1.00  0.00    -0.225 F  
ENDBRANCH  21  23
ENDBRANCH  16  17
ENDBRANCH  15  16
ENDBRANCH   3  15
TORSDOF 4
ENDMDL
MODEL      218
REMARK 921   NORMALIZED FREE ENERGY PREDICTED BY IDOCK:   -3.41 KCAL/MOL
REMARK 922        TOTAL FREE ENERGY PREDICTED BY IDOCK:   -4.48 KCAL/MOL
REMARK 923 INTER-LIGAND FREE ENERGY PREDICTED BY IDOCK:   -5.25 KCAL/MOL
REMARK 924 INTRA-LIGAND FREE ENERGY PREDICTED BY IDOCK:    0.77 KCAL/MOL
REMARK 927      BINDING AFFINITY PREDICTED BY RF-SCORE:    0.00 PKD
ROOT
HETATM    1  C   UNL     1     -10.162  11.049  64.907  1.00  0.00    -0.373 C  
HETATM    2  C   UNL     1      -9.450   9.783  65.305  1.00  0.00    -0.279 C  
HETATM    3  C   UNL     1      -9.793   8.983  66.336  1.00  0.00    -0.356 C  
HETATM    4  C   UNL     1      -8.975   7.755  66.527  1.00  0.00    -0.161 C  
HETATM    5  O   UNL     1      -6.908   7.758  62.458  1.00  0.00    -0.078 OA 
HETATM    6  C   UNL     1      -6.475   8.248  63.724  1.00  0.00    -0.072 C  
HETATM    7  O   UNL     1      -9.223   6.988  67.458  1.00  0.00    -0.124 OA 
HETATM    8  N   UNL     1      -7.946   7.541  65.633  1.00  0.00    -0.110 N  
HETATM    9  C   UNL     1      -7.073   6.406  65.915  1.00  0.00    -0.066 C  
HETATM   10  N   UNL     1      -8.372   9.544  64.493  1.00  0.00    -0.152 NA 
HETATM   11  C   UNL     1      -6.114   6.043  64.797  1.00  0.00    -0.026 C  
HETATM   12  C   UNL     1      -7.657   8.485  64.680  1.00  0.00    -0.102 C  
HETATM   13  C   UNL     1      -5.430   7.302  64.293  1.00  0.00    -0.033 C  
HETATM   14  H   UNL     1      -7.561   8.349  62.101  1.00  0.00     0.000 HD 
ENDROOT
BRANCH   3  15
HETATM   15  C   UNL     1     -10.963   9.117  67.284  1.00  0.00     0.040 C  
BRANCH  15  16
HETATM   16  C   UNL     1     -10.575   9.167  68.788  1.00  0.00    -0.181 C  
BRANCH  16  17
HETATM   17  N   UNL     1     -10.048  10.457  69.263  1.00  0.00    -0.220 NA 
HETATM   18  C   UNL     1     -11.406  12.010  67.871  1.00  0.00    -0.369 C  
HETATM   19  C   UNL     1     -12.045  11.728  70.272  1.00  0.00    -0.426 C  
HETATM   20  C   UNL     1     -10.014  11.508  68.244  1.00  0.00    -0.202 C  
HETATM   21  C   UNL     1     -12.053  12.699  69.081  1.00  0.00    -0.191 C  
HETATM   22  C   UNL     1     -10.725  10.957  70.479  1.00  0.00     0.648 C  
BRANCH  21  23
HETATM   23  C   UNL     1     -11.401  14.046  69.272  1.00  0.00    -0.273 A  
HETATM   24  N   UNL     1     -10.956  14.470  70.462  1.00  0.00     0.044 NA 
HETATM   25  O   UNL     1     -10.119  15.544  70.191  1.00  0.00    -0.298 OA 
HETATM   26  C   UNL     1     -10.091  15.777  68.851  1.00  0.00    -0.222 A  
HETATM   27  C   UNL     1     -10.959  14.902  68.222  1.00  0.00    -0.268 A  
HETATM   28  C   UNL     1     -11.102  14.970  66.823  1.00  0.00    -0.326 A  
HETATM   29  C   UNL     1     -10.339  15.912  66.123  1.00  0.00    -0.341 A  
HETATM   30  C   UNL     1      -9.448  16.745  66.799  1.00  0.00    -0.246 A  
HETATM   31  C   UNL     1      -9.300  16.708  68.186  1.00  0.00    -0.224 A  
HETATM   32  F   UNL     1      -8.702  17.602  66.089  1.00  0.00    -0.265 F  
ENDBRANCH  21  23
ENDBRANCH  16  17
ENDBRANCH  15  16
ENDBRANCH   3  15
TORSDOF 4
ENDMDL
MODEL      219
REMARK 921   NORMALIZED FREE ENERGY PREDICTED BY IDOCK:   -3.35 KCAL/MOL
REMARK 922        TOTAL FREE ENERGY PREDICTED BY IDOCK:   -4.41 KCAL/MOL
REMARK 923 INTER-LIGAND FREE ENERGY PREDICTED BY IDOCK:   -4.22 KCAL/MOL
REMARK 924 INTRA-LIGAND FREE ENERGY PREDICTED BY IDOCK:   -0.20 KCAL/MOL
REMARK 927      BINDING AFFINITY PREDICTED BY RF-SCORE:    0.00 PKD
ROOT
HETATM    1  C   UNL     1     -11.636  15.076  63.473  1.00  0.00     1.311 C  
HETATM    2  C   UNL     1     -11.414  15.597  64.869  1.00  0.00    -0.245 C  
HETATM    3  C   UNL     1     -11.786  14.973  66.006  1.00  0.00    -0.094 C  
HETATM    4  C   UNL     1     -11.431  15.648  67.283  1.00  0.00    -0.037 C  
HETATM    5  O   UNL     1      -8.406  18.616  65.586  1.00  0.00    -0.381 OA 
HETATM    6  C   UNL     1      -9.791  18.765  65.888  1.00  0.00    -0.041 C  
HETATM    7  O   UNL     1     -11.753  15.142  68.359  1.00  0.00    -0.330 OA 
HETATM    8  N   UNL     1     -10.749  16.844  67.192  1.00  0.00    -0.238 N  
HETATM    9  C   UNL     1     -10.529  17.557  68.447  1.00  0.00    -0.372 C  
HETATM   10  N   UNL     1     -10.796  16.820  64.849  1.00  0.00    -0.698 NA 
HETATM   11  C   UNL     1      -9.571  18.730  68.356  1.00  0.00    -0.409 C  
HETATM   12  C   UNL     1     -10.509  17.407  65.963  1.00  0.00    -0.276 C  
HETATM   13  C   UNL     1      -9.937  19.587  67.158  1.00  0.00    -0.487 C  
HETATM   14  H   UNL     1      -8.314  18.102  64.792  1.00  0.00     0.000 HD 
ENDROOT
BRANCH   3  15
HETATM   15  C   UNL     1     -12.445  13.622  66.167  1.00  0.00    -0.449 C  
BRANCH  15  16
HETATM   16  C   UNL     1     -12.177  12.629  65.001  1.00  0.00    -0.476 C  
BRANCH  16  17
HETATM   17  N   UNL     1     -11.308  11.486  65.330  1.00  0.00    -0.150 NA 
HETATM   18  C   UNL     1      -9.082  12.587  65.177  1.00  0.00     0.668 C  
HETATM   19  C   UNL     1     -10.016  12.146  67.454  1.00  0.00    -0.206 C  
HETATM   20  C   UNL     1     -10.011  11.498  64.650  1.00  0.00    -0.261 C  
HETATM   21  C   UNL     1      -8.721  12.301  66.641  1.00  0.00    -0.132 C  
HETATM   22  C   UNL     1     -11.113  11.295  66.783  1.00  0.00    -0.250 C  
BRANCH  21  23
HETATM   23  C   UNL     1      -7.733  11.161  66.678  1.00  0.00    -0.155 A  
HETATM   24  N   UNL     1      -6.709  11.065  65.820  1.00  0.00     0.010 NA 
HETATM   25  O   UNL     1      -5.840  10.133  66.371  1.00  0.00    -0.056 OA 
HETATM   26  C   UNL     1      -6.359   9.655  67.535  1.00  0.00    -0.064 A  
HETATM   27  C   UNL     1      -7.607  10.215  67.737  1.00  0.00    -0.090 A  
HETATM   28  C   UNL     1      -8.341   9.852  68.882  1.00  0.00    -0.124 A  
HETATM   29  C   UNL     1      -7.762   8.951  69.783  1.00  0.00    -0.078 A  
HETATM   30  C   UNL     1      -6.483   8.445  69.555  1.00  0.00    -0.040 A  
HETATM   31  C   UNL     1      -5.742   8.776  68.420  1.00  0.00    -0.038 A  
HETATM   32  F   UNL     1      -5.944   7.621  70.464  1.00  0.00    -0.029 F  
ENDBRANCH  21  23
ENDBRANCH  16  17
ENDBRANCH  15  16
ENDBRANCH   3  15
TORSDOF 4
ENDMDL
MODEL      220
REMARK 921   NORMALIZED FREE ENERGY PREDICTED BY IDOCK:   -3.03 KCAL/MOL
REMARK 922        TOTAL FREE ENERGY PREDICTED BY IDOCK:   -4.01 KCAL/MOL
REMARK 923 INTER-LIGAND FREE ENERGY PREDICTED BY IDOCK:   -6.11 KCAL/MOL
REMARK 924 INTRA-LIGAND FREE ENERGY PREDICTED BY IDOCK:    2.10 KCAL/MOL
REMARK 927      BINDING AFFINITY PREDICTED BY RF-SCORE:    0.00 PKD
ROOT
HETATM    1  C   UNL     1      -9.102   9.743  70.273  1.00  0.00    -0.208 C  
HETATM    2  C   UNL     1      -8.834   9.877  68.797  1.00  0.00    -0.136 C  
HETATM    3  C   UNL     1      -8.774  11.039  68.114  1.00  0.00    -0.141 C  
HETATM    4  C   UNL     1      -8.455  10.944  66.664  1.00  0.00    -0.151 C  
HETATM    5  O   UNL     1      -6.946   6.636  66.651  1.00  0.00    -0.063 OA 
HETATM    6  C   UNL     1      -8.226   7.177  66.337  1.00  0.00    -0.120 C  
HETATM    7  O   UNL     1      -8.400  11.965  65.977  1.00  0.00     0.063 OA 
HETATM    8  N   UNL     1      -8.243   9.681  66.149  1.00  0.00    -0.115 N  
HETATM    9  C   UNL     1      -8.066   9.597  64.704  1.00  0.00    -0.141 C  
HETATM   10  N   UNL     1      -8.678   8.649  68.209  1.00  0.00    -0.141 NA 
HETATM   11  C   UNL     1      -7.590   8.248  64.195  1.00  0.00    -0.127 C  
HETATM   12  C   UNL     1      -8.420   8.577  66.945  1.00  0.00    -0.113 C  
HETATM   13  C   UNL     1      -8.423   7.149  64.830  1.00  0.00     0.065 C  
HETATM   14  H   UNL     1      -6.822   6.653  67.593  1.00  0.00     0.000 HD 
ENDROOT
BRANCH   3  15
HETATM   15  C   UNL     1      -8.901  12.450  68.642  1.00  0.00     0.035 C  
BRANCH  15  16
HETATM   16  C   UNL     1      -9.456  13.478  67.616  1.00  0.00    -0.222 C  
BRANCH  16  17
HETATM   17  N   UNL     1      -8.858  14.822  67.680  1.00  0.00    -0.173 NA 
HETATM   18  C   UNL     1     -10.403  16.046  66.161  1.00  0.00    -0.340 C  
HETATM   19  C   UNL     1     -10.676  16.379  68.624  1.00  0.00    -0.317 C  
HETATM   20  C   UNL     1      -8.973  15.594  66.440  1.00  0.00    -0.326 C  
HETATM   21  C   UNL     1     -10.859  17.032  67.245  1.00  0.00    -0.123 C  
HETATM   22  C   UNL     1      -9.343  15.628  68.821  1.00  0.00    -0.213 C  
BRANCH  21  23
HETATM   23  C   UNL     1     -10.180  18.358  67.005  1.00  0.00    -0.379 A  
HETATM   24  N   UNL     1     -10.861  19.501  66.853  1.00  0.00    -0.464 NA 
HETATM   25  O   UNL     1      -9.932  20.520  67.019  1.00  0.00    -0.453 OA 
HETATM   26  C   UNL     1      -8.700  19.985  67.239  1.00  0.00    -0.343 A  
HETATM   27  C   UNL     1      -8.784  18.607  67.156  1.00  0.00    -0.281 A  
HETATM   28  C   UNL     1      -7.619  17.839  67.340  1.00  0.00    -0.213 A  
HETATM   29  C   UNL     1      -6.421  18.508  67.621  1.00  0.00    -0.204 A  
HETATM   30  C   UNL     1      -6.396  19.898  67.733  1.00  0.00    -0.221 A  
HETATM   31  C   UNL     1      -7.534  20.682  67.540  1.00  0.00    -0.353 A  
HETATM   32  F   UNL     1      -5.241  20.498  68.049  1.00  0.00    -0.189 F  
ENDBRANCH  21  23
ENDBRANCH  16  17
ENDBRANCH  15  16
ENDBRANCH   3  15
TORSDOF 4
ENDMDL
MODEL      221
REMARK 921   NORMALIZED FREE ENERGY PREDICTED BY IDOCK:   -3.00 KCAL/MOL
REMARK 922        TOTAL FREE ENERGY PREDICTED BY IDOCK:   -3.97 KCAL/MOL
REMARK 923 INTER-LIGAND FREE ENERGY PREDICTED BY IDOCK:   -4.52 KCAL/MOL
REMARK 924 INTRA-LIGAND FREE ENERGY PREDICTED BY IDOCK:    0.55 KCAL/MOL
REMARK 927      BINDING AFFINITY PREDICTED BY RF-SCORE:    0.00 PKD
ROOT
HETATM    1  C   UNL     1      -8.102   8.268  72.874  1.00  0.00    -0.211 C  
HETATM    2  C   UNL     1      -9.342   7.716  72.221  1.00  0.00    -0.151 C  
HETATM    3  C   UNL     1      -9.419   6.552  71.545  1.00  0.00    -0.162 C  
HETATM    4  C   UNL     1     -10.758   6.176  71.014  1.00  0.00    -0.260 C  
HETATM    5  O   UNL     1     -13.233   9.135  73.454  1.00  0.00    -0.583 OA 
HETATM    6  C   UNL     1     -12.726   9.217  72.125  1.00  0.00    -0.395 C  
HETATM    7  O   UNL     1     -10.896   5.134  70.373  1.00  0.00    -0.160 OA 
HETATM    8  N   UNL     1     -11.799   7.046  71.266  1.00  0.00    -0.311 N  
HETATM    9  C   UNL     1     -13.071   6.730  70.625  1.00  0.00     0.574 C  
HETATM   10  N   UNL     1     -10.405   8.568  72.379  1.00  0.00    -0.324 NA 
HETATM   11  C   UNL     1     -14.253   7.549  71.111  1.00  0.00    -0.297 C  
HETATM   12  C   UNL     1     -11.558   8.241  71.898  1.00  0.00    -0.315 C  
HETATM   13  C   UNL     1     -13.868   9.017  71.142  1.00  0.00    -0.128 C  
HETATM   14  H   UNL     1     -12.519   9.260  74.069  1.00  0.00     0.000 HD 
ENDROOT
BRANCH   3  15
HETATM   15  C   UNL     1      -8.338   5.518  71.322  1.00  0.00    -0.126 C  
BRANCH  15  16
HETATM   16  C   UNL     1      -6.919   6.107  71.085  1.00  0.00    -0.068 C  
BRANCH  16  17
HETATM   17  N   UNL     1      -6.493   6.183  69.677  1.00  0.00    -0.038 NA 
HETATM   18  C   UNL     1      -8.360   4.940  68.599  1.00  0.00    -0.083 C  
HETATM   19  C   UNL     1      -8.358   7.434  68.422  1.00  0.00    -0.125 C  
HETATM   20  C   UNL     1      -6.861   5.017  68.870  1.00  0.00    -0.051 C  
HETATM   21  C   UNL     1      -8.796   6.131  67.735  1.00  0.00    -0.110 C  
HETATM   22  C   UNL     1      -6.928   7.423  68.998  1.00  0.00    -0.077 C  
BRANCH  21  23
HETATM   23  C   UNL     1      -8.325   5.896  66.320  1.00  0.00    -0.117 A  
HETATM   24  N   UNL     1      -7.145   6.337  65.869  1.00  0.00    -0.065 NA 
HETATM   25  O   UNL     1      -6.905   5.641  64.692  1.00  0.00    -0.048 OA 
HETATM   26  C   UNL     1      -7.952   4.812  64.429  1.00  0.00    -0.100 A  
HETATM   27  C   UNL     1      -8.927   4.996  65.393  1.00  0.00    -0.152 A  
HETATM   28  C   UNL     1     -10.115   4.245  65.313  1.00  0.00    -0.231 A  
HETATM   29  C   UNL     1     -10.250   3.324  64.268  1.00  0.00    -0.134 A  
HETATM   30  C   UNL     1      -9.220   3.147  63.344  1.00  0.00    -0.095 A  
HETATM   31  C   UNL     1      -8.040   3.890  63.391  1.00  0.00    -0.088 A  
HETATM   32  F   UNL     1      -9.368   2.223  62.385  1.00  0.00    -0.088 F  
ENDBRANCH  21  23
ENDBRANCH  16  17
ENDBRANCH  15  16
ENDBRANCH   3  15
TORSDOF 4
ENDMDL
MODEL      222
REMARK 921   NORMALIZED FREE ENERGY PREDICTED BY IDOCK:   -2.99 KCAL/MOL
REMARK 922        TOTAL FREE ENERGY PREDICTED BY IDOCK:   -3.96 KCAL/MOL
REMARK 923 INTER-LIGAND FREE ENERGY PREDICTED BY IDOCK:   -4.48 KCAL/MOL
REMARK 924 INTRA-LIGAND FREE ENERGY PREDICTED BY IDOCK:    0.51 KCAL/MOL
REMARK 927      BINDING AFFINITY PREDICTED BY RF-SCORE:    0.00 PKD
ROOT
HETATM    1  C   UNL     1      -8.064   8.282  73.142  1.00  0.00    -0.215 C  
HETATM    2  C   UNL     1      -9.265   7.746  72.407  1.00  0.00    -0.164 C  
HETATM    3  C   UNL     1      -9.288   6.628  71.653  1.00  0.00    -0.149 C  
HETATM    4  C   UNL     1     -10.595   6.258  71.048  1.00  0.00    -0.238 C  
HETATM    5  O   UNL     1     -13.234   8.990  73.579  1.00  0.00    -0.482 OA 
HETATM    6  C   UNL     1     -12.680   9.172  72.279  1.00  0.00    -0.377 C  
HETATM    7  O   UNL     1     -10.683   5.258  70.335  1.00  0.00    -0.250 OA 
HETATM    8  N   UNL     1     -11.667   7.085  71.316  1.00  0.00    -0.298 N  
HETATM    9  C   UNL     1     -12.906   6.783  70.607  1.00  0.00     0.278 C  
HETATM   10  N   UNL     1     -10.355   8.560  72.579  1.00  0.00    -0.298 NA 
HETATM   11  C   UNL     1     -14.125   7.540  71.099  1.00  0.00    -0.290 C  
HETATM   12  C   UNL     1     -11.480   8.240  72.033  1.00  0.00    -0.334 C  
HETATM   13  C   UNL     1     -13.780   9.011  71.242  1.00  0.00    -0.246 C  
HETATM   14  H   UNL     1     -12.547   9.090  74.227  1.00  0.00     0.000 HD 
ENDROOT
BRANCH   3  15
HETATM   15  C   UNL     1      -8.173   5.636  71.405  1.00  0.00    -0.122 C  
BRANCH  15  16
HETATM   16  C   UNL     1      -6.741   6.229  71.526  1.00  0.00    -0.056 C  
BRANCH  16  17
HETATM   17  N   UNL     1      -6.078   6.546  70.250  1.00  0.00    -0.030 NA 
HETATM   18  C   UNL     1      -7.763   5.641  68.658  1.00  0.00    -0.092 C  
HETATM   19  C   UNL     1      -7.667   8.120  68.978  1.00  0.00    -0.099 C  
HETATM   20  C   UNL     1      -6.331   5.578  69.180  1.00  0.00    -0.034 C  
HETATM   21  C   UNL     1      -8.013   6.999  67.985  1.00  0.00    -0.115 C  
HETATM   22  C   UNL     1      -6.357   7.915  69.766  1.00  0.00    -0.030 C  
BRANCH  21  23
HETATM   23  C   UNL     1      -7.313   7.009  66.649  1.00  0.00    -0.080 A  
HETATM   24  N   UNL     1      -7.262   5.934  65.852  1.00  0.00    -0.074 NA 
HETATM   25  O   UNL     1      -6.879   6.405  64.604  1.00  0.00    -0.041 OA 
HETATM   26  C   UNL     1      -6.675   7.749  64.665  1.00  0.00    -0.047 A  
HETATM   27  C   UNL     1      -6.855   8.175  65.969  1.00  0.00    -0.057 A  
HETATM   28  C   UNL     1      -6.680   9.539  66.272  1.00  0.00    -0.075 A  
HETATM   29  C   UNL     1      -6.351  10.413  65.230  1.00  0.00    -0.114 A  
HETATM   30  C   UNL     1      -6.219   9.941  63.924  1.00  0.00    -0.125 A  
HETATM   31  C   UNL     1      -6.370   8.592  63.601  1.00  0.00    -0.081 A  
HETATM   32  F   UNL     1      -5.948  10.816  62.947  1.00  0.00    -0.143 F  
ENDBRANCH  21  23
ENDBRANCH  16  17
ENDBRANCH  15  16
ENDBRANCH   3  15
TORSDOF 4
ENDMDL
MODEL      223
REMARK 921   NORMALIZED FREE ENERGY PREDICTED BY IDOCK:   -2.17 KCAL/MOL
REMARK 922        TOTAL FREE ENERGY PREDICTED BY IDOCK:   -2.95 KCAL/MOL
REMARK 923 INTER-LIGAND FREE ENERGY PREDICTED BY IDOCK:   -3.55 KCAL/MOL
REMARK 924 INTRA-LIGAND FREE ENERGY PREDICTED BY IDOCK:    0.60 KCAL/MOL
REMARK 927      BINDING AFFINITY PREDICTED BY RF-SCORE:    0.00 PKD
ROOT
HETATM    1  C   UNL     1     -12.366  13.728  71.082  1.00  0.00    -0.428 C  
HETATM    2  C   UNL     1     -11.825  13.684  69.677  1.00  0.00    -0.335 C  
HETATM    3  C   UNL     1     -11.887  12.623  68.846  1.00  0.00    -0.345 C  
HETATM    4  C   UNL     1     -11.325  12.811  67.482  1.00  0.00    -0.312 C  
HETATM    5  O   UNL     1     -11.073  17.368  67.547  1.00  0.00    -0.179 OA 
HETATM    6  C   UNL     1     -10.088  16.376  67.820  1.00  0.00    -0.262 C  
HETATM    7  O   UNL     1     -11.335  11.878  66.678  1.00  0.00    -0.319 OA 
HETATM    8  N   UNL     1     -10.798  14.051  67.186  1.00  0.00    -0.283 N  
HETATM    9  C   UNL     1     -10.131  14.175  65.894  1.00  0.00    -0.321 C  
HETATM   10  N   UNL     1     -11.226  14.870  69.340  1.00  0.00    -0.268 NA 
HETATM   11  C   UNL     1      -9.784  15.596  65.487  1.00  0.00    -0.286 C  
HETATM   12  C   UNL     1     -10.724  15.016  68.159  1.00  0.00    -0.256 C  
HETATM   13  C   UNL     1      -9.116  16.303  66.653  1.00  0.00    -0.278 C  
HETATM   14  H   UNL     1     -11.681  17.413  68.276  1.00  0.00     0.000 HD 
ENDROOT
BRANCH   3  15
HETATM   15  C   UNL     1     -12.537  11.278  69.083  1.00  0.00     0.326 C  
BRANCH  15  16
HETATM   16  C   UNL     1     -11.539  10.097  69.245  1.00  0.00    -0.055 C  
BRANCH  16  17
HETATM   17  N   UNL     1     -10.957   9.583  67.994  1.00  0.00    -0.160 NA 
HETATM   18  C   UNL     1      -8.944   8.436  68.902  1.00  0.00    -0.146 C  
HETATM   19  C   UNL     1     -10.892   7.022  68.224  1.00  0.00    -0.198 C  
HETATM   20  C   UNL     1      -9.493   9.526  67.988  1.00  0.00    -0.132 C  
HETATM   21  C   UNL     1      -9.363   7.055  68.377  1.00  0.00    -0.130 C  
HETATM   22  C   UNL     1     -11.513   8.278  67.579  1.00  0.00     1.548 C  
BRANCH  21  23
HETATM   23  C   UNL     1      -8.532   6.732  67.160  1.00  0.00    -0.120 A  
HETATM   24  N   UNL     1      -7.839   7.662  66.491  1.00  0.00    -0.103 NA 
HETATM   25  O   UNL     1      -6.940   6.964  65.695  1.00  0.00    -0.060 OA 
HETATM   26  C   UNL     1      -7.119   5.627  65.867  1.00  0.00    -0.067 A  
HETATM   27  C   UNL     1      -8.181   5.419  66.729  1.00  0.00    -0.108 A  
HETATM   28  C   UNL     1      -8.557   4.100  67.044  1.00  0.00    -0.105 A  
HETATM   29  C   UNL     1      -7.821   3.049  66.485  1.00  0.00    -0.077 A  
HETATM   30  C   UNL     1      -6.733   3.310  65.653  1.00  0.00    -0.041 A  
HETATM   31  C   UNL     1      -6.351   4.608  65.312  1.00  0.00    -0.035 A  
HETATM   32  F   UNL     1      -6.025   2.278  65.174  1.00  0.00    -0.016 F  
ENDBRANCH  21  23
ENDBRANCH  16  17
ENDBRANCH  15  16
ENDBRANCH   3  15
TORSDOF 4
ENDMDL
MODEL      224
REMARK 921   NORMALIZED FREE ENERGY PREDICTED BY IDOCK:   -1.98 KCAL/MOL
REMARK 922        TOTAL FREE ENERGY PREDICTED BY IDOCK:   -2.71 KCAL/MOL
REMARK 923 INTER-LIGAND FREE ENERGY PREDICTED BY IDOCK:   -2.83 KCAL/MOL
REMARK 924 INTRA-LIGAND FREE ENERGY PREDICTED BY IDOCK:    0.12 KCAL/MOL
REMARK 927      BINDING AFFINITY PREDICTED BY RF-SCORE:    0.00 PKD
ROOT
HETATM    1  C   UNL     1      -7.893   4.826  65.811  1.00  0.00    -0.095 C  
HETATM    2  C   UNL     1      -8.702   6.076  66.039  1.00  0.00    -0.152 C  
HETATM    3  C   UNL     1      -9.700   6.211  66.936  1.00  0.00    -0.178 C  
HETATM    4  C   UNL     1     -10.341   7.550  67.024  1.00  0.00    -0.324 C  
HETATM    5  O   UNL     1      -7.162   9.900  64.742  1.00  0.00    -0.125 OA 
HETATM    6  C   UNL     1      -8.396   9.335  64.307  1.00  0.00    -0.177 C  
HETATM    7  O   UNL     1     -11.270   7.739  67.811  1.00  0.00     0.153 OA 
HETATM    8  N   UNL     1      -9.855   8.534  66.188  1.00  0.00    -0.215 N  
HETATM    9  C   UNL     1     -10.582   9.800  66.193  1.00  0.00     0.052 C  
HETATM   10  N   UNL     1      -8.312   7.080  65.190  1.00  0.00    -0.112 NA 
HETATM   11  C   UNL     1      -9.892  10.937  65.464  1.00  0.00    -0.298 C  
HETATM   12  C   UNL     1      -8.888   8.233  65.262  1.00  0.00    -0.031 C  
HETATM   13  C   UNL     1      -9.412  10.448  64.109  1.00  0.00    -0.353 C  
HETATM   14  H   UNL     1      -6.527   9.204  64.866  1.00  0.00     0.000 HD 
ENDROOT
BRANCH   3  15
HETATM   15  C   UNL     1     -10.207   5.200  67.940  1.00  0.00    -0.180 C  
BRANCH  15  16
HETATM   16  C   UNL     1      -9.361   5.100  69.241  1.00  0.00    -0.123 C  
BRANCH  16  17
HETATM   17  N   UNL     1      -8.780   6.367  69.717  1.00  0.00    -0.137 NA 
HETATM   18  C   UNL     1      -8.097   5.685  72.011  1.00  0.00    -0.112 C  
HETATM   19  C   UNL     1      -6.316   5.872  70.266  1.00  0.00    -0.032 C  
HETATM   20  C   UNL     1      -8.954   6.610  71.151  1.00  0.00    -0.145 C  
HETATM   21  C   UNL     1      -6.610   5.980  71.771  1.00  0.00    -0.055 C  
HETATM   22  C   UNL     1      -7.359   6.538  69.346  1.00  0.00    -0.092 C  
BRANCH  21  23
HETATM   23  C   UNL     1      -6.259   7.275  72.460  1.00  0.00    -0.051 A  
HETATM   24  N   UNL     1      -5.632   7.317  73.643  1.00  0.00    -0.049 NA 
HETATM   25  O   UNL     1      -5.164   8.617  73.777  1.00  0.00    -0.064 OA 
HETATM   26  C   UNL     1      -5.537   9.352  72.695  1.00  0.00     0.020 A  
HETATM   27  C   UNL     1      -6.312   8.567  71.860  1.00  0.00    -0.069 A  
HETATM   28  C   UNL     1      -6.823   9.128  70.675  1.00  0.00    -0.084 A  
HETATM   29  C   UNL     1      -6.504  10.459  70.380  1.00  0.00    -0.125 A  
HETATM   30  C   UNL     1      -5.685  11.197  71.234  1.00  0.00     0.188 A  
HETATM   31  C   UNL     1      -5.181  10.669  72.423  1.00  0.00     0.252 A  
HETATM   32  F   UNL     1      -5.366  12.453  70.895  1.00  0.00    -0.118 F  
ENDBRANCH  21  23
ENDBRANCH  16  17
ENDBRANCH  15  16
ENDBRANCH   3  15
TORSDOF 4
ENDMDL
MODEL      225
REMARK 921   NORMALIZED FREE ENERGY PREDICTED BY IDOCK:   -1.96 KCAL/MOL
REMARK 922        TOTAL FREE ENERGY PREDICTED BY IDOCK:   -2.69 KCAL/MOL
REMARK 923 INTER-LIGAND FREE ENERGY PREDICTED BY IDOCK:   -3.82 KCAL/MOL
REMARK 924 INTRA-LIGAND FREE ENERGY PREDICTED BY IDOCK:    1.13 KCAL/MOL
REMARK 927      BINDING AFFINITY PREDICTED BY RF-SCORE:    0.00 PKD
ROOT
HETATM    1  C   UNL     1      -8.894   9.384  64.494  1.00  0.00    -0.235 C  
HETATM    2  C   UNL     1      -8.579   8.250  65.434  1.00  0.00    -0.151 C  
HETATM    3  C   UNL     1      -8.714   8.284  66.776  1.00  0.00    -0.143 C  
HETATM    4  C   UNL     1      -8.385   7.034  67.511  1.00  0.00    -0.119 C  
HETATM    5  O   UNL     1      -8.373   4.204  63.930  1.00  0.00    -0.091 OA 
HETATM    6  C   UNL     1      -7.305   4.877  64.590  1.00  0.00    -0.063 C  
HETATM    7  O   UNL     1      -8.471   7.001  68.739  1.00  0.00    -0.121 OA 
HETATM    8  N   UNL     1      -7.979   5.952  66.758  1.00  0.00    -0.101 N  
HETATM    9  C   UNL     1      -7.532   4.780  67.504  1.00  0.00    -0.079 C  
HETATM   10  N   UNL     1      -8.106   7.159  64.753  1.00  0.00    -0.118 NA 
HETATM   11  C   UNL     1      -7.331   3.529  66.669  1.00  0.00    -0.075 C  
HETATM   12  C   UNL     1      -7.805   6.084  65.403  1.00  0.00    -0.104 C  
HETATM   13  C   UNL     1      -6.527   3.876  65.429  1.00  0.00    -0.032 C  
HETATM   14  H   UNL     1      -8.859   4.829  63.406  1.00  0.00     0.000 HD 
ENDROOT
BRANCH   3  15
HETATM   15  C   UNL     1      -9.245   9.406  67.640  1.00  0.00    -0.142 C  
BRANCH  15  16
HETATM   16  C   UNL     1      -8.757  10.824  67.231  1.00  0.00    -0.130 C  
BRANCH  16  17
HETATM   17  N   UNL     1      -9.266  11.932  68.058  1.00  0.00    -0.184 NA 
HETATM   18  C   UNL     1      -8.245  13.860  66.861  1.00  0.00     0.039 C  
HETATM   19  C   UNL     1     -10.679  13.412  66.498  1.00  0.00    -0.287 C  
HETATM   20  C   UNL     1      -8.355  13.074  68.164  1.00  0.00    -0.164 C  
HETATM   21  C   UNL     1      -9.598  14.504  66.525  1.00  0.00    -0.311 C  
HETATM   22  C   UNL     1     -10.611  12.396  67.657  1.00  0.00    -0.216 C  
BRANCH  21  23
HETATM   23  C   UNL     1      -9.813  15.678  67.447  1.00  0.00    -0.225 A  
HETATM   24  N   UNL     1      -9.800  16.946  67.018  1.00  0.00    -0.262 NA 
HETATM   25  O   UNL     1     -10.380  17.696  68.032  1.00  0.00    -0.339 OA 
HETATM   26  C   UNL     1     -10.709  16.882  69.072  1.00  0.00    -0.308 A  
HETATM   27  C   UNL     1     -10.291  15.594  68.787  1.00  0.00    -0.218 A  
HETATM   28  C   UNL     1     -10.518  14.578  69.735  1.00  0.00     0.049 A  
HETATM   29  C   UNL     1     -11.179  14.913  70.923  1.00  0.00    -0.203 A  
HETATM   30  C   UNL     1     -11.615  16.219  71.145  1.00  0.00    -0.328 A  
HETATM   31  C   UNL     1     -11.388  17.247  70.229  1.00  0.00     1.341 A  
HETATM   32  F   UNL     1     -12.285  16.491  72.274  1.00  0.00    -0.500 F  
ENDBRANCH  21  23
ENDBRANCH  16  17
ENDBRANCH  15  16
ENDBRANCH   3  15
TORSDOF 4
ENDMDL
MODEL      226
REMARK 921   NORMALIZED FREE ENERGY PREDICTED BY IDOCK:   -1.77 KCAL/MOL
REMARK 922        TOTAL FREE ENERGY PREDICTED BY IDOCK:   -2.45 KCAL/MOL
REMARK 923 INTER-LIGAND FREE ENERGY PREDICTED BY IDOCK:   -2.09 KCAL/MOL
REMARK 924 INTRA-LIGAND FREE ENERGY PREDICTED BY IDOCK:   -0.36 KCAL/MOL
REMARK 927      BINDING AFFINITY PREDICTED BY RF-SCORE:    0.00 PKD
ROOT
HETATM    1  C   UNL     1     -11.832   6.430  69.766  1.00  0.00    -0.071 C  
HETATM    2  C   UNL     1     -10.742   6.035  68.803  1.00  0.00    -0.308 C  
HETATM    3  C   UNL     1      -9.980   6.888  68.090  1.00  0.00    -0.170 C  
HETATM    4  C   UNL     1      -8.930   6.283  67.227  1.00  0.00    -0.113 C  
HETATM    5  O   UNL     1      -8.966   2.104  69.061  1.00  0.00    -0.085 OA 
HETATM    6  C   UNL     1      -9.622   2.621  67.907  1.00  0.00    -0.015 C  
HETATM    7  O   UNL     1      -8.208   7.004  66.537  1.00  0.00    -0.107 OA 
HETATM    8  N   UNL     1      -8.826   4.907  67.237  1.00  0.00    -0.103 N  
HETATM    9  C   UNL     1      -7.885   4.326  66.286  1.00  0.00    -0.095 C  
HETATM   10  N   UNL     1     -10.629   4.671  68.716  1.00  0.00     0.368 NA 
HETATM   11  C   UNL     1      -7.605   2.848  66.485  1.00  0.00    -0.076 C  
HETATM   12  C   UNL     1      -9.727   4.156  67.949  1.00  0.00    -0.102 C  
HETATM   13  C   UNL     1      -8.918   2.106  66.662  1.00  0.00    -0.122 C  
HETATM   14  H   UNL     1      -9.406   2.425  69.840  1.00  0.00     0.000 HD 
ENDROOT
BRANCH   3  15
HETATM   15  C   UNL     1      -9.985   8.400  68.113  1.00  0.00    -0.224 C  
BRANCH  15  16
HETATM   16  C   UNL     1      -8.728   9.042  68.766  1.00  0.00    -0.136 C  
BRANCH  16  17
HETATM   17  N   UNL     1      -8.135  10.167  68.025  1.00  0.00    -0.111 NA 
HETATM   18  C   UNL     1      -9.656  12.001  68.746  1.00  0.00     0.004 C  
HETATM   19  C   UNL     1      -7.386  11.883  69.790  1.00  0.00     0.617 C  
HETATM   20  C   UNL     1      -9.100  11.179  67.587  1.00  0.00    -0.147 C  
HETATM   21  C   UNL     1      -8.530  12.826  69.386  1.00  0.00     1.161 C  
HETATM   22  C   UNL     1      -7.014  10.817  68.740  1.00  0.00    -0.075 C  
BRANCH  21  23
HETATM   23  C   UNL     1      -8.196  13.976  68.469  1.00  0.00    -0.136 A  
HETATM   24  N   UNL     1      -7.237  13.903  67.538  1.00  0.00    -0.177 NA 
HETATM   25  O   UNL     1      -7.461  14.969  66.678  1.00  0.00     0.094 OA 
HETATM   26  C   UNL     1      -8.530  15.690  67.112  1.00  0.00    -0.207 A  
HETATM   27  C   UNL     1      -8.987  15.150  68.301  1.00  0.00    -0.175 A  
HETATM   28  C   UNL     1     -10.088  15.748  68.944  1.00  0.00    -0.222 A  
HETATM   29  C   UNL     1     -10.689  16.857  68.337  1.00  0.00    -0.368 A  
HETATM   30  C   UNL     1     -10.215  17.340  67.117  1.00  0.00    -0.319 A  
HETATM   31  C   UNL     1      -9.116  16.776  66.469  1.00  0.00    -0.302 A  
HETATM   32  F   UNL     1     -10.845  18.375  66.545  1.00  0.00    -0.368 F  
ENDBRANCH  21  23
ENDBRANCH  16  17
ENDBRANCH  15  16
ENDBRANCH   3  15
TORSDOF 4
ENDMDL
MODEL      227
REMARK 921   NORMALIZED FREE ENERGY PREDICTED BY IDOCK:   -1.64 KCAL/MOL
REMARK 922        TOTAL FREE ENERGY PREDICTED BY IDOCK:   -2.30 KCAL/MOL
REMARK 923 INTER-LIGAND FREE ENERGY PREDICTED BY IDOCK:   -3.05 KCAL/MOL
REMARK 924 INTRA-LIGAND FREE ENERGY PREDICTED BY IDOCK:    0.75 KCAL/MOL
REMARK 927      BINDING AFFINITY PREDICTED BY RF-SCORE:    0.00 PKD
ROOT
HETATM    1  C   UNL     1      -8.318   8.024  74.498  1.00  0.00    -0.190 C  
HETATM    2  C   UNL     1      -9.432   7.441  73.668  1.00  0.00    -0.272 C  
HETATM    3  C   UNL     1      -9.553   6.144  73.319  1.00  0.00    -0.148 C  
HETATM    4  C   UNL     1     -10.757   5.776  72.528  1.00  0.00    -0.237 C  
HETATM    5  O   UNL     1     -13.168   9.578  73.282  1.00  0.00    -0.249 OA 
HETATM    6  C   UNL     1     -12.333   9.205  72.189  1.00  0.00    -0.354 C  
HETATM    7  O   UNL     1     -10.922   4.612  72.162  1.00  0.00    -0.048 OA 
HETATM    8  N   UNL     1     -11.645   6.789  72.228  1.00  0.00    -0.278 N  
HETATM    9  C   UNL     1     -12.747   6.438  71.340  1.00  0.00     0.178 C  
HETATM   10  N   UNL     1     -10.319   8.412  73.280  1.00  0.00     0.253 NA 
HETATM   11  C   UNL     1     -13.837   7.487  71.226  1.00  0.00    -0.359 C  
HETATM   12  C   UNL     1     -11.351   8.084  72.577  1.00  0.00    -0.406 C  
HETATM   13  C   UNL     1     -13.203   8.848  70.996  1.00  0.00    -0.002 C  
HETATM   14  H   UNL     1     -12.624   9.802  74.028  1.00  0.00     0.000 HD 
ENDROOT
BRANCH   3  15
HETATM   15  C   UNL     1      -8.666   4.980  73.700  1.00  0.00    -0.106 C  
BRANCH  15  16
HETATM   16  C   UNL     1      -7.160   5.335  73.851  1.00  0.00    -0.082 C  
BRANCH  16  17
HETATM   17  N   UNL     1      -6.341   5.150  72.642  1.00  0.00    -0.038 NA 
HETATM   18  C   UNL     1      -7.939   3.855  71.240  1.00  0.00    -0.067 C  
HETATM   19  C   UNL     1      -7.622   6.280  70.719  1.00  0.00    -0.096 C  
HETATM   20  C   UNL     1      -6.582   3.889  71.937  1.00  0.00    -0.015 C  
HETATM   21  C   UNL     1      -7.978   4.908  70.124  1.00  0.00    -0.073 C  
HETATM   22  C   UNL     1      -6.427   6.281  71.694  1.00  0.00    -0.053 C  
BRANCH  21  23
HETATM   23  C   UNL     1      -7.148   4.412  68.966  1.00  0.00    -0.051 A  
HETATM   24  N   UNL     1      -6.966   3.109  68.714  1.00  0.00    -0.048 NA 
HETATM   25  O   UNL     1      -6.482   3.040  67.415  1.00  0.00    -0.035 OA 
HETATM   26  C   UNL     1      -6.348   4.295  66.908  1.00  0.00    -0.040 A  
HETATM   27  C   UNL     1      -6.679   5.216  67.886  1.00  0.00    -0.055 A  
HETATM   28  C   UNL     1      -6.601   6.589  67.586  1.00  0.00    -0.061 A  
HETATM   29  C   UNL     1      -6.209   6.965  66.296  1.00  0.00    -0.045 A  
HETATM   30  C   UNL     1      -5.924   5.998  65.332  1.00  0.00    -0.025 A  
HETATM   31  C   UNL     1      -5.978   4.632  65.609  1.00  0.00    -0.023 A  
HETATM   32  F   UNL     1      -5.598   6.397  64.096  1.00  0.00    -0.020 F  
ENDBRANCH  21  23
ENDBRANCH  16  17
ENDBRANCH  15  16
ENDBRANCH   3  15
TORSDOF 4
ENDMDL
MODEL      228
REMARK 921   NORMALIZED FREE ENERGY PREDICTED BY IDOCK:   -1.35 KCAL/MOL
REMARK 922        TOTAL FREE ENERGY PREDICTED BY IDOCK:   -1.94 KCAL/MOL
REMARK 923 INTER-LIGAND FREE ENERGY PREDICTED BY IDOCK:   -3.59 KCAL/MOL
REMARK 924 INTRA-LIGAND FREE ENERGY PREDICTED BY IDOCK:    1.65 KCAL/MOL
REMARK 927      BINDING AFFINITY PREDICTED BY RF-SCORE:    0.00 PKD
ROOT
HETATM    1  C   UNL     1      -8.461   8.499  64.997  1.00  0.00    -0.183 C  
HETATM    2  C   UNL     1      -8.823   8.060  66.392  1.00  0.00    -0.157 C  
HETATM    3  C   UNL     1      -9.293   8.863  67.369  1.00  0.00    -0.165 C  
HETATM    4  C   UNL     1      -9.627   8.213  68.664  1.00  0.00    -0.149 C  
HETATM    5  O   UNL     1      -9.631   3.892  67.194  1.00  0.00    -0.196 OA 
HETATM    6  C   UNL     1      -8.615   4.657  67.837  1.00  0.00    -0.103 C  
HETATM    7  O   UNL     1     -10.045   8.890  69.604  1.00  0.00    -0.189 OA 
HETATM    8  N   UNL     1      -9.433   6.849  68.750  1.00  0.00    -0.136 N  
HETATM    9  C   UNL     1      -9.637   6.251  70.065  1.00  0.00    -0.158 C  
HETATM   10  N   UNL     1      -8.591   6.720  66.566  1.00  0.00    -0.123 NA 
HETATM   11  C   UNL     1      -9.663   4.734  70.081  1.00  0.00    -0.288 C  
HETATM   12  C   UNL     1      -8.866   6.169  67.701  1.00  0.00    -0.103 C  
HETATM   13  C   UNL     1      -8.487   4.202  69.281  1.00  0.00    -0.099 C  
HETATM   14  H   UNL     1      -9.711   4.175  66.291  1.00  0.00     0.000 HD 
ENDROOT
BRANCH   3  15
HETATM   15  C   UNL     1      -9.615  10.339  67.301  1.00  0.00    -0.186 C  
BRANCH  15  16
HETATM   16  C   UNL     1      -8.389  11.257  67.032  1.00  0.00    -0.153 C  
BRANCH  16  17
HETATM   17  N   UNL     1      -7.922  12.044  68.185  1.00  0.00    -0.144 NA 
HETATM   18  C   UNL     1      -6.000  13.231  67.140  1.00  0.00     0.460 C  
HETATM   19  C   UNL     1      -8.115  14.517  67.501  1.00  0.00    -0.204 C  
HETATM   20  C   UNL     1      -6.474  12.264  68.221  1.00  0.00    -0.056 C  
HETATM   21  C   UNL     1      -6.585  14.627  67.398  1.00  0.00     0.010 C  
HETATM   22  C   UNL     1      -8.630  13.333  68.344  1.00  0.00    -0.130 C  
BRANCH  21  23
HETATM   23  C   UNL     1      -5.850  15.250  68.558  1.00  0.00    -0.097 A  
HETATM   24  N   UNL     1      -5.551  16.554  68.608  1.00  0.00    -0.116 NA 
HETATM   25  O   UNL     1      -5.223  16.817  69.932  1.00  0.00    -0.153 OA 
HETATM   26  C   UNL     1      -5.297  15.669  70.658  1.00  0.00    -0.148 A  
HETATM   27  C   UNL     1      -5.611  14.619  69.814  1.00  0.00    -0.099 A  
HETATM   28  C   UNL     1      -5.728  13.322  70.351  1.00  0.00    -0.171 A  
HETATM   29  C   UNL     1      -5.541  13.156  71.728  1.00  0.00     0.117 A  
HETATM   30  C   UNL     1      -5.265  14.253  72.544  1.00  0.00    -0.212 A  
HETATM   31  C   UNL     1      -5.128  15.544  72.034  1.00  0.00     0.005 A  
HETATM   32  F   UNL     1      -5.139  14.059  73.863  1.00  0.00    -0.265 F  
ENDBRANCH  21  23
ENDBRANCH  16  17
ENDBRANCH  15  16
ENDBRANCH   3  15
TORSDOF 4
ENDMDL
MODEL      229
REMARK 921   NORMALIZED FREE ENERGY PREDICTED BY IDOCK:   -1.34 KCAL/MOL
REMARK 922        TOTAL FREE ENERGY PREDICTED BY IDOCK:   -1.93 KCAL/MOL
REMARK 923 INTER-LIGAND FREE ENERGY PREDICTED BY IDOCK:   -2.95 KCAL/MOL
REMARK 924 INTRA-LIGAND FREE ENERGY PREDICTED BY IDOCK:    1.02 KCAL/MOL
REMARK 927      BINDING AFFINITY PREDICTED BY RF-SCORE:    0.00 PKD
ROOT
HETATM    1  C   UNL     1     -12.278  16.568  67.192  1.00  0.00     2.105 C  
HETATM    2  C   UNL     1     -11.000  16.122  67.852  1.00  0.00    -0.318 C  
HETATM    3  C   UNL     1     -10.724  14.865  68.257  1.00  0.00    -0.249 C  
HETATM    4  C   UNL     1      -9.380  14.635  68.850  1.00  0.00    -0.160 C  
HETATM    5  O   UNL     1      -7.423  18.514  67.451  1.00  0.00    -0.216 OA 
HETATM    6  C   UNL     1      -8.033  18.172  68.692  1.00  0.00    -0.288 C  
HETATM    7  O   UNL     1      -9.069  13.515  69.256  1.00  0.00     0.433 OA 
HETATM    8  N   UNL     1      -8.534  15.722  68.927  1.00  0.00    -0.201 N  
HETATM    9  C   UNL     1      -7.274  15.509  69.632  1.00  0.00    -0.169 C  
HETATM   10  N   UNL     1     -10.135  17.173  68.019  1.00  0.00    -0.295 NA 
HETATM   11  C   UNL     1      -6.263  16.631  69.489  1.00  0.00    -0.220 C  
HETATM   12  C   UNL     1      -8.978  16.966  68.552  1.00  0.00    -0.254 C  
HETATM   13  C   UNL     1      -6.950  17.962  69.738  1.00  0.00     0.310 C  
HETATM   14  H   UNL     1      -8.100  18.645  66.796  1.00  0.00     0.000 HD 
ENDROOT
BRANCH   3  15
HETATM   15  C   UNL     1     -11.572  13.621  68.110  1.00  0.00    -0.367 C  
BRANCH  15  16
HETATM   16  C   UNL     1     -11.009  12.568  67.115  1.00  0.00    -0.263 C  
BRANCH  16  17
HETATM   17  N   UNL     1     -10.083  11.581  67.695  1.00  0.00    -0.182 NA 
HETATM   18  C   UNL     1     -10.819   9.540  66.474  1.00  0.00     0.102 C  
HETATM   19  C   UNL     1      -8.701  10.646  65.737  1.00  0.00    -0.192 C  
HETATM   20  C   UNL     1     -10.641  10.232  67.823  1.00  0.00    -0.250 C  
HETATM   21  C   UNL     1      -9.449   9.306  65.824  1.00  0.00    -0.329 C  
HETATM   22  C   UNL     1      -8.777  11.522  67.004  1.00  0.00    -0.169 C  
BRANCH  21  23
HETATM   23  C   UNL     1      -8.764   8.169  66.542  1.00  0.00    -0.143 A  
HETATM   24  N   UNL     1      -7.438   8.123  66.723  1.00  0.00    -0.089 NA 
HETATM   25  O   UNL     1      -7.223   7.166  67.704  1.00  0.00    -0.085 OA 
HETATM   26  C   UNL     1      -8.412   6.623  68.083  1.00  0.00    -0.116 A  
HETATM   27  C   UNL     1      -9.423   7.167  67.312  1.00  0.00    -0.169 A  
HETATM   28  C   UNL     1     -10.748   6.740  67.523  1.00  0.00    -0.381 A  
HETATM   29  C   UNL     1     -10.988   5.793  68.525  1.00  0.00    -0.174 A  
HETATM   30  C   UNL     1      -9.939   5.304  69.303  1.00  0.00    -0.215 A  
HETATM   31  C   UNL     1      -8.616   5.699  69.103  1.00  0.00    -0.105 A  
HETATM   32  F   UNL     1     -10.215   4.433  70.283  1.00  0.00    -0.297 F  
ENDBRANCH  21  23
ENDBRANCH  16  17
ENDBRANCH  15  16
ENDBRANCH   3  15
TORSDOF 4
ENDMDL
MODEL      230
REMARK 921   NORMALIZED FREE ENERGY PREDICTED BY IDOCK:   -1.27 KCAL/MOL
REMARK 922        TOTAL FREE ENERGY PREDICTED BY IDOCK:   -1.84 KCAL/MOL
REMARK 923 INTER-LIGAND FREE ENERGY PREDICTED BY IDOCK:   -2.88 KCAL/MOL
REMARK 924 INTRA-LIGAND FREE ENERGY PREDICTED BY IDOCK:    1.04 KCAL/MOL
REMARK 927      BINDING AFFINITY PREDICTED BY RF-SCORE:    0.00 PKD
ROOT
HETATM    1  C   UNL     1      -7.711   8.510  73.959  1.00  0.00    -0.135 C  
HETATM    2  C   UNL     1      -8.762   7.862  73.097  1.00  0.00    -0.220 C  
HETATM    3  C   UNL     1      -8.630   6.685  72.452  1.00  0.00    -0.124 C  
HETATM    4  C   UNL     1      -9.812   6.208  71.685  1.00  0.00    -0.169 C  
HETATM    5  O   UNL     1     -12.904   9.024  73.515  1.00  0.00    -0.053 OA 
HETATM    6  C   UNL     1     -12.154   9.120  72.307  1.00  0.00    -0.241 C  
HETATM    7  O   UNL     1      -9.755   5.148  71.060  1.00  0.00    -0.164 OA 
HETATM    8  N   UNL     1     -10.937   7.006  71.707  1.00  0.00    -0.231 N  
HETATM    9  C   UNL     1     -12.037   6.591  70.842  1.00  0.00    -0.230 C  
HETATM   10  N   UNL     1      -9.889   8.639  73.021  1.00  0.00     0.049 NA 
HETATM   11  C   UNL     1     -13.342   7.333  71.067  1.00  0.00    -0.148 C  
HETATM   12  C   UNL     1     -10.903   8.225  72.337  1.00  0.00    -0.351 C  
HETATM   13  C   UNL     1     -13.069   8.825  71.129  1.00  0.00    -0.110 C  
HETATM   14  H   UNL     1     -12.332   9.208  74.252  1.00  0.00     0.000 HD 
ENDROOT
BRANCH   3  15
HETATM   15  C   UNL     1      -7.461   5.726  72.473  1.00  0.00    -0.096 C  
BRANCH  15  16
HETATM   16  C   UNL     1      -6.064   6.408  72.445  1.00  0.00    -0.039 C  
BRANCH  16  17
HETATM   17  N   UNL     1      -5.401   6.441  71.131  1.00  0.00    -0.018 NA 
HETATM   18  C   UNL     1      -7.259   5.613  69.697  1.00  0.00    -0.065 C  
HETATM   19  C   UNL     1      -6.763   8.065  69.672  1.00  0.00    -0.038 C  
HETATM   20  C   UNL     1      -5.839   5.391  70.207  1.00  0.00    -0.020 C  
HETATM   21  C   UNL     1      -7.313   6.891  68.847  1.00  0.00    -0.094 C  
HETATM   22  C   UNL     1      -5.476   7.760  70.466  1.00  0.00    -0.023 C  
BRANCH  21  23
HETATM   23  C   UNL     1      -6.665   6.609  67.514  1.00  0.00    -0.067 A  
HETATM   24  N   UNL     1      -5.790   7.448  66.945  1.00  0.00    -0.033 NA 
HETATM   25  O   UNL     1      -5.151   6.714  65.955  1.00  0.00    -0.016 OA 
HETATM   26  C   UNL     1      -5.665   5.454  65.915  1.00  0.00    -0.017 A  
HETATM   27  C   UNL     1      -6.695   5.357  66.833  1.00  0.00    -0.062 A  
HETATM   28  C   UNL     1      -7.386   4.137  66.957  1.00  0.00    -0.073 A  
HETATM   29  C   UNL     1      -6.983   3.062  66.156  1.00  0.00    -0.057 A  
HETATM   30  C   UNL     1      -5.912   3.199  65.273  1.00  0.00    -0.019 A  
HETATM   31  C   UNL     1      -5.223   4.402  65.120  1.00  0.00    -0.009 A  
HETATM   32  F   UNL     1      -5.528   2.134  64.557  1.00  0.00    -0.007 F  
ENDBRANCH  21  23
ENDBRANCH  16  17
ENDBRANCH  15  16
ENDBRANCH   3  15
TORSDOF 4
ENDMDL
MODEL      231
REMARK 921   NORMALIZED FREE ENERGY PREDICTED BY IDOCK:   -1.24 KCAL/MOL
REMARK 922        TOTAL FREE ENERGY PREDICTED BY IDOCK:   -1.81 KCAL/MOL
REMARK 923 INTER-LIGAND FREE ENERGY PREDICTED BY IDOCK:   -3.02 KCAL/MOL
REMARK 924 INTRA-LIGAND FREE ENERGY PREDICTED BY IDOCK:    1.21 KCAL/MOL
REMARK 927      BINDING AFFINITY PREDICTED BY RF-SCORE:    0.00 PKD
ROOT
HETATM    1  C   UNL     1      -8.450   7.903  74.070  1.00  0.00    -0.321 C  
HETATM    2  C   UNL     1      -9.647   7.504  73.246  1.00  0.00    -0.254 C  
HETATM    3  C   UNL     1      -9.917   6.257  72.810  1.00  0.00    -0.183 C  
HETATM    4  C   UNL     1     -11.179   6.077  72.044  1.00  0.00    -0.288 C  
HETATM    5  O   UNL     1     -13.144  10.041  73.166  1.00  0.00     0.207 OA 
HETATM    6  C   UNL     1     -12.390   9.667  72.016  1.00  0.00    -0.298 C  
HETATM    7  O   UNL     1     -11.479   4.967  71.602  1.00  0.00     0.296 OA 
HETATM    8  N   UNL     1     -11.962   7.197  71.854  1.00  0.00    -0.295 N  
HETATM    9  C   UNL     1     -13.125   7.030  70.988  1.00  0.00    -0.092 C  
HETATM   10  N   UNL     1     -10.438   8.588  72.965  1.00  0.00     0.122 NA 
HETATM   11  C   UNL     1     -14.099   8.193  70.994  1.00  0.00    -0.052 C  
HETATM   12  C   UNL     1     -11.521   8.424  72.282  1.00  0.00    -0.384 C  
HETATM   13  C   UNL     1     -13.332   9.493  70.836  1.00  0.00    -0.134 C  
HETATM   14  H   UNL     1     -12.556  10.149  73.904  1.00  0.00     0.000 HD 
ENDROOT
BRANCH   3  15
HETATM   15  C   UNL     1      -9.147   4.981  73.070  1.00  0.00    -0.128 C  
BRANCH  15  16
HETATM   16  C   UNL     1      -7.607   5.163  73.169  1.00  0.00    -0.096 C  
BRANCH  16  17
HETATM   17  N   UNL     1      -6.870   5.021  71.902  1.00  0.00    -0.051 NA 
HETATM   18  C   UNL     1      -7.815   2.862  71.100  1.00  0.00    -0.047 C  
HETATM   19  C   UNL     1      -8.639   4.970  70.035  1.00  0.00    -0.111 C  
HETATM   20  C   UNL     1      -6.571   3.636  71.529  1.00  0.00    -0.022 C  
HETATM   21  C   UNL     1      -8.388   3.470  69.812  1.00  0.00    -0.080 C  
HETATM   22  C   UNL     1      -7.509   5.721  70.767  1.00  0.00    -0.090 C  
BRANCH  21  23
HETATM   23  C   UNL     1      -7.500   3.075  68.658  1.00  0.00    -0.049 A  
HETATM   24  N   UNL     1      -6.262   2.596  68.831  1.00  0.00    -0.028 NA 
HETATM   25  O   UNL     1      -5.908   2.017  67.620  1.00  0.00    -0.018 OA 
HETATM   26  C   UNL     1      -6.919   2.178  66.722  1.00  0.00    -0.044 A  
HETATM   27  C   UNL     1      -7.928   2.922  67.307  1.00  0.00    -0.077 A  
HETATM   28  C   UNL     1      -9.077   3.224  66.553  1.00  0.00    -0.173 A  
HETATM   29  C   UNL     1      -9.158   2.737  65.243  1.00  0.00    -0.148 A  
HETATM   30  C   UNL     1      -8.131   1.958  64.712  1.00  0.00    -0.078 A  
HETATM   31  C   UNL     1      -6.975   1.658  65.433  1.00  0.00    -0.042 A  
HETATM   32  F   UNL     1      -8.266   1.472  63.471  1.00  0.00    -0.058 F  
ENDBRANCH  21  23
ENDBRANCH  16  17
ENDBRANCH  15  16
ENDBRANCH   3  15
TORSDOF 4
ENDMDL
MODEL      232
REMARK 921   NORMALIZED FREE ENERGY PREDICTED BY IDOCK:   -1.19 KCAL/MOL
REMARK 922        TOTAL FREE ENERGY PREDICTED BY IDOCK:   -1.74 KCAL/MOL
REMARK 923 INTER-LIGAND FREE ENERGY PREDICTED BY IDOCK:   -3.04 KCAL/MOL
REMARK 924 INTRA-LIGAND FREE ENERGY PREDICTED BY IDOCK:    1.30 KCAL/MOL
REMARK 927      BINDING AFFINITY PREDICTED BY RF-SCORE:    0.00 PKD
ROOT
HETATM    1  C   UNL     1     -11.232  10.199  65.660  1.00  0.00     1.196 C  
HETATM    2  C   UNL     1      -9.910   9.476  65.682  1.00  0.00    -0.272 C  
HETATM    3  C   UNL     1      -9.641   8.356  66.383  1.00  0.00    -0.307 C  
HETATM    4  C   UNL     1      -8.277   7.783  66.228  1.00  0.00    -0.122 C  
HETATM    5  O   UNL     1      -7.052  10.125  62.506  1.00  0.00    -0.124 OA 
HETATM    6  C   UNL     1      -6.797  10.368  63.887  1.00  0.00     0.014 C  
HETATM    7  O   UNL     1      -7.960   6.770  66.852  1.00  0.00    -0.106 OA 
HETATM    8  N   UNL     1      -7.413   8.443  65.378  1.00  0.00    -0.083 N  
HETATM    9  C   UNL     1      -6.042   7.946  65.342  1.00  0.00    -0.038 C  
HETATM   10  N   UNL     1      -8.982  10.120  64.905  1.00  0.00    -0.180 NA 
HETATM   11  C   UNL     1      -5.183   8.518  64.230  1.00  0.00    -0.044 C  
HETATM   12  C   UNL     1      -7.794   9.624  64.792  1.00  0.00    -0.128 C  
HETATM   13  C   UNL     1      -5.347  10.027  64.193  1.00  0.00    -0.097 C  
HETATM   14  H   UNL     1      -7.958  10.338  62.315  1.00  0.00     0.000 HD 
ENDROOT
BRANCH   3  15
HETATM   15  C   UNL     1     -10.575   7.540  67.249  1.00  0.00    -0.394 C  
BRANCH  15  16
HETATM   16  C   UNL     1     -10.936   8.199  68.610  1.00  0.00     0.211 C  
BRANCH  16  17
HETATM   17  N   UNL     1     -10.536   9.609  68.757  1.00  0.00    -0.215 NA 
HETATM   18  C   UNL     1     -12.754  10.633  69.234  1.00  0.00     0.598 C  
HETATM   19  C   UNL     1     -11.181  10.300  71.150  1.00  0.00    -0.116 C  
HETATM   20  C   UNL     1     -11.543  10.573  68.307  1.00  0.00    -0.101 C  
HETATM   21  C   UNL     1     -12.330  11.166  70.610  1.00  0.00    -0.482 C  
HETATM   22  C   UNL     1     -10.084   9.953  70.122  1.00  0.00    -0.255 C  
BRANCH  21  23
HETATM   23  C   UNL     1     -12.092  12.651  70.498  1.00  0.00    -0.275 A  
HETATM   24  N   UNL     1     -11.926  13.269  69.321  1.00  0.00    -0.317 NA 
HETATM   25  O   UNL     1     -12.099  14.623  69.577  1.00  0.00    -0.305 OA 
HETATM   26  C   UNL     1     -12.336  14.811  70.903  1.00  0.00    -0.319 A  
HETATM   27  C   UNL     1     -12.259  13.593  71.554  1.00  0.00    -0.107 A  
HETATM   28  C   UNL     1     -12.460  13.550  72.947  1.00  0.00     0.566 A  
HETATM   29  C   UNL     1     -12.752  14.746  73.613  1.00  0.00    -0.511 A  
HETATM   30  C   UNL     1     -12.858  15.943  72.905  1.00  0.00    -0.486 A  
HETATM   31  C   UNL     1     -12.647  16.015  71.528  1.00  0.00    -0.322 A  
HETATM   32  F   UNL     1     -13.185  17.058  73.571  1.00  0.00     0.087 F  
ENDBRANCH  21  23
ENDBRANCH  16  17
ENDBRANCH  15  16
ENDBRANCH   3  15
TORSDOF 4
ENDMDL
MODEL      233
REMARK 921   NORMALIZED FREE ENERGY PREDICTED BY IDOCK:   -0.90 KCAL/MOL
REMARK 922        TOTAL FREE ENERGY PREDICTED BY IDOCK:   -1.38 KCAL/MOL
REMARK 923 INTER-LIGAND FREE ENERGY PREDICTED BY IDOCK:   -2.60 KCAL/MOL
REMARK 924 INTRA-LIGAND FREE ENERGY PREDICTED BY IDOCK:    1.23 KCAL/MOL
REMARK 927      BINDING AFFINITY PREDICTED BY RF-SCORE:    0.00 PKD
ROOT
HETATM    1  C   UNL     1     -11.537   9.786  71.866  1.00  0.00    -0.038 C  
HETATM    2  C   UNL     1     -10.976   9.185  70.604  1.00  0.00    -0.263 C  
HETATM    3  C   UNL     1     -11.415   9.438  69.354  1.00  0.00     0.182 C  
HETATM    4  C   UNL     1     -10.688   8.766  68.244  1.00  0.00    -0.067 C  
HETATM    5  O   UNL     1      -7.004   7.483  70.614  1.00  0.00    -0.050 OA 
HETATM    6  C   UNL     1      -8.190   6.769  70.275  1.00  0.00    -0.125 C  
HETATM    7  O   UNL     1     -11.046   8.940  67.078  1.00  0.00     0.065 OA 
HETATM    8  N   UNL     1      -9.629   7.952  68.590  1.00  0.00    -0.153 N  
HETATM    9  C   UNL     1      -9.015   7.198  67.502  1.00  0.00    -0.121 C  
HETATM   10  N   UNL     1      -9.957   8.312  70.883  1.00  0.00    -0.187 NA 
HETATM   11  C   UNL     1      -7.709   6.510  67.857  1.00  0.00    -0.104 C  
HETATM   12  C   UNL     1      -9.345   7.719  69.912  1.00  0.00    -0.157 C  
HETATM   13  C   UNL     1      -7.872   5.771  69.173  1.00  0.00    -0.090 C  
HETATM   14  H   UNL     1      -7.202   8.107  71.303  1.00  0.00     0.000 HD 
ENDROOT
BRANCH   3  15
HETATM   15  C   UNL     1     -12.503  10.391  68.912  1.00  0.00     0.912 C  
BRANCH  15  16
HETATM   16  C   UNL     1     -12.224  11.109  67.562  1.00  0.00     1.144 C  
BRANCH  16  17
HETATM   17  N   UNL     1     -11.659  12.465  67.671  1.00  0.00    -0.338 NA 
HETATM   18  C   UNL     1      -9.360  11.907  68.445  1.00  0.00    -0.184 C  
HETATM   19  C   UNL     1      -9.664  12.551  66.048  1.00  0.00    -0.247 C  
HETATM   20  C   UNL     1     -10.674  12.624  68.743  1.00  0.00    -0.207 C  
HETATM   21  C   UNL     1      -8.680  12.549  67.228  1.00  0.00    -0.193 C  
HETATM   22  C   UNL     1     -11.105  12.975  66.398  1.00  0.00    -0.287 C  
BRANCH  21  23
HETATM   23  C   UNL     1      -8.092  13.873  67.650  1.00  0.00    -0.177 A  
HETATM   24  N   UNL     1      -6.796  14.024  67.951  1.00  0.00    -0.147 NA 
HETATM   25  O   UNL     1      -6.560  15.392  67.930  1.00  0.00    -0.124 OA 
HETATM   26  C   UNL     1      -7.716  16.052  67.648  1.00  0.00    -0.145 A  
HETATM   27  C   UNL     1      -8.746  15.135  67.543  1.00  0.00    -0.188 A  
HETATM   28  C   UNL     1     -10.047  15.597  67.266  1.00  0.00    -0.255 A  
HETATM   29  C   UNL     1     -10.237  16.972  67.086  1.00  0.00    -0.306 A  
HETATM   30  C   UNL     1      -9.159  17.853  67.162  1.00  0.00    -0.251 A  
HETATM   31  C   UNL     1      -7.864  17.422  67.452  1.00  0.00    -0.212 A  
HETATM   32  F   UNL     1      -9.374  19.156  66.939  1.00  0.00    -0.289 F  
ENDBRANCH  21  23
ENDBRANCH  16  17
ENDBRANCH  15  16
ENDBRANCH   3  15
TORSDOF 4
ENDMDL
MODEL      234
REMARK 921   NORMALIZED FREE ENERGY PREDICTED BY IDOCK:   -0.89 KCAL/MOL
REMARK 922        TOTAL FREE ENERGY PREDICTED BY IDOCK:   -1.37 KCAL/MOL
REMARK 923 INTER-LIGAND FREE ENERGY PREDICTED BY IDOCK:   -4.23 KCAL/MOL
REMARK 924 INTRA-LIGAND FREE ENERGY PREDICTED BY IDOCK:    2.86 KCAL/MOL
REMARK 927      BINDING AFFINITY PREDICTED BY RF-SCORE:    0.00 PKD
ROOT
HETATM    1  C   UNL     1      -5.573  13.907  67.665  1.00  0.00     0.014 C  
HETATM    2  C   UNL     1      -6.469  12.700  67.570  1.00  0.00    -0.158 C  
HETATM    3  C   UNL     1      -7.738  12.628  68.020  1.00  0.00    -0.139 C  
HETATM    4  C   UNL     1      -8.458  11.347  67.785  1.00  0.00    -0.128 C  
HETATM    5  O   UNL     1      -5.592   9.595  64.694  1.00  0.00    -0.062 OA 
HETATM    6  C   UNL     1      -5.683   9.392  66.101  1.00  0.00    -0.053 C  
HETATM    7  O   UNL     1      -9.614  11.208  68.184  1.00  0.00    -0.167 OA 
HETATM    8  N   UNL     1      -7.767  10.352  67.123  1.00  0.00    -0.099 N  
HETATM    9  C   UNL     1      -8.439   9.061  67.021  1.00  0.00    -0.120 C  
HETATM   10  N   UNL     1      -5.819  11.647  66.977  1.00  0.00    -0.121 NA 
HETATM   11  C   UNL     1      -7.778   8.068  66.084  1.00  0.00    -0.087 C  
HETATM   12  C   UNL     1      -6.447  10.534  66.795  1.00  0.00    -0.081 C  
HETATM   13  C   UNL     1      -6.288   8.023  66.369  1.00  0.00    -0.047 C  
HETATM   14  H   UNL     1      -5.214  10.451  64.526  1.00  0.00     0.000 HD 
ENDROOT
BRANCH   3  15
HETATM   15  C   UNL     1      -8.572  13.713  68.662  1.00  0.00    -0.031 C  
BRANCH  15  16
HETATM   16  C   UNL     1      -7.782  14.667  69.600  1.00  0.00     0.062 C  
BRANCH  16  17
HETATM   17  N   UNL     1      -7.815  16.092  69.229  1.00  0.00    -0.235 NA 
HETATM   18  C   UNL     1      -8.569  15.898  66.866  1.00  0.00    -0.274 C  
HETATM   19  C   UNL     1     -10.248  16.614  68.576  1.00  0.00    -0.282 C  
HETATM   20  C   UNL     1      -7.480  16.359  67.829  1.00  0.00    -0.142 C  
HETATM   21  C   UNL     1      -9.848  16.716  67.095  1.00  0.00    -0.257 C  
HETATM   22  C   UNL     1      -9.086  16.761  69.579  1.00  0.00     0.300 C  
BRANCH  21  23
HETATM   23  C   UNL     1      -9.646  18.096  66.520  1.00  0.00    -0.317 A  
HETATM   24  N   UNL     1     -10.591  19.043  66.565  1.00  0.00    -0.421 NA 
HETATM   25  O   UNL     1      -9.942  20.239  66.289  1.00  0.00    -0.436 OA 
HETATM   26  C   UNL     1      -8.624  20.000  66.050  1.00  0.00    -0.204 A  
HETATM   27  C   UNL     1      -8.395  18.637  66.101  1.00  0.00    -0.174 A  
HETATM   28  C   UNL     1      -7.093  18.154  65.870  1.00  0.00    -0.300 A  
HETATM   29  C   UNL     1      -6.076  19.082  65.618  1.00  0.00    -0.251 A  
HETATM   30  C   UNL     1      -6.350  20.450  65.616  1.00  0.00    -0.235 A  
HETATM   31  C   UNL     1      -7.635  20.952  65.825  1.00  0.00     0.436 A  
HETATM   32  F   UNL     1      -5.341  21.308  65.416  1.00  0.00    -0.228 F  
ENDBRANCH  21  23
ENDBRANCH  16  17
ENDBRANCH  15  16
ENDBRANCH   3  15
TORSDOF 4
ENDMDL
MODEL      235
REMARK 921   NORMALIZED FREE ENERGY PREDICTED BY IDOCK:   -0.84 KCAL/MOL
REMARK 922        TOTAL FREE ENERGY PREDICTED BY IDOCK:   -1.31 KCAL/MOL
REMARK 923 INTER-LIGAND FREE ENERGY PREDICTED BY IDOCK:   -1.99 KCAL/MOL
REMARK 924 INTRA-LIGAND FREE ENERGY PREDICTED BY IDOCK:    0.68 KCAL/MOL
REMARK 927      BINDING AFFINITY PREDICTED BY RF-SCORE:    0.00 PKD
ROOT
HETATM    1  C   UNL     1     -11.963   6.558  69.660  1.00  0.00     0.160 C  
HETATM    2  C   UNL     1     -11.089   6.221  68.480  1.00  0.00    -0.308 C  
HETATM    3  C   UNL     1     -10.693   7.088  67.526  1.00  0.00    -0.352 C  
HETATM    4  C   UNL     1      -9.794   6.551  66.469  1.00  0.00    -0.111 C  
HETATM    5  O   UNL     1      -8.618   2.678  68.578  1.00  0.00    -0.068 OA 
HETATM    6  C   UNL     1      -9.618   2.939  67.598  1.00  0.00    -0.004 C  
HETATM    7  O   UNL     1      -9.406   7.284  65.559  1.00  0.00     0.199 OA 
HETATM    8  N   UNL     1      -9.441   5.220  66.562  1.00  0.00    -0.141 N  
HETATM    9  C   UNL     1      -8.671   4.679  65.447  1.00  0.00    -0.134 C  
HETATM   10  N   UNL     1     -10.754   4.892  68.476  1.00  0.00     0.283 NA 
HETATM   11  C   UNL     1      -8.086   3.299  65.684  1.00  0.00    -0.090 C  
HETATM   12  C   UNL     1      -9.989   4.432  67.543  1.00  0.00    -0.071 C  
HETATM   13  C   UNL     1      -9.159   2.390  66.258  1.00  0.00    -0.079 C  
HETATM   14  H   UNL     1      -8.905   3.021  69.417  1.00  0.00     0.000 HD 
ENDROOT
BRANCH   3  15
HETATM   15  C   UNL     1     -10.968   8.572  67.428  1.00  0.00     0.111 C  
BRANCH  15  16
HETATM   16  C   UNL     1      -9.721   9.476  67.641  1.00  0.00    -0.154 C  
BRANCH  16  17
HETATM   17  N   UNL     1      -9.256   9.596  69.032  1.00  0.00    -0.150 NA 
HETATM   18  C   UNL     1      -8.051   7.431  69.266  1.00  0.00    -0.123 C  
HETATM   19  C   UNL     1      -6.686   9.502  68.948  1.00  0.00    -0.051 C  
HETATM   20  C   UNL     1      -9.186   8.325  69.758  1.00  0.00    -0.154 C  
HETATM   21  C   UNL     1      -6.699   8.093  69.563  1.00  0.00    -0.038 C  
HETATM   22  C   UNL     1      -7.974  10.322  69.164  1.00  0.00    -0.135 C  
BRANCH  21  23
HETATM   23  C   UNL     1      -6.420   7.974  71.041  1.00  0.00    -0.037 A  
HETATM   24  N   UNL     1      -6.828   8.890  71.929  1.00  0.00    -0.255 NA 
HETATM   25  O   UNL     1      -6.722   8.283  73.174  1.00  0.00    -0.098 OA 
HETATM   26  C   UNL     1      -6.225   7.025  73.029  1.00  0.00    -0.057 A  
HETATM   27  C   UNL     1      -5.934   6.804  71.695  1.00  0.00    -0.037 A  
HETATM   28  C   UNL     1      -5.393   5.563  71.310  1.00  0.00    -0.009 A  
HETATM   29  C   UNL     1      -5.192   4.592  72.298  1.00  0.00    -0.004 A  
HETATM   30  C   UNL     1      -5.539   4.849  73.624  1.00  0.00    -0.017 A  
HETATM   31  C   UNL     1      -6.061   6.076  74.033  1.00  0.00    -0.064 A  
HETATM   32  F   UNL     1      -5.375   3.878  74.533  1.00  0.00    -0.003 F  
ENDBRANCH  21  23
ENDBRANCH  16  17
ENDBRANCH  15  16
ENDBRANCH   3  15
TORSDOF 4
ENDMDL
MODEL      236
REMARK 921   NORMALIZED FREE ENERGY PREDICTED BY IDOCK:   -0.84 KCAL/MOL
REMARK 922        TOTAL FREE ENERGY PREDICTED BY IDOCK:   -1.31 KCAL/MOL
REMARK 923 INTER-LIGAND FREE ENERGY PREDICTED BY IDOCK:   -4.18 KCAL/MOL
REMARK 924 INTRA-LIGAND FREE ENERGY PREDICTED BY IDOCK:    2.87 KCAL/MOL
REMARK 927      BINDING AFFINITY PREDICTED BY RF-SCORE:    0.00 PKD
ROOT
HETATM    1  C   UNL     1     -12.377  13.729  71.079  1.00  0.00    -0.452 C  
HETATM    2  C   UNL     1     -11.879  13.683  69.658  1.00  0.00    -0.335 C  
HETATM    3  C   UNL     1     -12.015  12.640  68.813  1.00  0.00    -0.279 C  
HETATM    4  C   UNL     1     -11.484  12.823  67.436  1.00  0.00    -0.340 C  
HETATM    5  O   UNL     1     -11.017  17.362  67.561  1.00  0.00    -0.256 OA 
HETATM    6  C   UNL     1     -10.072  16.321  67.790  1.00  0.00    -0.252 C  
HETATM    7  O   UNL     1     -11.561  11.905  66.618  1.00  0.00    -0.465 OA 
HETATM    8  N   UNL     1     -10.908  14.042  67.143  1.00  0.00    -0.283 N  
HETATM    9  C   UNL     1     -10.274  14.157  65.834  1.00  0.00    -0.319 C  
HETATM   10  N   UNL     1     -11.235  14.845  69.321  1.00  0.00    -0.269 NA 
HETATM   11  C   UNL     1      -9.872  15.566  65.438  1.00  0.00    -0.291 C  
HETATM   12  C   UNL     1     -10.761  14.987  68.128  1.00  0.00    -0.256 C  
HETATM   13  C   UNL     1      -9.139  16.222  66.594  1.00  0.00    -0.278 C  
HETATM   14  H   UNL     1     -11.600  17.424  68.309  1.00  0.00     0.000 HD 
ENDROOT
BRANCH   3  15
HETATM   15  C   UNL     1     -12.720  11.323  69.049  1.00  0.00     0.784 C  
BRANCH  15  16
HETATM   16  C   UNL     1     -11.776  10.090  69.135  1.00  0.00     0.135 C  
BRANCH  16  17
HETATM   17  N   UNL     1     -10.863   9.911  67.994  1.00  0.00    -0.254 NA 
HETATM   18  C   UNL     1      -9.155   8.436  69.043  1.00  0.00    -0.147 C  
HETATM   19  C   UNL     1     -10.815   7.388  67.493  1.00  0.00    -0.257 C  
HETATM   20  C   UNL     1      -9.453   9.769  68.364  1.00  0.00    -0.140 C  
HETATM   21  C   UNL     1      -9.388   7.285  68.054  1.00  0.00    -0.130 C  
HETATM   22  C   UNL     1     -11.259   8.809  67.091  1.00  0.00     0.869 C  
BRANCH  21  23
HETATM   23  C   UNL     1      -8.248   7.264  67.065  1.00  0.00    -0.117 A  
HETATM   24  N   UNL     1      -8.007   6.219  66.263  1.00  0.00    -0.107 NA 
HETATM   25  O   UNL     1      -7.152   6.689  65.276  1.00  0.00    -0.060 OA 
HETATM   26  C   UNL     1      -6.862   7.998  65.507  1.00  0.00    -0.059 A  
HETATM   27  C   UNL     1      -7.468   8.394  66.685  1.00  0.00    -0.082 A  
HETATM   28  C   UNL     1      -7.293   9.718  67.132  1.00  0.00    -0.087 A  
HETATM   29  C   UNL     1      -6.526  10.587  66.347  1.00  0.00    -0.105 A  
HETATM   30  C   UNL     1      -5.967  10.150  65.145  1.00  0.00    -0.119 A  
HETATM   31  C   UNL     1      -6.112   8.839  64.690  1.00  0.00    -0.065 A  
HETATM   32  F   UNL     1      -5.278  11.024  64.400  1.00  0.00    -0.160 F  
ENDBRANCH  21  23
ENDBRANCH  16  17
ENDBRANCH  15  16
ENDBRANCH   3  15
TORSDOF 4
ENDMDL
MODEL      237
REMARK 921   NORMALIZED FREE ENERGY PREDICTED BY IDOCK:   -0.49 KCAL/MOL
REMARK 922        TOTAL FREE ENERGY PREDICTED BY IDOCK:   -0.87 KCAL/MOL
REMARK 923 INTER-LIGAND FREE ENERGY PREDICTED BY IDOCK:   -2.02 KCAL/MOL
REMARK 924 INTRA-LIGAND FREE ENERGY PREDICTED BY IDOCK:    1.15 KCAL/MOL
REMARK 927      BINDING AFFINITY PREDICTED BY RF-SCORE:    0.00 PKD
ROOT
HETATM    1  C   UNL     1     -11.892   4.350  65.480  1.00  0.00     2.771 C  
HETATM    2  C   UNL     1     -10.511   4.903  65.716  1.00  0.00    -0.186 C  
HETATM    3  C   UNL     1     -10.219   5.992  66.457  1.00  0.00    -0.200 C  
HETATM    4  C   UNL     1      -8.779   6.340  66.593  1.00  0.00    -0.126 C  
HETATM    5  O   UNL     1      -7.053   2.383  65.108  1.00  0.00    -0.053 OA 
HETATM    6  C   UNL     1      -7.288   3.612  64.426  1.00  0.00    -0.067 C  
HETATM    7  O   UNL     1      -8.442   7.331  67.242  1.00  0.00    -0.117 OA 
HETATM    8  N   UNL     1      -7.872   5.516  65.957  1.00  0.00    -0.102 N  
HETATM    9  C   UNL     1      -6.478   5.947  65.989  1.00  0.00    -0.043 C  
HETATM   10  N   UNL     1      -9.562   4.166  65.055  1.00  0.00    -0.170 NA 
HETATM   11  C   UNL     1      -5.477   4.914  65.507  1.00  0.00    -0.013 C  
HETATM   12  C   UNL     1      -8.317   4.487  65.165  1.00  0.00    -0.122 C  
HETATM   13  C   UNL     1      -5.961   4.317  64.198  1.00  0.00    -0.018 C  
HETATM   14  H   UNL     1      -7.882   1.942  65.251  1.00  0.00     0.000 HD 
ENDROOT
BRANCH   3  15
HETATM   15  C   UNL     1     -11.159   6.870  67.251  1.00  0.00    -0.355 C  
BRANCH  15  16
HETATM   16  C   UNL     1     -10.611   7.318  68.636  1.00  0.00    -0.168 C  
BRANCH  16  17
HETATM   17  N   UNL     1     -10.209   8.731  68.730  1.00  0.00    -0.203 NA 
HETATM   18  C   UNL     1     -12.431   9.781  69.124  1.00  0.00     1.572 C  
HETATM   19  C   UNL     1     -10.894   9.524  71.080  1.00  0.00    -0.423 C  
HETATM   20  C   UNL     1     -11.204   9.678  68.222  1.00  0.00     0.054 C  
HETATM   21  C   UNL     1     -12.031  10.370  70.484  1.00  0.00    -0.427 C  
HETATM   22  C   UNL     1      -9.780   9.132  70.088  1.00  0.00    -0.204 C  
BRANCH  21  23
HETATM   23  C   UNL     1     -11.786  11.849  70.313  1.00  0.00    -0.205 A  
HETATM   24  N   UNL     1     -11.133  12.356  69.259  1.00  0.00    -0.191 NA 
HETATM   25  O   UNL     1     -11.417  13.715  69.257  1.00  0.00    -0.261 OA 
HETATM   26  C   UNL     1     -12.208  14.019  70.321  1.00  0.00    -0.361 A  
HETATM   27  C   UNL     1     -12.406  12.879  71.078  1.00  0.00    -0.318 A  
HETATM   28  C   UNL     1     -13.190  12.961  72.244  1.00  0.00    -0.519 A  
HETATM   29  C   UNL     1     -13.757  14.197  72.577  1.00  0.00    -0.626 A  
HETATM   30  C   UNL     1     -13.561  15.310  71.758  1.00  0.00    -0.483 A  
HETATM   31  C   UNL     1     -12.774  15.258  70.607  1.00  0.00    -0.470 A  
HETATM   32  F   UNL     1     -14.158  16.463  72.086  1.00  0.00     0.015 F  
ENDBRANCH  21  23
ENDBRANCH  16  17
ENDBRANCH  15  16
ENDBRANCH   3  15
TORSDOF 4
ENDMDL
MODEL      238
REMARK 921   NORMALIZED FREE ENERGY PREDICTED BY IDOCK:    1.78 KCAL/MOL
REMARK 922        TOTAL FREE ENERGY PREDICTED BY IDOCK:    1.92 KCAL/MOL
REMARK 923 INTER-LIGAND FREE ENERGY PREDICTED BY IDOCK:    1.64 KCAL/MOL
REMARK 924 INTRA-LIGAND FREE ENERGY PREDICTED BY IDOCK:    0.28 KCAL/MOL
REMARK 927      BINDING AFFINITY PREDICTED BY RF-SCORE:    0.00 PKD
ROOT
HETATM    1  C   UNL     1     -10.364   9.429  62.921  1.00  0.00     3.352 C  
HETATM    2  C   UNL     1      -9.002   9.125  63.488  1.00  0.00     0.059 C  
HETATM    3  C   UNL     1      -8.208  10.003  64.133  1.00  0.00    -0.159 C  
HETATM    4  C   UNL     1      -6.915   9.478  64.650  1.00  0.00    -0.102 C  
HETATM    5  O   UNL     1      -7.870   5.030  64.281  1.00  0.00    -0.081 OA 
HETATM    6  C   UNL     1      -7.168   5.909  63.407  1.00  0.00    -0.054 C  
HETATM    7  O   UNL     1      -6.135  10.230  65.235  1.00  0.00    -0.107 OA 
HETATM    8  N   UNL     1      -6.647   8.143  64.429  1.00  0.00    -0.064 N  
HETATM    9  C   UNL     1      -5.321   7.679  64.822  1.00  0.00    -0.029 C  
HETATM   10  N   UNL     1      -8.644   7.823  63.244  1.00  0.00     0.241 NA 
HETATM   11  C   UNL     1      -5.138   6.173  64.803  1.00  0.00    -0.013 C  
HETATM   12  C   UNL     1      -7.511   7.383  63.681  1.00  0.00    -0.104 C  
HETATM   13  C   UNL     1      -5.679   5.617  63.498  1.00  0.00    -0.014 C  
HETATM   14  H   UNL     1      -8.801   5.212  64.225  1.00  0.00     0.000 HD 
ENDROOT
BRANCH   3  15
HETATM   15  C   UNL     1      -8.491  11.446  64.487  1.00  0.00     0.600 C  
BRANCH  15  16
HETATM   16  C   UNL     1      -9.854  11.682  65.198  1.00  0.00    -0.249 C  
BRANCH  16  17
HETATM   17  N   UNL     1     -10.266  10.630  66.141  1.00  0.00    -0.247 NA 
HETATM   18  C   UNL     1      -9.516  11.658  68.280  1.00  0.00    -0.191 C  
HETATM   19  C   UNL     1     -11.958  11.717  67.745  1.00  0.00    -0.134 C  
HETATM   20  C   UNL     1      -9.393  10.488  67.308  1.00  0.00    -0.146 C  
HETATM   21  C   UNL     1     -10.927  11.687  68.884  1.00  0.00    -0.282 C  
HETATM   22  C   UNL     1     -11.674  10.750  66.578  1.00  0.00     1.162 C  
BRANCH  21  23
HETATM   23  C   UNL     1     -11.038  10.574  69.897  1.00  0.00    -0.307 A  
HETATM   24  N   UNL     1     -12.207  10.008  70.223  1.00  0.00    -0.169 NA 
HETATM   25  O   UNL     1     -11.886   8.825  70.875  1.00  0.00    -0.282 OA 
HETATM   26  C   UNL     1     -10.534   8.704  70.964  1.00  0.00    -0.219 A  
HETATM   27  C   UNL     1      -9.942   9.835  70.430  1.00  0.00    -0.294 A  
HETATM   28  C   UNL     1      -8.538   9.934  70.427  1.00  0.00     0.035 A  
HETATM   29  C   UNL     1      -7.796   8.867  70.948  1.00  0.00    -0.154 A  
HETATM   30  C   UNL     1      -8.439   7.730  71.439  1.00  0.00    -0.116 A  
HETATM   31  C   UNL     1      -9.829   7.615  71.468  1.00  0.00    -0.192 A  
HETATM   32  F   UNL     1      -7.693   6.711  71.886  1.00  0.00    -0.092 F  
ENDBRANCH  21  23
ENDBRANCH  16  17
ENDBRANCH  15  16
ENDBRANCH   3  15
TORSDOF 4
ENDMDL
MODEL      239
REMARK 921   NORMALIZED FREE ENERGY PREDICTED BY IDOCK:    2.01 KCAL/MOL
REMARK 922        TOTAL FREE ENERGY PREDICTED BY IDOCK:    2.21 KCAL/MOL
REMARK 923 INTER-LIGAND FREE ENERGY PREDICTED BY IDOCK:    2.27 KCAL/MOL
REMARK 924 INTRA-LIGAND FREE ENERGY PREDICTED BY IDOCK:   -0.06 KCAL/MOL
REMARK 927      BINDING AFFINITY PREDICTED BY RF-SCORE:    0.00 PKD
ROOT
HETATM    1  C   UNL     1      -6.565  14.578  67.486  1.00  0.00    -0.106 C  
HETATM    2  C   UNL     1      -7.666  13.684  66.977  1.00  0.00     0.184 C  
HETATM    3  C   UNL     1      -8.635  14.050  66.113  1.00  0.00     0.710 C  
HETATM    4  C   UNL     1      -9.601  12.993  65.709  1.00  0.00    -0.059 C  
HETATM    5  O   UNL     1      -7.222   9.391  67.190  1.00  0.00    -0.085 OA 
HETATM    6  C   UNL     1      -8.278  10.126  67.802  1.00  0.00    -0.110 C  
HETATM    7  O   UNL     1     -10.521  13.263  64.936  1.00  0.00    -0.333 OA 
HETATM    8  N   UNL     1      -9.416  11.736  66.245  1.00  0.00    -0.220 N  
HETATM    9  C   UNL     1     -10.449  10.749  65.945  1.00  0.00    -0.204 C  
HETATM   10  N   UNL     1      -7.579  12.430  67.524  1.00  0.00    -0.144 NA 
HETATM   11  C   UNL     1     -10.103   9.323  66.331  1.00  0.00    -0.337 C  
HETATM   12  C   UNL     1      -8.434  11.526  67.181  1.00  0.00    -0.158 C  
HETATM   13  C   UNL     1      -9.555   9.304  67.746  1.00  0.00    -0.167 C  
HETATM   14  H   UNL     1      -6.423   9.904  67.224  1.00  0.00     0.000 HD 
ENDROOT
BRANCH   3  15
HETATM   15  C   UNL     1      -8.828  15.381  65.422  1.00  0.00     1.262 C  
BRANCH  15  16
HETATM   16  C   UNL     1      -9.081  16.578  66.381  1.00  0.00    -0.297 C  
BRANCH  16  17
HETATM   17  N   UNL     1     -10.424  16.633  66.983  1.00  0.00    -0.303 NA 
HETATM   18  C   UNL     1     -10.122  15.009  68.845  1.00  0.00    -0.234 C  
HETATM   19  C   UNL     1     -10.100  17.447  69.402  1.00  0.00    -0.075 C  
HETATM   20  C   UNL     1     -10.876  15.369  67.568  1.00  0.00    -0.305 C  
HETATM   21  C   UNL     1     -10.425  16.044  69.938  1.00  0.00    -0.287 C  
HETATM   22  C   UNL     1     -10.584  17.727  67.965  1.00  0.00    -0.365 C  
BRANCH  21  23
HETATM   23  C   UNL     1     -11.821  15.800  70.456  1.00  0.00    -0.375 A  
HETATM   24  N   UNL     1     -12.895  16.431  69.964  1.00  0.00     0.893 NA 
HETATM   25  O   UNL     1     -13.995  15.709  70.407  1.00  0.00    -0.010 OA 
HETATM   26  C   UNL     1     -13.579  14.672  71.184  1.00  0.00    -0.344 A  
HETATM   27  C   UNL     1     -12.203  14.732  71.319  1.00  0.00    -0.394 A  
HETATM   28  C   UNL     1     -11.551  13.756  72.097  1.00  0.00     1.838 A  
HETATM   29  C   UNL     1     -12.326  12.750  72.686  1.00  0.00     1.753 A  
HETATM   30  C   UNL     1     -13.706  12.711  72.488  1.00  0.00    -0.130 A  
HETATM   31  C   UNL     1     -14.377  13.675  71.735  1.00  0.00    -0.004 A  
HETATM   32  F   UNL     1     -14.406  11.707  73.031  1.00  0.00     0.673 F  
ENDBRANCH  21  23
ENDBRANCH  16  17
ENDBRANCH  15  16
ENDBRANCH   3  15
TORSDOF 4
ENDMDL
MODEL      240
REMARK 921   NORMALIZED FREE ENERGY PREDICTED BY IDOCK:    2.41 KCAL/MOL
REMARK 922        TOTAL FREE ENERGY PREDICTED BY IDOCK:    2.70 KCAL/MOL
REMARK 923 INTER-LIGAND FREE ENERGY PREDICTED BY IDOCK:    3.29 KCAL/MOL
REMARK 924 INTRA-LIGAND FREE ENERGY PREDICTED BY IDOCK:   -0.58 KCAL/MOL
REMARK 927      BINDING AFFINITY PREDICTED BY RF-SCORE:    0.00 PKD
ROOT
HETATM    1  C   UNL     1      -8.871   7.788  68.154  1.00  0.00    -0.125 C  
HETATM    2  C   UNL     1      -8.637   7.223  66.778  1.00  0.00    -0.127 C  
HETATM    3  C   UNL     1      -9.018   7.798  65.619  1.00  0.00    -0.050 C  
HETATM    4  C   UNL     1      -8.648   7.086  64.367  1.00  0.00     0.379 C  
HETATM    5  O   UNL     1      -5.569   4.240  66.171  1.00  0.00    -0.013 OA 
HETATM    6  C   UNL     1      -6.950   4.053  65.873  1.00  0.00    -0.065 C  
HETATM    7  O   UNL     1      -8.978   7.548  63.274  1.00  0.00     0.751 OA 
HETATM    8  N   UNL     1      -7.943   5.908  64.501  1.00  0.00    -0.122 N  
HETATM    9  C   UNL     1      -7.706   5.156  63.273  1.00  0.00    -0.072 C  
HETATM   10  N   UNL     1      -7.995   6.013  66.842  1.00  0.00    -0.101 NA 
HETATM   11  C   UNL     1      -6.726   4.005  63.405  1.00  0.00    -0.042 C  
HETATM   12  C   UNL     1      -7.695   5.394  65.749  1.00  0.00    -0.087 C  
HETATM   13  C   UNL     1      -7.078   3.184  64.632  1.00  0.00    -0.057 C  
HETATM   14  H   UNL     1      -5.488   4.783  66.947  1.00  0.00     0.000 HD 
ENDROOT
BRANCH   3  15
HETATM   15  C   UNL     1      -9.703   9.130  65.410  1.00  0.00    -0.080 C  
BRANCH  15  16
HETATM   16  C   UNL     1      -8.783  10.250  64.848  1.00  0.00    -0.185 C  
BRANCH  16  17
HETATM   17  N   UNL     1      -8.285  11.217  65.840  1.00  0.00    -0.057 NA 
HETATM   18  C   UNL     1      -9.297  13.307  64.942  1.00  0.00     0.779 C  
HETATM   19  C   UNL     1     -10.362  12.257  66.946  1.00  0.00    -0.236 C  
HETATM   20  C   UNL     1      -8.019  12.553  65.301  1.00  0.00     3.051 C  
HETATM   21  C   UNL     1     -10.112  13.584  66.213  1.00  0.00    -0.298 C  
HETATM   22  C   UNL     1      -9.140  11.321  67.042  1.00  0.00    -0.163 C  
BRANCH  21  23
HETATM   23  C   UNL     1      -9.438  14.692  66.984  1.00  0.00    -0.241 A  
HETATM   24  N   UNL     1      -8.689  14.463  68.070  1.00  0.00    -0.162 NA 
HETATM   25  O   UNL     1      -7.960  15.626  68.279  1.00  0.00    -0.126 OA 
HETATM   26  C   UNL     1      -8.297  16.552  67.341  1.00  0.00    -0.170 A  
HETATM   27  C   UNL     1      -9.300  16.038  66.538  1.00  0.00    -0.296 A  
HETATM   28  C   UNL     1      -9.816  16.834  65.498  1.00  0.00     0.021 A  
HETATM   29  C   UNL     1      -9.275  18.110  65.307  1.00  0.00     1.859 A  
HETATM   30  C   UNL     1      -8.237  18.568  66.119  1.00  0.00    -0.156 A  
HETATM   31  C   UNL     1      -7.719  17.806  67.166  1.00  0.00    -0.224 A  
HETATM   32  F   UNL     1      -7.714  19.777  65.875  1.00  0.00    -0.299 F  
ENDBRANCH  21  23
ENDBRANCH  16  17
ENDBRANCH  15  16
ENDBRANCH   3  15
TORSDOF 4
ENDMDL
MODEL      241
REMARK 921   NORMALIZED FREE ENERGY PREDICTED BY IDOCK:    2.43 KCAL/MOL
REMARK 922        TOTAL FREE ENERGY PREDICTED BY IDOCK:    2.73 KCAL/MOL
REMARK 923 INTER-LIGAND FREE ENERGY PREDICTED BY IDOCK:   -2.14 KCAL/MOL
REMARK 924 INTRA-LIGAND FREE ENERGY PREDICTED BY IDOCK:    4.86 KCAL/MOL
REMARK 927      BINDING AFFINITY PREDICTED BY RF-SCORE:    0.00 PKD
ROOT
HETATM    1  C   UNL     1     -12.167  13.026  69.594  1.00  0.00    -0.219 C  
HETATM    2  C   UNL     1     -11.441  12.646  68.330  1.00  0.00    -0.313 C  
HETATM    3  C   UNL     1     -11.768  13.053  67.086  1.00  0.00    -0.439 C  
HETATM    4  C   UNL     1     -10.887  12.591  65.980  1.00  0.00    -0.276 C  
HETATM    5  O   UNL     1      -7.381  11.182  68.540  1.00  0.00    -0.090 OA 
HETATM    6  C   UNL     1      -8.473  10.461  67.976  1.00  0.00    -0.119 C  
HETATM    7  O   UNL     1     -11.137  12.912  64.818  1.00  0.00    -0.289 OA 
HETATM    8  N   UNL     1      -9.814  11.795  66.324  1.00  0.00    -0.215 N  
HETATM    9  C   UNL     1      -9.042  11.242  65.216  1.00  0.00    -0.126 C  
HETATM   10  N   UNL     1     -10.396  11.799  68.595  1.00  0.00    -0.220 NA 
HETATM   11  C   UNL     1      -7.734  10.583  65.614  1.00  0.00    -0.139 C  
HETATM   12  C   UNL     1      -9.649  11.388  67.625  1.00  0.00    -0.169 C  
HETATM   13  C   UNL     1      -7.976   9.652  66.789  1.00  0.00    -0.105 C  
HETATM   14  H   UNL     1      -7.691  11.687  69.283  1.00  0.00     0.000 HD 
ENDROOT
BRANCH   3  15
HETATM   15  C   UNL     1     -12.869  13.999  66.664  1.00  0.00     0.330 C  
BRANCH  15  16
HETATM   16  C   UNL     1     -12.656  15.477  67.098  1.00  0.00     1.770 C  
BRANCH  16  17
HETATM   17  N   UNL     1     -11.293  16.001  66.909  1.00  0.00     0.075 NA 
HETATM   18  C   UNL     1     -11.056  17.333  68.998  1.00  0.00     0.259 C  
HETATM   19  C   UNL     1      -9.897  15.121  68.882  1.00  0.00    -0.229 C  
HETATM   20  C   UNL     1     -11.076  17.336  67.473  1.00  0.00     0.044 C  
HETATM   21  C   UNL     1      -9.852  16.526  69.502  1.00  0.00    -0.080 C  
HETATM   22  C   UNL     1     -10.237  15.079  67.378  1.00  0.00    -0.234 C  
BRANCH  21  23
HETATM   23  C   UNL     1      -8.602  17.344  69.289  1.00  0.00     0.219 A  
HETATM   24  N   UNL     1      -7.430  17.034  69.856  1.00  0.00     0.698 NA 
HETATM   25  O   UNL     1      -6.470  17.760  69.164  1.00  0.00    -0.222 OA 
HETATM   26  C   UNL     1      -7.072  18.521  68.210  1.00  0.00    -0.256 A  
HETATM   27  C   UNL     1      -8.443  18.359  68.301  1.00  0.00    -0.321 A  
HETATM   28  C   UNL     1      -9.274  19.068  67.412  1.00  0.00    -0.326 A  
HETATM   29  C   UNL     1      -8.672  19.893  66.455  1.00  0.00    -0.406 A  
HETATM   30  C   UNL     1      -7.283  19.992  66.379  1.00  0.00    -0.265 A  
HETATM   31  C   UNL     1      -6.438  19.313  67.258  1.00  0.00    -0.198 A  
HETATM   32  F   UNL     1      -6.743  20.756  65.420  1.00  0.00    -0.274 F  
ENDBRANCH  21  23
ENDBRANCH  16  17
ENDBRANCH  15  16
ENDBRANCH   3  15
TORSDOF 4
ENDMDL
MODEL      242
REMARK 921   NORMALIZED FREE ENERGY PREDICTED BY IDOCK:    4.09 KCAL/MOL
REMARK 922        TOTAL FREE ENERGY PREDICTED BY IDOCK:    4.77 KCAL/MOL
REMARK 923 INTER-LIGAND FREE ENERGY PREDICTED BY IDOCK:   -3.14 KCAL/MOL
REMARK 924 INTRA-LIGAND FREE ENERGY PREDICTED BY IDOCK:    7.91 KCAL/MOL
REMARK 927      BINDING AFFINITY PREDICTED BY RF-SCORE:    0.00 PKD
ROOT
HETATM    1  C   UNL     1      -8.818   7.877  68.132  1.00  0.00    -0.125 C  
HETATM    2  C   UNL     1      -8.430   8.018  66.683  1.00  0.00    -0.133 C  
HETATM    3  C   UNL     1      -8.641   9.108  65.918  1.00  0.00    -0.168 C  
HETATM    4  C   UNL     1      -8.140   9.049  64.519  1.00  0.00    -0.143 C  
HETATM    5  O   UNL     1      -5.416   5.418  65.000  1.00  0.00    -0.012 OA 
HETATM    6  C   UNL     1      -6.753   5.524  64.520  1.00  0.00    -0.043 C  
HETATM    7  O   UNL     1      -8.313  10.004  63.761  1.00  0.00    -0.149 OA 
HETATM    8  N   UNL     1      -7.499   7.890  64.131  1.00  0.00    -0.097 N  
HETATM    9  C   UNL     1      -7.135   7.798  62.721  1.00  0.00    -0.083 C  
HETATM   10  N   UNL     1      -7.844   6.871  66.213  1.00  0.00    -0.098 NA 
HETATM   11  C   UNL     1      -6.219   6.639  62.372  1.00  0.00    -0.035 C  
HETATM   12  C   UNL     1      -7.429   6.823  64.991  1.00  0.00    -0.092 C  
HETATM   13  C   UNL     1      -6.753   5.367  63.008  1.00  0.00    -0.026 C  
HETATM   14  H   UNL     1      -5.415   5.516  65.946  1.00  0.00     0.000 HD 
ENDROOT
BRANCH   3  15
HETATM   15  C   UNL     1      -9.248  10.435  66.317  1.00  0.00    -0.195 C  
BRANCH  15  16
HETATM   16  C   UNL     1      -8.212  11.542  66.663  1.00  0.00    -0.156 C  
BRANCH  16  17
HETATM   17  N   UNL     1      -7.765  11.573  68.066  1.00  0.00    -0.112 NA 
HETATM   18  C   UNL     1      -7.807   9.139  68.581  1.00  0.00    -0.097 C  
HETATM   19  C   UNL     1      -5.586  10.209  68.162  1.00  0.00    -0.038 C  
HETATM   20  C   UNL     1      -8.347  10.527  68.909  1.00  0.00    -0.147 C  
HETATM   21  C   UNL     1      -6.308   9.073  68.904  1.00  0.00    -0.044 C  
HETATM   22  C   UNL     1      -6.293  11.578  68.214  1.00  0.00    -0.046 C  
BRANCH  21  23
HETATM   23  C   UNL     1      -6.142   9.001  70.402  1.00  0.00    -0.037 A  
HETATM   24  N   UNL     1      -6.047  10.092  71.171  1.00  0.00    -0.301 NA 
HETATM   25  O   UNL     1      -6.272   9.660  72.471  1.00  0.00    -0.277 OA 
HETATM   26  C   UNL     1      -6.471   8.314  72.478  1.00  0.00    -0.085 A  
HETATM   27  C   UNL     1      -6.314   7.827  71.193  1.00  0.00    -0.034 A  
HETATM   28  C   UNL     1      -6.463   6.446  70.963  1.00  0.00    -0.049 A  
HETATM   29  C   UNL     1      -6.786   5.624  72.048  1.00  0.00    -0.071 A  
HETATM   30  C   UNL     1      -6.972   6.169  73.319  1.00  0.00    -0.080 A  
HETATM   31  C   UNL     1      -6.814   7.531  73.576  1.00  0.00    -0.083 A  
HETATM   32  F   UNL     1      -7.326   5.356  74.323  1.00  0.00    -0.083 F  
ENDBRANCH  21  23
ENDBRANCH  16  17
ENDBRANCH  15  16
ENDBRANCH   3  15
TORSDOF 4
ENDMDL
MODEL      243
REMARK 921   NORMALIZED FREE ENERGY PREDICTED BY IDOCK:    4.91 KCAL/MOL
REMARK 922        TOTAL FREE ENERGY PREDICTED BY IDOCK:    5.79 KCAL/MOL
REMARK 923 INTER-LIGAND FREE ENERGY PREDICTED BY IDOCK:    3.28 KCAL/MOL
REMARK 924 INTRA-LIGAND FREE ENERGY PREDICTED BY IDOCK:    2.51 KCAL/MOL
REMARK 927      BINDING AFFINITY PREDICTED BY RF-SCORE:    0.00 PKD
ROOT
HETATM    1  C   UNL     1     -11.589   9.357  66.869  1.00  0.00     2.362 C  
HETATM    2  C   UNL     1     -10.439   8.406  66.666  1.00  0.00    -0.151 C  
HETATM    3  C   UNL     1     -10.297   7.208  67.269  1.00  0.00    -0.342 C  
HETATM    4  C   UNL     1      -9.101   6.409  66.891  1.00  0.00    -0.133 C  
HETATM    5  O   UNL     1      -7.967   8.746  63.138  1.00  0.00    -0.143 OA 
HETATM    6  C   UNL     1      -7.485   8.839  64.475  1.00  0.00    -0.106 C  
HETATM    7  O   UNL     1      -8.900   5.313  67.416  1.00  0.00    -0.108 OA 
HETATM    8  N   UNL     1      -8.250   6.958  65.954  1.00  0.00    -0.123 N  
HETATM    9  C   UNL     1      -7.016   6.223  65.696  1.00  0.00    -0.057 C  
HETATM   10  N   UNL     1      -9.519   8.922  65.790  1.00  0.00    -0.230 NA 
HETATM   11  C   UNL     1      -6.223   6.707  64.496  1.00  0.00    -0.035 C  
HETATM   12  C   UNL     1      -8.474   8.228  65.483  1.00  0.00    -0.161 C  
HETATM   13  C   UNL     1      -6.099   8.219  64.550  1.00  0.00    -0.064 C  
HETATM   14  H   UNL     1      -8.833   9.133  63.090  1.00  0.00     0.000 HD 
ENDROOT
BRANCH   3  15
HETATM   15  C   UNL     1     -11.242   6.517  68.226  1.00  0.00    -0.259 C  
BRANCH  15  16
HETATM   16  C   UNL     1     -11.523   7.302  69.538  1.00  0.00     0.129 C  
BRANCH  16  17
HETATM   17  N   UNL     1     -10.584   8.397  69.834  1.00  0.00    -0.227 NA 
HETATM   18  C   UNL     1      -9.913   7.768  72.147  1.00  0.00    -0.249 C  
HETATM   19  C   UNL     1      -8.305   7.294  70.291  1.00  0.00    -0.135 C  
HETATM   20  C   UNL     1     -10.561   8.809  71.240  1.00  0.00    -0.262 C  
HETATM   21  C   UNL     1      -8.428   7.617  71.789  1.00  0.00    -0.124 C  
HETATM   22  C   UNL     1      -9.207   8.134  69.364  1.00  0.00    -0.155 C  
BRANCH  21  23
HETATM   23  C   UNL     1      -7.684   8.823  72.307  1.00  0.00     0.097 A  
HETATM   24  N   UNL     1      -7.070   8.836  73.497  1.00  0.00    -0.358 NA 
HETATM   25  O   UNL     1      -6.216   9.930  73.469  1.00  0.00     0.126 OA 
HETATM   26  C   UNL     1      -6.343  10.581  72.282  1.00  0.00     1.929 A  
HETATM   27  C   UNL     1      -7.330   9.966  71.533  1.00  0.00     1.132 A  
HETATM   28  C   UNL     1      -7.644  10.483  70.261  1.00  0.00     0.371 A  
HETATM   29  C   UNL     1      -6.924  11.590  69.799  1.00  0.00     0.082 A  
HETATM   30  C   UNL     1      -5.911  12.151  70.576  1.00  0.00    -0.119 A  
HETATM   31  C   UNL     1      -5.592  11.668  71.846  1.00  0.00     0.675 A  
HETATM   32  F   UNL     1      -5.214  13.182  70.079  1.00  0.00    -0.081 F  
ENDBRANCH  21  23
ENDBRANCH  16  17
ENDBRANCH  15  16
ENDBRANCH   3  15
TORSDOF 4
ENDMDL
MODEL      244
REMARK 921   NORMALIZED FREE ENERGY PREDICTED BY IDOCK:    5.65 KCAL/MOL
REMARK 922        TOTAL FREE ENERGY PREDICTED BY IDOCK:    6.70 KCAL/MOL
REMARK 923 INTER-LIGAND FREE ENERGY PREDICTED BY IDOCK:    4.70 KCAL/MOL
REMARK 924 INTRA-LIGAND FREE ENERGY PREDICTED BY IDOCK:    2.00 KCAL/MOL
REMARK 927      BINDING AFFINITY PREDICTED BY RF-SCORE:    0.00 PKD
ROOT
HETATM    1  C   UNL     1     -12.414  15.699  69.722  1.00  0.00    -0.130 C  
HETATM    2  C   UNL     1     -11.863  15.500  68.334  1.00  0.00    -0.224 C  
HETATM    3  C   UNL     1     -10.718  16.032  67.862  1.00  0.00    -0.316 C  
HETATM    4  C   UNL     1     -10.339  15.671  66.469  1.00  0.00    -0.291 C  
HETATM    5  O   UNL     1     -13.194  12.146  65.955  1.00  0.00     1.648 OA 
HETATM    6  C   UNL     1     -13.320  13.512  65.570  1.00  0.00     0.530 C  
HETATM    7  O   UNL     1      -9.313  16.134  65.969  1.00  0.00    -0.309 OA 
HETATM    8  N   UNL     1     -11.187  14.821  65.789  1.00  0.00    -0.334 N  
HETATM    9  C   UNL     1     -10.872  14.586  64.384  1.00  0.00    -0.055 C  
HETATM   10  N   UNL     1     -12.696  14.713  67.580  1.00  0.00     0.681 NA 
HETATM   11  C   UNL     1     -11.660  13.466  63.730  1.00  0.00    -0.362 C  
HETATM   12  C   UNL     1     -12.367  14.421  66.366  1.00  0.00    -0.271 C  
HETATM   13  C   UNL     1     -13.132  13.626  64.066  1.00  0.00     0.880 C  
HETATM   14  H   UNL     1     -13.311  12.075  66.895  1.00  0.00     0.000 HD 
ENDROOT
BRANCH   3  15
HETATM   15  C   UNL     1      -9.705  16.886  68.591  1.00  0.00    -0.267 C  
BRANCH  15  16
HETATM   16  C   UNL     1      -9.339  16.382  70.015  1.00  0.00     0.874 C  
BRANCH  16  17
HETATM   17  N   UNL     1      -8.292  15.348  70.071  1.00  0.00     0.153 NA 
HETATM   18  C   UNL     1      -9.543  13.424  69.108  1.00  0.00     0.455 C  
HETATM   19  C   UNL     1      -7.888  14.595  67.644  1.00  0.00    -0.196 C  
HETATM   20  C   UNL     1      -8.794  13.993  70.309  1.00  0.00     2.614 C  
HETATM   21  C   UNL     1      -8.579  13.251  67.926  1.00  0.00    -0.188 C  
HETATM   22  C   UNL     1      -7.397  15.353  68.894  1.00  0.00    -0.147 C  
BRANCH  21  23
HETATM   23  C   UNL     1      -7.699  12.056  68.196  1.00  0.00    -0.135 A  
HETATM   24  N   UNL     1      -7.720  11.390  69.358  1.00  0.00     0.065 NA 
HETATM   25  O   UNL     1      -7.081  10.182  69.114  1.00  0.00    -0.062 OA 
HETATM   26  C   UNL     1      -6.655  10.142  67.822  1.00  0.00    -0.067 A  
HETATM   27  C   UNL     1      -6.948  11.349  67.212  1.00  0.00    -0.115 A  
HETATM   28  C   UNL     1      -6.584  11.539  65.865  1.00  0.00     0.513 A  
HETATM   29  C   UNL     1      -5.957  10.484  65.192  1.00  0.00    -0.113 A  
HETATM   30  C   UNL     1      -5.719   9.272  65.840  1.00  0.00    -0.049 A  
HETATM   31  C   UNL     1      -6.054   9.065  67.179  1.00  0.00    -0.058 A  
HETATM   32  F   UNL     1      -5.157   8.271  65.149  1.00  0.00    -0.030 F  
ENDBRANCH  21  23
ENDBRANCH  16  17
ENDBRANCH  15  16
ENDBRANCH   3  15
TORSDOF 4
ENDMDL
MODEL      245
REMARK 921   NORMALIZED FREE ENERGY PREDICTED BY IDOCK:    7.51 KCAL/MOL
REMARK 922        TOTAL FREE ENERGY PREDICTED BY IDOCK:    8.99 KCAL/MOL
REMARK 923 INTER-LIGAND FREE ENERGY PREDICTED BY IDOCK:    0.91 KCAL/MOL
REMARK 924 INTRA-LIGAND FREE ENERGY PREDICTED BY IDOCK:    8.08 KCAL/MOL
REMARK 927      BINDING AFFINITY PREDICTED BY RF-SCORE:    0.00 PKD
ROOT
HETATM    1  C   UNL     1      -9.122  15.258  66.844  1.00  0.00    -0.263 C  
HETATM    2  C   UNL     1      -8.283  16.412  67.327  1.00  0.00    -0.168 C  
HETATM    3  C   UNL     1      -8.004  16.693  68.617  1.00  0.00    -0.236 C  
HETATM    4  C   UNL     1      -7.118  17.861  68.869  1.00  0.00    -0.264 C  
HETATM    5  O   UNL     1      -5.535  18.356  64.617  1.00  0.00    -0.150 OA 
HETATM    6  C   UNL     1      -6.600  19.013  65.297  1.00  0.00    -0.235 C  
HETATM    7  O   UNL     1      -6.836  18.182  70.024  1.00  0.00     0.196 OA 
HETATM    8  N   UNL     1      -6.656  18.548  67.765  1.00  0.00    -0.212 N  
HETATM    9  C   UNL     1      -5.902  19.767  68.035  1.00  0.00    -0.212 C  
HETATM   10  N   UNL     1      -7.843  17.178  66.278  1.00  0.00    -0.336 NA 
HETATM   11  C   UNL     1      -5.198  20.364  66.830  1.00  0.00    -0.186 C  
HETATM   12  C   UNL     1      -7.090  18.201  66.510  1.00  0.00    -0.225 C  
HETATM   13  C   UNL     1      -6.165  20.423  65.661  1.00  0.00    -0.260 C  
HETATM   14  H   UNL     1      -5.807  17.474  64.389  1.00  0.00     0.000 HD 
ENDROOT
BRANCH   3  15
HETATM   15  C   UNL     1      -8.401  15.921  69.855  1.00  0.00     0.449 C  
BRANCH  15  16
HETATM   16  C   UNL     1      -9.921  15.613  69.966  1.00  0.00    -0.155 C  
BRANCH  16  17
HETATM   17  N   UNL     1     -10.482  14.795  68.879  1.00  0.00    -0.243 NA 
HETATM   18  C   UNL     1      -8.810  12.952  68.828  1.00  0.00     0.180 C  
HETATM   19  C   UNL     1     -11.021  12.498  69.905  1.00  0.00     0.421 C  
HETATM   20  C   UNL     1      -9.481  14.094  68.071  1.00  0.00    -0.213 C  
HETATM   21  C   UNL     1      -9.844  11.863  69.149  1.00  0.00     0.246 C  
HETATM   22  C   UNL     1     -11.517  13.842  69.334  1.00  0.00    -0.286 C  
BRANCH  21  23
HETATM   23  C   UNL     1     -10.154  11.106  67.881  1.00  0.00    -0.176 A  
HETATM   24  N   UNL     1      -9.938   9.791  67.753  1.00  0.00    -0.160 NA 
HETATM   25  O   UNL     1     -10.660   9.396  66.635  1.00  0.00    -0.197 OA 
HETATM   26  C   UNL     1     -11.277  10.476  66.083  1.00  0.00     0.456 A  
HETATM   27  C   UNL     1     -10.919  11.611  66.789  1.00  0.00    -0.341 A  
HETATM   28  C   UNL     1     -11.434  12.857  66.385  1.00  0.00    -0.389 A  
HETATM   29  C   UNL     1     -12.308  12.891  65.291  1.00  0.00    -0.544 A  
HETATM   30  C   UNL     1     -12.669  11.713  64.636  1.00  0.00     0.827 A  
HETATM   31  C   UNL     1     -12.159  10.468  65.007  1.00  0.00     3.922 A  
HETATM   32  F   UNL     1     -13.543  11.782  63.623  1.00  0.00    -0.336 F  
ENDBRANCH  21  23
ENDBRANCH  16  17
ENDBRANCH  15  16
ENDBRANCH   3  15
TORSDOF 4
ENDMDL
MODEL      246
REMARK 921   NORMALIZED FREE ENERGY PREDICTED BY IDOCK:    8.14 KCAL/MOL
REMARK 922        TOTAL FREE ENERGY PREDICTED BY IDOCK:    9.77 KCAL/MOL
REMARK 923 INTER-LIGAND FREE ENERGY PREDICTED BY IDOCK:    1.61 KCAL/MOL
REMARK 924 INTRA-LIGAND FREE ENERGY PREDICTED BY IDOCK:    8.15 KCAL/MOL
REMARK 927      BINDING AFFINITY PREDICTED BY RF-SCORE:    0.00 PKD
ROOT
HETATM    1  C   UNL     1     -12.031  15.643  69.975  1.00  0.00    -0.384 C  
HETATM    2  C   UNL     1     -11.289  15.256  68.722  1.00  0.00    -0.308 C  
HETATM    3  C   UNL     1     -10.001  15.551  68.452  1.00  0.00    -0.214 C  
HETATM    4  C   UNL     1      -9.453  15.034  67.169  1.00  0.00    -0.216 C  
HETATM    5  O   UNL     1     -12.760  12.020  66.265  1.00  0.00     0.569 OA 
HETATM    6  C   UNL     1     -12.567  13.357  65.812  1.00  0.00    -0.393 C  
HETATM    7  O   UNL     1      -8.289  15.279  66.853  1.00  0.00    -0.216 OA 
HETATM    8  N   UNL     1     -10.306  14.295  66.376  1.00  0.00    -0.280 N  
HETATM    9  C   UNL     1      -9.795  13.911  65.064  1.00  0.00    -0.046 C  
HETATM   10  N   UNL     1     -12.102  14.572  67.857  1.00  0.00    -0.286 NA 
HETATM   11  C   UNL     1     -10.644  12.900  64.317  1.00  0.00    -0.430 C  
HETATM   12  C   UNL     1     -11.622  14.144  66.737  1.00  0.00    -0.391 C  
HETATM   13  C   UNL     1     -12.099  13.330  64.366  1.00  0.00    -0.471 C  
HETATM   14  H   UNL     1     -13.052  12.036  67.169  1.00  0.00     0.000 HD 
ENDROOT
BRANCH   3  15
HETATM   15  C   UNL     1      -8.996  16.270  69.324  1.00  0.00    -0.170 C  
BRANCH  15  16
HETATM   16  C   UNL     1      -8.389  15.402  70.463  1.00  0.00     1.488 C  
BRANCH  16  17
HETATM   17  N   UNL     1      -8.309  13.958  70.184  1.00  0.00     1.847 NA 
HETATM   18  C   UNL     1      -7.258  14.017  67.929  1.00  0.00    -0.164 C  
HETATM   19  C   UNL     1      -5.813  13.415  69.880  1.00  0.00    -0.127 C  
HETATM   20  C   UNL     1      -8.462  13.606  68.770  1.00  0.00     0.056 C  
HETATM   21  C   UNL     1      -6.020  13.223  68.369  1.00  0.00    -0.090 C  
HETATM   22  C   UNL     1      -7.094  13.319  70.733  1.00  0.00     2.420 C  
BRANCH  21  23
HETATM   23  C   UNL     1      -6.148  11.810  67.855  1.00  0.00    -0.050 A  
HETATM   24  N   UNL     1      -5.964  11.490  66.568  1.00  0.00    -0.139 NA 
HETATM   25  O   UNL     1      -5.801  10.112  66.540  1.00  0.00    -0.056 OA 
HETATM   26  C   UNL     1      -5.918   9.611  67.800  1.00  0.00    -0.051 A  
HETATM   27  C   UNL     1      -6.225  10.643  68.670  1.00  0.00    -0.046 A  
HETATM   28  C   UNL     1      -6.406  10.354  70.036  1.00  0.00    -0.111 A  
HETATM   29  C   UNL     1      -6.245   9.029  70.460  1.00  0.00    -0.045 A  
HETATM   30  C   UNL     1      -5.897   8.031  69.550  1.00  0.00    -0.027 A  
HETATM   31  C   UNL     1      -5.728   8.289  68.190  1.00  0.00    -0.035 A  
HETATM   32  F   UNL     1      -5.707   6.785  70.003  1.00  0.00    -0.020 F  
ENDBRANCH  21  23
ENDBRANCH  16  17
ENDBRANCH  15  16
ENDBRANCH   3  15
TORSDOF 4
ENDMDL
MODEL      247
REMARK 921   NORMALIZED FREE ENERGY PREDICTED BY IDOCK:    8.57 KCAL/MOL
REMARK 922        TOTAL FREE ENERGY PREDICTED BY IDOCK:   10.30 KCAL/MOL
REMARK 923 INTER-LIGAND FREE ENERGY PREDICTED BY IDOCK:    9.14 KCAL/MOL
REMARK 924 INTRA-LIGAND FREE ENERGY PREDICTED BY IDOCK:    1.15 KCAL/MOL
REMARK 927      BINDING AFFINITY PREDICTED BY RF-SCORE:    0.00 PKD
ROOT
HETATM    1  C   UNL     1      -5.910   9.579  69.521  1.00  0.00    -0.033 C  
HETATM    2  C   UNL     1      -7.303   9.078  69.243  1.00  0.00    -0.070 C  
HETATM    3  C   UNL     1      -8.442   9.762  69.471  1.00  0.00    -0.176 C  
HETATM    4  C   UNL     1      -9.712   9.092  69.083  1.00  0.00    -0.167 C  
HETATM    5  O   UNL     1      -7.900   5.816  66.472  1.00  0.00    -0.099 OA 
HETATM    6  C   UNL     1      -8.306   5.802  67.837  1.00  0.00    -0.104 C  
HETATM    7  O   UNL     1     -10.790   9.654  69.277  1.00  0.00    -0.224 OA 
HETATM    8  N   UNL     1      -9.612   7.836  68.520  1.00  0.00    -0.148 N  
HETATM    9  C   UNL     1     -10.870   7.140  68.270  1.00  0.00    -0.100 C  
HETATM   10  N   UNL     1      -7.278   7.802  68.740  1.00  0.00    -0.079 NA 
HETATM   11  C   UNL     1     -10.749   5.882  67.431  1.00  0.00    -0.370 C  
HETATM   12  C   UNL     1      -8.388   7.222  68.424  1.00  0.00    -0.125 C  
HETATM   13  C   UNL     1      -9.610   5.030  67.962  1.00  0.00    -0.181 C  
HETATM   14  H   UNL     1      -7.084   6.298  66.393  1.00  0.00     0.000 HD 
ENDROOT
BRANCH   3  15
HETATM   15  C   UNL     1      -8.605  11.172  69.992  1.00  0.00     1.530 C  
BRANCH  15  16
HETATM   16  C   UNL     1      -7.549  11.597  71.051  1.00  0.00     5.429 C  
BRANCH  16  17
HETATM   17  N   UNL     1      -6.674  12.715  70.660  1.00  0.00     0.712 NA 
HETATM   18  C   UNL     1      -7.661  13.272  68.444  1.00  0.00    -0.138 C  
HETATM   19  C   UNL     1      -8.203  14.765  70.375  1.00  0.00     1.214 C  
HETATM   20  C   UNL     1      -6.429  12.815  69.219  1.00  0.00    -0.105 C  
HETATM   21  C   UNL     1      -8.030  14.706  68.849  1.00  0.00    -0.149 C  
HETATM   22  C   UNL     1      -7.121  14.023  71.186  1.00  0.00     2.036 C  
BRANCH  21  23
HETATM   23  C   UNL     1      -7.038  15.653  68.221  1.00  0.00    -0.113 A  
HETATM   24  N   UNL     1      -5.715  15.452  68.274  1.00  0.00    -0.109 NA 
HETATM   25  O   UNL     1      -5.166  16.288  67.311  1.00  0.00    -0.223 OA 
HETATM   26  C   UNL     1      -6.155  17.004  66.709  1.00  0.00    -0.204 A  
HETATM   27  C   UNL     1      -7.363  16.700  67.311  1.00  0.00    -0.203 A  
HETATM   28  C   UNL     1      -8.532  17.338  66.855  1.00  0.00    -0.251 A  
HETATM   29  C   UNL     1      -8.423  18.242  65.791  1.00  0.00     0.346 A  
HETATM   30  C   UNL     1      -7.187  18.485  65.192  1.00  0.00     0.674 A  
HETATM   31  C   UNL     1      -6.012  17.878  65.637  1.00  0.00    -0.189 A  
HETATM   32  F   UNL     1      -7.131  19.321  64.148  1.00  0.00     0.762 F  
ENDBRANCH  21  23
ENDBRANCH  16  17
ENDBRANCH  15  16
ENDBRANCH   3  15
TORSDOF 4
ENDMDL
MODEL      248
REMARK 921   NORMALIZED FREE ENERGY PREDICTED BY IDOCK:   10.03 KCAL/MOL
REMARK 922        TOTAL FREE ENERGY PREDICTED BY IDOCK:   12.10 KCAL/MOL
REMARK 923 INTER-LIGAND FREE ENERGY PREDICTED BY IDOCK:    2.01 KCAL/MOL
REMARK 924 INTRA-LIGAND FREE ENERGY PREDICTED BY IDOCK:   10.09 KCAL/MOL
REMARK 927      BINDING AFFINITY PREDICTED BY RF-SCORE:    0.00 PKD
ROOT
HETATM    1  C   UNL     1     -12.159  11.394  65.544  1.00  0.00     1.051 C  
HETATM    2  C   UNL     1     -11.120  10.626  66.319  1.00  0.00     0.154 C  
HETATM    3  C   UNL     1     -10.038  11.160  66.921  1.00  0.00    -0.250 C  
HETATM    4  C   UNL     1      -9.161  10.221  67.671  1.00  0.00    -0.144 C  
HETATM    5  O   UNL     1     -12.055   6.696  67.855  1.00  0.00     0.453 OA 
HETATM    6  C   UNL     1     -10.987   6.980  66.955  1.00  0.00    -0.201 C  
HETATM    7  O   UNL     1      -8.147  10.639  68.231  1.00  0.00    -0.109 OA 
HETATM    8  N   UNL     1      -9.534   8.893  67.689  1.00  0.00    -0.136 N  
HETATM    9  C   UNL     1      -8.593   7.968  68.312  1.00  0.00    -0.130 C  
HETATM   10  N   UNL     1     -11.397   9.283  66.321  1.00  0.00     1.677 NA 
HETATM   11  C   UNL     1      -9.130   6.568  68.542  1.00  0.00    -0.127 C  
HETATM   12  C   UNL     1     -10.619   8.474  66.959  1.00  0.00    -0.235 C  
HETATM   13  C   UNL     1      -9.809   6.075  67.277  1.00  0.00    -0.155 C  
HETATM   14  H   UNL     1     -12.792   7.261  67.653  1.00  0.00     0.000 HD 
ENDROOT
BRANCH   3  15
HETATM   15  C   UNL     1      -9.635  12.614  67.015  1.00  0.00    -0.219 C  
BRANCH  15  16
HETATM   16  C   UNL     1      -8.161  12.850  67.449  1.00  0.00    -0.181 C  
BRANCH  16  17
HETATM   17  N   UNL     1      -7.916  12.824  68.901  1.00  0.00     0.091 NA 
HETATM   18  C   UNL     1      -6.559  10.744  69.066  1.00  0.00    -0.058 C  
HETATM   19  C   UNL     1      -5.364  12.936  69.208  1.00  0.00    -0.074 C  
HETATM   20  C   UNL     1      -7.832  11.479  69.476  1.00  0.00     0.446 C  
HETATM   21  C   UNL     1      -5.333  11.463  69.646  1.00  0.00    -0.055 C  
HETATM   22  C   UNL     1      -6.742  13.622  69.314  1.00  0.00    -0.094 C  
BRANCH  21  23
HETATM   23  C   UNL     1      -5.262  11.175  71.125  1.00  0.00    -0.098 A  
HETATM   24  N   UNL     1      -5.211  12.144  72.048  1.00  0.00    -0.365 NA 
HETATM   25  O   UNL     1      -5.519  11.534  73.256  1.00  0.00     0.202 OA 
HETATM   26  C   UNL     1      -5.723  10.203  73.057  1.00  0.00     0.689 A  
HETATM   27  C   UNL     1      -5.488   9.903  71.727  1.00  0.00    -0.013 A  
HETATM   28  C   UNL     1      -5.627   8.571  71.293  1.00  0.00    -0.035 A  
HETATM   29  C   UNL     1      -6.021   7.606  72.227  1.00  0.00    -0.039 A  
HETATM   30  C   UNL     1      -6.284   7.966  73.549  1.00  0.00    -0.077 A  
HETATM   31  C   UNL     1      -6.137   9.275  74.008  1.00  0.00     0.129 A  
HETATM   32  F   UNL     1      -6.703   7.022  74.402  1.00  0.00    -0.084 F  
ENDBRANCH  21  23
ENDBRANCH  16  17
ENDBRANCH  15  16
ENDBRANCH   3  15
TORSDOF 4
ENDMDL
MODEL      249
REMARK 921   NORMALIZED FREE ENERGY PREDICTED BY IDOCK:   15.18 KCAL/MOL
REMARK 922        TOTAL FREE ENERGY PREDICTED BY IDOCK:   18.45 KCAL/MOL
REMARK 923 INTER-LIGAND FREE ENERGY PREDICTED BY IDOCK:   14.16 KCAL/MOL
REMARK 924 INTRA-LIGAND FREE ENERGY PREDICTED BY IDOCK:    4.29 KCAL/MOL
REMARK 927      BINDING AFFINITY PREDICTED BY RF-SCORE:    0.00 PKD
ROOT
HETATM    1  C   UNL     1     -12.552  15.871  70.204  1.00  0.00     0.007 C  
HETATM    2  C   UNL     1     -11.936  15.780  68.832  1.00  0.00    -0.252 C  
HETATM    3  C   UNL     1     -10.723  16.255  68.485  1.00  0.00    -0.307 C  
HETATM    4  C   UNL     1     -10.291  16.019  67.081  1.00  0.00    -0.295 C  
HETATM    5  O   UNL     1     -13.398  12.851  66.010  1.00  0.00     0.581 OA 
HETATM    6  C   UNL     1     -13.384  14.258  65.782  1.00  0.00     0.655 C  
HETATM    7  O   UNL     1      -9.201  16.440  66.692  1.00  0.00    -0.222 OA 
HETATM    8  N   UNL     1     -11.165  15.333  66.263  1.00  0.00    -0.278 N  
HETATM    9  C   UNL     1     -10.785  15.229  64.858  1.00  0.00    -0.400 C  
HETATM   10  N   UNL     1     -12.784  15.162  67.949  1.00  0.00     1.034 NA 
HETATM   11  C   UNL     1     -11.624  14.268  64.037  1.00  0.00    -0.100 C  
HETATM   12  C   UNL     1     -12.407  14.980  66.727  1.00  0.00     0.472 C  
HETATM   13  C   UNL     1     -13.095  14.522  64.313  1.00  0.00     0.950 C  
HETATM   14  H   UNL     1     -13.578  12.686  66.928  1.00  0.00     0.000 HD 
ENDROOT
BRANCH   3  15
HETATM   15  C   UNL     1      -9.688  16.926  69.360  1.00  0.00    -0.012 C  
BRANCH  15  16
HETATM   16  C   UNL     1      -9.618  16.379  70.814  1.00  0.00     2.538 C  
BRANCH  16  17
HETATM   17  N   UNL     1      -9.040  15.032  70.956  1.00  0.00     2.105 NA 
HETATM   18  C   UNL     1     -11.052  13.652  70.464  1.00  0.00     0.775 C  
HETATM   19  C   UNL     1      -9.320  13.878  68.674  1.00  0.00    -0.106 C  
HETATM   20  C   UNL     1      -9.972  14.027  71.474  1.00  0.00     5.797 C  
HETATM   21  C   UNL     1     -10.413  12.964  69.249  1.00  0.00     0.204 C  
HETATM   22  C   UNL     1      -8.397  14.534  69.722  1.00  0.00     0.503 C  
BRANCH  21  23
HETATM   23  C   UNL     1     -10.016  11.563  69.645  1.00  0.00     0.731 A  
HETATM   24  N   UNL     1     -10.537  10.938  70.708  1.00  0.00     1.016 NA 
HETATM   25  O   UNL     1     -10.228   9.594  70.546  1.00  0.00    -0.264 OA 
HETATM   26  C   UNL     1      -9.501   9.426  69.408  1.00  0.00    -0.173 A  
HETATM   27  C   UNL     1      -9.263  10.663  68.836  1.00  0.00    -0.189 A  
HETATM   28  C   UNL     1      -8.513  10.732  67.647  1.00  0.00    -0.119 A  
HETATM   29  C   UNL     1      -8.056   9.536  67.080  1.00  0.00    -0.113 A  
HETATM   30  C   UNL     1      -8.356   8.311  67.674  1.00  0.00    -0.127 A  
HETATM   31  C   UNL     1      -9.083   8.217  68.861  1.00  0.00    -0.147 A  
HETATM   32  F   UNL     1      -7.940   7.186  67.077  1.00  0.00    -0.104 F  
ENDBRANCH  21  23
ENDBRANCH  16  17
ENDBRANCH  15  16
ENDBRANCH   3  15
TORSDOF 4
ENDMDL
MODEL      250
REMARK 921   NORMALIZED FREE ENERGY PREDICTED BY IDOCK:   17.64 KCAL/MOL
REMARK 922        TOTAL FREE ENERGY PREDICTED BY IDOCK:   21.49 KCAL/MOL
REMARK 923 INTER-LIGAND FREE ENERGY PREDICTED BY IDOCK:   21.18 KCAL/MOL
REMARK 924 INTRA-LIGAND FREE ENERGY PREDICTED BY IDOCK:    0.32 KCAL/MOL
REMARK 927      BINDING AFFINITY PREDICTED BY RF-SCORE:    0.00 PKD
ROOT
HETATM    1  C   UNL     1     -11.579   9.797  71.919  1.00  0.00    -0.038 C  
HETATM    2  C   UNL     1     -11.075   9.530  70.525  1.00  0.00    -0.283 C  
HETATM    3  C   UNL     1     -11.645   9.975  69.387  1.00  0.00    -0.084 C  
HETATM    4  C   UNL     1     -10.955   9.628  68.115  1.00  0.00    -0.132 C  
HETATM    5  O   UNL     1      -6.968   8.330  69.917  1.00  0.00    -0.043 OA 
HETATM    6  C   UNL     1      -8.102   7.566  69.515  1.00  0.00    -0.128 C  
HETATM    7  O   UNL     1     -11.430   9.989  67.038  1.00  0.00     0.058 OA 
HETATM    8  N   UNL     1      -9.794   8.889  68.213  1.00  0.00    -0.162 N  
HETATM    9  C   UNL     1      -9.207   8.444  66.954  1.00  0.00    -0.157 C  
HETATM   10  N   UNL     1      -9.953   8.741  70.547  1.00  0.00    -0.181 NA 
HETATM   11  C   UNL     1      -7.813   7.855  67.070  1.00  0.00    -0.108 C  
HETATM   12  C   UNL     1      -9.373   8.430  69.436  1.00  0.00    -0.154 C  
HETATM   13  C   UNL     1      -7.785   6.853  68.211  1.00  0.00    -0.113 C  
HETATM   14  H   UNL     1      -7.166   8.776  70.733  1.00  0.00     0.000 HD 
ENDROOT
BRANCH   3  15
HETATM   15  C   UNL     1     -12.856  10.866  69.226  1.00  0.00     0.751 C  
BRANCH  15  16
HETATM   16  C   UNL     1     -12.664  12.047  68.234  1.00  0.00     1.941 C  
BRANCH  16  17
HETATM   17  N   UNL     1     -12.409  13.358  68.853  1.00  0.00    -0.105 NA 
HETATM   18  C   UNL     1     -10.171  12.928  69.854  1.00  0.00     1.674 C  
HETATM   19  C   UNL     1     -10.274  14.277  67.750  1.00  0.00    -0.235 C  
HETATM   20  C   UNL     1     -11.631  13.300  70.093  1.00  0.00    -0.084 C  
HETATM   21  C   UNL     1      -9.478  14.032  69.042  1.00  0.00     0.108 C  
HETATM   22  C   UNL     1     -11.805  14.339  67.926  1.00  0.00    -0.358 C  
BRANCH  21  23
HETATM   23  C   UNL     1      -9.236  15.214  69.949  1.00  0.00     0.138 A  
HETATM   24  N   UNL     1      -9.750  15.295  71.183  1.00  0.00     1.406 NA 
HETATM   25  O   UNL     1      -9.038  16.300  71.824  1.00  0.00     6.064 OA 
HETATM   26  C   UNL     1      -8.127  16.834  70.966  1.00  0.00     5.837 A  
HETATM   27  C   UNL     1      -8.268  16.235  69.727  1.00  0.00     0.535 A  
HETATM   28  C   UNL     1      -7.429  16.644  68.672  1.00  0.00    -0.211 A  
HETATM   29  C   UNL     1      -6.470  17.630  68.931  1.00  0.00    -0.215 A  
HETATM   30  C   UNL     1      -6.342  18.175  70.208  1.00  0.00     0.300 A  
HETATM   31  C   UNL     1      -7.171  17.799  71.266  1.00  0.00     5.340 A  
HETATM   32  F   UNL     1      -5.382  19.083  70.428  1.00  0.00    -0.188 F  
ENDBRANCH  21  23
ENDBRANCH  16  17
ENDBRANCH  15  16
ENDBRANCH   3  15
TORSDOF 4
ENDMDL
MODEL      251
REMARK 921   NORMALIZED FREE ENERGY PREDICTED BY IDOCK:   18.96 KCAL/MOL
REMARK 922        TOTAL FREE ENERGY PREDICTED BY IDOCK:   23.12 KCAL/MOL
REMARK 923 INTER-LIGAND FREE ENERGY PREDICTED BY IDOCK:   13.96 KCAL/MOL
REMARK 924 INTRA-LIGAND FREE ENERGY PREDICTED BY IDOCK:    9.16 KCAL/MOL
REMARK 927      BINDING AFFINITY PREDICTED BY RF-SCORE:    0.00 PKD
ROOT
HETATM    1  C   UNL     1      -9.745  14.970  67.912  1.00  0.00    -0.212 C  
HETATM    2  C   UNL     1      -9.075  16.113  68.629  1.00  0.00    -0.218 C  
HETATM    3  C   UNL     1      -9.100  16.325  69.961  1.00  0.00     0.904 C  
HETATM    4  C   UNL     1      -8.333  17.496  70.465  1.00  0.00     4.272 C  
HETATM    5  O   UNL     1      -5.858  18.267  66.708  1.00  0.00    -0.142 OA 
HETATM    6  C   UNL     1      -7.071  18.860  67.164  1.00  0.00    -0.204 C  
HETATM    7  O   UNL     1      -8.327  17.757  71.668  1.00  0.00     9.682 OA 
HETATM    8  N   UNL     1      -7.660  18.254  69.529  1.00  0.00     0.210 N  
HETATM    9  C   UNL     1      -7.026  19.472  70.023  1.00  0.00     0.038 C  
HETATM   10  N   UNL     1      -8.438  16.946  67.746  1.00  0.00    -0.193 NA 
HETATM   11  C   UNL     1      -6.092  20.152  69.039  1.00  0.00    -0.352 C  
HETATM   12  C   UNL     1      -7.791  17.971  68.192  1.00  0.00    -0.272 C  
HETATM   13  C   UNL     1      -6.775  20.257  67.687  1.00  0.00    -0.300 C  
HETATM   14  H   UNL     1      -6.043  17.394  66.380  1.00  0.00     0.000 HD 
ENDROOT
BRANCH   3  15
HETATM   15  C   UNL     1      -9.737  15.475  71.038  1.00  0.00     1.615 C  
BRANCH  15  16
HETATM   16  C   UNL     1     -11.243  15.165  70.810  1.00  0.00    -0.286 C  
BRANCH  16  17
HETATM   17  N   UNL     1     -11.560  14.440  69.569  1.00  0.00    -0.286 NA 
HETATM   18  C   UNL     1      -9.617  12.888  69.475  1.00  0.00     1.374 C  
HETATM   19  C   UNL     1     -11.818  11.965  70.221  1.00  0.00    -0.368 C  
HETATM   20  C   UNL     1     -10.387  14.018  68.799  1.00  0.00    -0.222 C  
HETATM   21  C   UNL     1     -10.488  11.625  69.531  1.00  0.00     0.175 C  
HETATM   22  C   UNL     1     -12.468  13.290  69.774  1.00  0.00    -0.013 C  
BRANCH  21  23
HETATM   23  C   UNL     1     -10.551  11.024  68.148  1.00  0.00    -0.191 A  
HETATM   24  N   UNL     1     -11.708  10.768  67.524  1.00  0.00    -0.423 NA 
HETATM   25  O   UNL     1     -11.383  10.578  66.188  1.00  0.00     0.204 OA 
HETATM   26  C   UNL     1     -10.037  10.690  66.024  1.00  0.00    -0.250 A  
HETATM   27  C   UNL     1      -9.446  10.890  67.258  1.00  0.00    -0.176 A  
HETATM   28  C   UNL     1      -8.046  11.023  67.332  1.00  0.00    -0.122 A  
HETATM   29  C   UNL     1      -7.311  10.967  66.142  1.00  0.00    -0.103 A  
HETATM   30  C   UNL     1      -7.958  10.802  64.917  1.00  0.00     0.108 A  
HETATM   31  C   UNL     1      -9.342  10.652  64.819  1.00  0.00    -0.276 A  
HETATM   32  F   UNL     1      -7.224  10.800  63.796  1.00  0.00    -0.013 F  
ENDBRANCH  21  23
ENDBRANCH  16  17
ENDBRANCH  15  16
ENDBRANCH   3  15
TORSDOF 4
ENDMDL
MODEL      252
REMARK 921   NORMALIZED FREE ENERGY PREDICTED BY IDOCK:   20.35 KCAL/MOL
REMARK 922        TOTAL FREE ENERGY PREDICTED BY IDOCK:   24.83 KCAL/MOL
REMARK 923 INTER-LIGAND FREE ENERGY PREDICTED BY IDOCK:   21.36 KCAL/MOL
REMARK 924 INTRA-LIGAND FREE ENERGY PREDICTED BY IDOCK:    3.47 KCAL/MOL
REMARK 927      BINDING AFFINITY PREDICTED BY RF-SCORE:    0.00 PKD
ROOT
HETATM    1  C   UNL     1      -8.427   6.765  66.150  1.00  0.00    -0.135 C  
HETATM    2  C   UNL     1      -9.662   7.310  66.818  1.00  0.00    -0.198 C  
HETATM    3  C   UNL     1     -10.541   8.167  66.260  1.00  0.00     0.685 C  
HETATM    4  C   UNL     1     -11.719   8.546  67.085  1.00  0.00     3.293 C  
HETATM    5  O   UNL     1     -11.346   5.258  70.228  1.00  0.00     0.311 OA 
HETATM    6  C   UNL     1     -10.900   6.611  70.237  1.00  0.00    -0.271 C  
HETATM    7  O   UNL     1     -12.552   9.338  66.643  1.00  0.00     8.069 OA 
HETATM    8  N   UNL     1     -11.812   7.983  68.341  1.00  0.00     1.961 N  
HETATM    9  C   UNL     1     -12.899   8.469  69.185  1.00  0.00     5.041 C  
HETATM   10  N   UNL     1      -9.781   6.838  68.100  1.00  0.00    -0.128 NA 
HETATM   11  C   UNL     1     -13.132   7.667  70.452  1.00  0.00     0.822 C  
HETATM   12  C   UNL     1     -10.798   7.189  68.814  1.00  0.00    -0.120 C  
HETATM   13  C   UNL     1     -11.804   7.427  71.147  1.00  0.00    -0.330 C  
HETATM   14  H   UNL     1     -10.781   4.747  69.659  1.00  0.00     0.000 HD 
ENDROOT
BRANCH   3  15
HETATM   15  C   UNL     1     -10.540   8.738  64.859  1.00  0.00     4.379 C  
BRANCH  15  16
HETATM   16  C   UNL     1     -10.698  10.283  64.789  1.00  0.00     0.583 C  
BRANCH  16  17
HETATM   17  N   UNL     1     -10.187  11.024  65.954  1.00  0.00    -0.247 NA 
HETATM   18  C   UNL     1      -9.626  13.191  64.866  1.00  0.00     0.254 C  
HETATM   19  C   UNL     1     -11.716  13.074  66.235  1.00  0.00    -0.440 C  
HETATM   20  C   UNL     1      -9.121  11.979  65.643  1.00  0.00     0.078 C  
HETATM   21  C   UNL     1     -10.595  14.002  65.739  1.00  0.00    -0.303 C  
HETATM   22  C   UNL     1     -11.248  11.693  66.737  1.00  0.00    -0.308 C  
BRANCH  21  23
HETATM   23  C   UNL     1      -9.796  14.750  66.777  1.00  0.00    -0.255 A  
HETATM   24  N   UNL     1     -10.252  15.853  67.382  1.00  0.00    -0.264 NA 
HETATM   25  O   UNL     1      -9.440  16.039  68.493  1.00  0.00    -0.204 OA 
HETATM   26  C   UNL     1      -8.487  15.068  68.531  1.00  0.00    -0.163 A  
HETATM   27  C   UNL     1      -8.614  14.266  67.411  1.00  0.00    -0.223 A  
HETATM   28  C   UNL     1      -7.718  13.194  67.233  1.00  0.00    -0.107 A  
HETATM   29  C   UNL     1      -6.745  12.974  68.215  1.00  0.00    -0.096 A  
HETATM   30  C   UNL     1      -6.682  13.787  69.346  1.00  0.00    -0.079 A  
HETATM   31  C   UNL     1      -7.548  14.865  69.537  1.00  0.00    -0.137 A  
HETATM   32  F   UNL     1      -5.766  13.516  70.284  1.00  0.00    -0.106 F  
ENDBRANCH  21  23
ENDBRANCH  16  17
ENDBRANCH  15  16
ENDBRANCH   3  15
TORSDOF 4
ENDMDL
MODEL      253
REMARK 921   NORMALIZED FREE ENERGY PREDICTED BY IDOCK:   23.09 KCAL/MOL
REMARK 922        TOTAL FREE ENERGY PREDICTED BY IDOCK:   28.21 KCAL/MOL
REMARK 923 INTER-LIGAND FREE ENERGY PREDICTED BY IDOCK:   22.00 KCAL/MOL
REMARK 924 INTRA-LIGAND FREE ENERGY PREDICTED BY IDOCK:    6.21 KCAL/MOL
REMARK 927      BINDING AFFINITY PREDICTED BY RF-SCORE:    0.00 PKD
ROOT
HETATM    1  C   UNL     1      -5.300  15.675  68.757  1.00  0.00    -0.100 C  
HETATM    2  C   UNL     1      -5.904  14.460  69.411  1.00  0.00    -0.098 C  
HETATM    3  C   UNL     1      -6.706  14.472  70.495  1.00  0.00     0.124 C  
HETATM    4  C   UNL     1      -7.228  13.156  70.954  1.00  0.00     3.447 C  
HETATM    5  O   UNL     1      -6.224  10.761  67.200  1.00  0.00    -0.058 OA 
HETATM    6  C   UNL     1      -5.516  10.911  68.427  1.00  0.00    -0.043 C  
HETATM    7  O   UNL     1      -7.953  13.093  71.947  1.00  0.00     9.001 OA 
HETATM    8  N   UNL     1      -6.852  12.045  70.227  1.00  0.00     0.601 N  
HETATM    9  C   UNL     1      -7.261  10.753  70.769  1.00  0.00     1.420 C  
HETATM   10  N   UNL     1      -5.516  13.310  68.775  1.00  0.00    -0.071 NA 
HETATM   11  C   UNL     1      -7.056   9.575  69.835  1.00  0.00    -0.084 C  
HETATM   12  C   UNL     1      -5.959  12.171  69.192  1.00  0.00    -0.075 C  
HETATM   13  C   UNL     1      -5.659   9.638  69.245  1.00  0.00    -0.035 C  
HETATM   14  H   UNL     1      -6.135  11.557  66.689  1.00  0.00     0.000 HD 
ENDROOT
BRANCH   3  15
HETATM   15  C   UNL     1      -7.227  15.663  71.269  1.00  0.00     2.735 C  
BRANCH  15  16
HETATM   16  C   UNL     1      -6.165  16.759  71.561  1.00  0.00     2.293 C  
BRANCH  16  17
HETATM   17  N   UNL     1      -6.134  17.881  70.608  1.00  0.00     0.298 NA 
HETATM   18  C   UNL     1      -7.689  17.008  68.872  1.00  0.00    -0.231 C  
HETATM   19  C   UNL     1      -8.548  18.756  70.441  1.00  0.00     2.708 C  
HETATM   20  C   UNL     1      -6.279  17.487  69.205  1.00  0.00    -0.239 C  
HETATM   21  C   UNL     1      -8.683  18.167  69.028  1.00  0.00    -0.018 C  
HETATM   22  C   UNL     1      -7.099  18.954  70.932  1.00  0.00     2.144 C  
BRANCH  21  23
HETATM   23  C   UNL     1      -8.512  19.107  67.860  1.00  0.00    -0.300 A  
HETATM   24  N   UNL     1      -8.885  20.392  67.906  1.00  0.00    -0.154 NA 
HETATM   25  O   UNL     1      -8.257  21.007  66.832  1.00  0.00    -0.045 OA 
HETATM   26  C   UNL     1      -7.539  20.087  66.133  1.00  0.00    -0.306 A  
HETATM   27  C   UNL     1      -7.734  18.839  66.696  1.00  0.00    -0.262 A  
HETATM   28  C   UNL     1      -7.092  17.724  66.124  1.00  0.00    -0.347 A  
HETATM   29  C   UNL     1      -6.262  17.932  65.016  1.00  0.00     0.420 A  
HETATM   30  C   UNL     1      -6.067  19.217  64.509  1.00  0.00    -0.199 A  
HETATM   31  C   UNL     1      -6.705  20.335  65.048  1.00  0.00    -0.321 A  
HETATM   32  F   UNL     1      -5.229  19.381  63.477  1.00  0.00    -0.201 F  
ENDBRANCH  21  23
ENDBRANCH  16  17
ENDBRANCH  15  16
ENDBRANCH   3  15
TORSDOF 4
ENDMDL
MODEL      254
REMARK 921   NORMALIZED FREE ENERGY PREDICTED BY IDOCK:   27.70 KCAL/MOL
REMARK 922        TOTAL FREE ENERGY PREDICTED BY IDOCK:   33.91 KCAL/MOL
REMARK 923 INTER-LIGAND FREE ENERGY PREDICTED BY IDOCK:   33.04 KCAL/MOL
REMARK 924 INTRA-LIGAND FREE ENERGY PREDICTED BY IDOCK:    0.87 KCAL/MOL
REMARK 927      BINDING AFFINITY PREDICTED BY RF-SCORE:    0.00 PKD
ROOT
HETATM    1  C   UNL     1      -7.951   9.011  70.452  1.00  0.00    -0.134 C  
HETATM    2  C   UNL     1      -7.834   9.678  69.107  1.00  0.00    -0.090 C  
HETATM    3  C   UNL     1      -7.774  11.009  68.895  1.00  0.00    -0.140 C  
HETATM    4  C   UNL     1      -7.617  11.453  67.484  1.00  0.00    -0.117 C  
HETATM    5  O   UNL     1      -6.390   7.431  65.710  1.00  0.00    -0.040 OA 
HETATM    6  C   UNL     1      -7.660   8.073  65.774  1.00  0.00    -0.083 C  
HETATM    7  O   UNL     1      -7.572  12.655  67.218  1.00  0.00    -0.153 OA 
HETATM    8  N   UNL     1      -7.541  10.468  66.521  1.00  0.00    -0.121 N  
HETATM    9  C   UNL     1      -7.523  10.923  65.135  1.00  0.00     0.259 C  
HETATM   10  N   UNL     1      -7.818   8.753  68.095  1.00  0.00    -0.101 NA 
HETATM   11  C   UNL     1      -7.190   9.852  64.114  1.00  0.00    -0.134 C  
HETATM   12  C   UNL     1      -7.701   9.151  66.872  1.00  0.00    -0.098 C  
HETATM   13  C   UNL     1      -8.017   8.611  64.398  1.00  0.00    -0.146 C  
HETATM   14  H   UNL     1      -6.167   7.094  66.570  1.00  0.00     0.000 HD 
ENDROOT
BRANCH   3  15
HETATM   15  C   UNL     1      -7.756  12.125  69.916  1.00  0.00     1.586 C  
BRANCH  15  16
HETATM   16  C   UNL     1      -9.162  12.626  70.352  1.00  0.00     5.778 C  
BRANCH  16  17
HETATM   17  N   UNL     1      -9.600  13.892  69.741  1.00  0.00     1.013 NA 
HETATM   18  C   UNL     1     -12.058  13.502  69.674  1.00  0.00    -0.365 C  
HETATM   19  C   UNL     1     -11.160  15.018  71.449  1.00  0.00    -0.161 C  
HETATM   20  C   UNL     1     -10.781  13.771  68.883  1.00  0.00    -0.227 C  
HETATM   21  C   UNL     1     -12.380  14.708  70.568  1.00  0.00    -0.400 C  
HETATM   22  C   UNL     1      -9.800  14.980  70.722  1.00  0.00     1.066 C  
BRANCH  21  23
HETATM   23  C   UNL     1     -12.915  15.820  69.699  1.00  0.00     0.719 A  
HETATM   24  N   UNL     1     -14.098  16.407  69.924  1.00  0.00     3.782 NA 
HETATM   25  O   UNL     1     -14.084  17.582  69.184  1.00  0.00     9.193 OA 
HETATM   26  C   UNL     1     -12.912  17.678  68.499  1.00  0.00     7.097 A  
HETATM   27  C   UNL     1     -12.162  16.537  68.725  1.00  0.00     0.952 A  
HETATM   28  C   UNL     1     -10.905  16.412  68.101  1.00  0.00    -0.346 A  
HETATM   29  C   UNL     1     -10.458  17.464  67.293  1.00  0.00    -0.321 A  
HETATM   30  C   UNL     1     -11.235  18.610  67.129  1.00  0.00     0.344 A  
HETATM   31  C   UNL     1     -12.490  18.751  67.722  1.00  0.00     4.929 A  
HETATM   32  F   UNL     1     -10.752  19.614  66.384  1.00  0.00    -0.505 F  
ENDBRANCH  21  23
ENDBRANCH  16  17
ENDBRANCH  15  16
ENDBRANCH   3  15
TORSDOF 4
ENDMDL
MODEL      255
REMARK 921   NORMALIZED FREE ENERGY PREDICTED BY IDOCK:   28.11 KCAL/MOL
REMARK 922        TOTAL FREE ENERGY PREDICTED BY IDOCK:   34.41 KCAL/MOL
REMARK 923 INTER-LIGAND FREE ENERGY PREDICTED BY IDOCK:   27.94 KCAL/MOL
REMARK 924 INTRA-LIGAND FREE ENERGY PREDICTED BY IDOCK:    6.47 KCAL/MOL
REMARK 927      BINDING AFFINITY PREDICTED BY RF-SCORE:    0.00 PKD
ROOT
HETATM    1  C   UNL     1     -11.455  15.589  70.835  1.00  0.00    -0.410 C  
HETATM    2  C   UNL     1     -10.581  15.017  69.749  1.00  0.00    -0.215 C  
HETATM    3  C   UNL     1      -9.242  15.152  69.669  1.00  0.00    -0.082 C  
HETATM    4  C   UNL     1      -8.569  14.469  68.531  1.00  0.00    -0.175 C  
HETATM    5  O   UNL     1     -12.028  11.747  67.323  1.00  0.00    -0.618 OA 
HETATM    6  C   UNL     1     -11.615  13.011  66.813  1.00  0.00    -0.368 C  
HETATM    7  O   UNL     1      -7.350  14.564  68.389  1.00  0.00    -0.100 OA 
HETATM    8  N   UNL     1      -9.372  13.756  67.665  1.00  0.00    -0.205 N  
HETATM    9  C   UNL     1      -8.716  13.207  66.483  1.00  0.00     0.094 C  
HETATM   10  N   UNL     1     -11.328  14.347  68.814  1.00  0.00    -0.257 NA 
HETATM   11  C   UNL     1      -9.554  12.226  65.683  1.00  0.00    -0.148 C  
HETATM   12  C   UNL     1     -10.736  13.774  67.820  1.00  0.00    -0.246 C  
HETATM   13  C   UNL     1     -10.939  12.808  65.467  1.00  0.00    -0.310 C  
HETATM   14  H   UNL     1     -12.451  11.873  68.165  1.00  0.00     0.000 HD 
ENDROOT
BRANCH   3  15
HETATM   15  C   UNL     1      -8.304  15.837  70.638  1.00  0.00     2.227 C  
BRANCH  15  16
HETATM   16  C   UNL     1      -8.078  15.070  71.971  1.00  0.00     5.569 C  
BRANCH  16  17
HETATM   17  N   UNL     1      -8.116  13.601  71.871  1.00  0.00     8.035 NA 
HETATM   18  C   UNL     1      -6.591  13.268  69.932  1.00  0.00     0.099 C  
HETATM   19  C   UNL     1      -5.700  12.789  72.219  1.00  0.00     0.988 C  
HETATM   20  C   UNL     1      -7.993  13.086  70.505  1.00  0.00     4.682 C  
HETATM   21  C   UNL     1      -5.588  12.423  70.731  1.00  0.00    -0.150 C  
HETATM   22  C   UNL     1      -7.140  12.926  72.753  1.00  0.00     8.335 C  
BRANCH  21  23
HETATM   23  C   UNL     1      -5.771  10.975  70.351  1.00  0.00    -0.130 A  
HETATM   24  N   UNL     1      -5.342  10.474  69.186  1.00  0.00    -0.038 NA 
HETATM   25  O   UNL     1      -5.349   9.094  69.341  1.00  0.00    -0.035 OA 
HETATM   26  C   UNL     1      -5.809   8.776  70.582  1.00  0.00    -0.032 A  
HETATM   27  C   UNL     1      -6.174   9.936  71.240  1.00  0.00     0.076 A  
HETATM   28  C   UNL     1      -6.693   9.846  72.546  1.00  0.00     1.566 A  
HETATM   29  C   UNL     1      -6.798   8.579  73.132  1.00  0.00    -0.066 A  
HETATM   30  C   UNL     1      -6.379   7.442  72.441  1.00  0.00    -0.050 A  
HETATM   31  C   UNL     1      -5.877   7.503  71.141  1.00  0.00    -0.035 A  
HETATM   32  F   UNL     1      -6.453   6.253  73.053  1.00  0.00    -0.062 F  
ENDBRANCH  21  23
ENDBRANCH  16  17
ENDBRANCH  15  16
ENDBRANCH   3  15
TORSDOF 4
ENDMDL
MODEL      256
REMARK 921   NORMALIZED FREE ENERGY PREDICTED BY IDOCK:   32.50 KCAL/MOL
REMARK 922        TOTAL FREE ENERGY PREDICTED BY IDOCK:   39.83 KCAL/MOL
REMARK 923 INTER-LIGAND FREE ENERGY PREDICTED BY IDOCK:   21.78 KCAL/MOL
REMARK 924 INTRA-LIGAND FREE ENERGY PREDICTED BY IDOCK:   18.06 KCAL/MOL
REMARK 927      BINDING AFFINITY PREDICTED BY RF-SCORE:    0.00 PKD
ROOT
HETATM    1  C   UNL     1      -8.805   7.923  68.164  1.00  0.00    -0.125 C  
HETATM    2  C   UNL     1      -8.438   7.711  66.719  1.00  0.00    -0.127 C  
HETATM    3  C   UNL     1      -8.639   8.596  65.721  1.00  0.00    -0.184 C  
HETATM    4  C   UNL     1      -8.161   8.198  64.370  1.00  0.00    -0.101 C  
HETATM    5  O   UNL     1      -5.505   4.718  65.663  1.00  0.00    -0.012 OA 
HETATM    6  C   UNL     1      -6.848   4.739  65.185  1.00  0.00    -0.057 C  
HETATM    7  O   UNL     1      -8.327   8.952  63.411  1.00  0.00    -0.184 OA 
HETATM    8  N   UNL     1      -7.551   6.965  64.259  1.00  0.00    -0.101 N  
HETATM    9  C   UNL     1      -7.211   6.535  62.906  1.00  0.00    -0.054 C  
HETATM   10  N   UNL     1      -7.883   6.472  66.526  1.00  0.00    -0.102 NA 
HETATM   11  C   UNL     1      -6.326   5.305  62.829  1.00  0.00    -0.021 C  
HETATM   12  C   UNL     1      -7.489   6.129  65.345  1.00  0.00    -0.083 C  
HETATM   13  C   UNL     1      -6.875   4.232  63.753  1.00  0.00    -0.044 C  
HETATM   14  H   UNL     1      -5.488   5.034  66.558  1.00  0.00     0.000 HD 
ENDROOT
BRANCH   3  15
HETATM   15  C   UNL     1      -9.211   9.993  65.803  1.00  0.00    -0.222 C  
BRANCH  15  16
HETATM   16  C   UNL     1      -8.182  11.093  66.190  1.00  0.00    -0.128 C  
BRANCH  16  17
HETATM   17  N   UNL     1      -7.909  11.226  67.630  1.00  0.00    -0.113 NA 
HETATM   18  C   UNL     1      -8.721   9.011  68.424  1.00  0.00    -0.130 C  
HETATM   19  C   UNL     1      -6.251   9.352  68.230  1.00  0.00    -0.053 C  
HETATM   20  C   UNL     1      -8.865  10.528  68.494  1.00  0.00    -0.144 C  
HETATM   21  C   UNL     1      -7.354   8.591  68.982  1.00  0.00    -0.081 C  
HETATM   22  C   UNL     1      -6.527  10.852  68.004  1.00  0.00    -0.058 C  
BRANCH  21  23
HETATM   23  C   UNL     1      -7.390   8.718  70.485  1.00  0.00    -0.066 A  
HETATM   24  N   UNL     1      -7.261   7.665  71.303  1.00  0.00    -0.061 NA 
HETATM   25  O   UNL     1      -6.979   8.191  72.556  1.00  0.00    -0.078 OA 
HETATM   26  C   UNL     1      -6.972   9.551  72.491  1.00  0.00     1.097 A  
HETATM   27  C   UNL     1      -7.312   9.944  71.209  1.00  0.00     0.747 A  
HETATM   28  C   UNL     1      -7.379  11.318  70.911  1.00  0.00     3.123 A  
HETATM   29  C   UNL     1      -7.076  12.232  71.927  1.00  0.00     7.584 A  
HETATM   30  C   UNL     1      -6.700  11.785  73.194  1.00  0.00     7.311 A  
HETATM   31  C   UNL     1      -6.642  10.429  73.518  1.00  0.00     2.915 A  
HETATM   32  F   UNL     1      -6.373  12.690  74.126  1.00  0.00     1.327 F  
ENDBRANCH  21  23
ENDBRANCH  16  17
ENDBRANCH  15  16
ENDBRANCH   3  15
TORSDOF 4
ENDMDL
MODEL      257
REMARK 921   NORMALIZED FREE ENERGY PREDICTED BY IDOCK:   37.49 KCAL/MOL
REMARK 922        TOTAL FREE ENERGY PREDICTED BY IDOCK:   45.98 KCAL/MOL
REMARK 923 INTER-LIGAND FREE ENERGY PREDICTED BY IDOCK:   14.35 KCAL/MOL
REMARK 924 INTRA-LIGAND FREE ENERGY PREDICTED BY IDOCK:   31.64 KCAL/MOL
REMARK 927      BINDING AFFINITY PREDICTED BY RF-SCORE:    0.00 PKD
ROOT
HETATM    1  C   UNL     1     -12.372  15.967  62.938  1.00  0.00     5.125 C  
HETATM    2  C   UNL     1     -11.696  16.352  64.228  1.00  0.00     0.271 C  
HETATM    3  C   UNL     1     -11.515  15.541  65.291  1.00  0.00    -0.099 C  
HETATM    4  C   UNL     1     -10.783  16.115  66.451  1.00  0.00    -0.211 C  
HETATM    5  O   UNL     1      -9.057  19.772  64.334  1.00  0.00     3.032 OA 
HETATM    6  C   UNL     1     -10.223  19.625  65.140  1.00  0.00     0.861 C  
HETATM    7  O   UNL     1     -10.597  15.435  67.460  1.00  0.00    -0.270 OA 
HETATM    8  N   UNL     1     -10.348  17.419  66.335  1.00  0.00    -0.334 N  
HETATM    9  C   UNL     1      -9.753  18.008  67.530  1.00  0.00    -0.289 C  
HETATM   10  N   UNL     1     -11.295  17.663  64.205  1.00  0.00     0.887 NA 
HETATM   11  C   UNL     1      -9.063  19.342  67.311  1.00  0.00    -0.346 C  
HETATM   12  C   UNL     1     -10.677  18.157  65.225  1.00  0.00     0.400 C  
HETATM   13  C   UNL     1      -9.971  20.250  66.502  1.00  0.00    -0.528 C  
HETATM   14  H   UNL     1      -9.214  19.381  63.483  1.00  0.00     0.000 HD 
ENDROOT
BRANCH   3  15
HETATM   15  C   UNL     1     -11.882  14.081  65.434  1.00  0.00    -0.363 C  
BRANCH  15  16
HETATM   16  C   UNL     1     -10.744  13.088  65.065  1.00  0.00    -0.315 C  
BRANCH  16  17
HETATM   17  N   UNL     1      -9.515  13.209  65.866  1.00  0.00    -0.097 NA 
HETATM   18  C   UNL     1      -9.937  15.401  66.966  1.00  0.00    -0.239 C  
HETATM   19  C   UNL     1     -10.260  13.327  68.326  1.00  0.00    -0.250 C  
HETATM   20  C   UNL     1      -9.040  14.583  66.041  1.00  0.00     0.061 C  
HETATM   21  C   UNL     1      -9.891  14.817  68.386  1.00  0.00    -0.220 C  
HETATM   22  C   UNL     1      -9.599  12.534  67.179  1.00  0.00    -0.208 C  
BRANCH  21  23
HETATM   23  C   UNL     1      -8.569  15.185  69.014  1.00  0.00    -0.219 A  
HETATM   24  N   UNL     1      -8.128  16.448  69.081  1.00  0.00    -0.231 NA 
HETATM   25  O   UNL     1      -7.102  16.441  70.016  1.00  0.00     0.164 OA 
HETATM   26  C   UNL     1      -6.914  15.175  70.480  1.00  0.00     0.376 A  
HETATM   27  C   UNL     1      -7.768  14.317  69.811  1.00  0.00     0.400 A  
HETATM   28  C   UNL     1      -7.738  12.944  70.122  1.00  0.00     2.489 A  
HETATM   29  C   UNL     1      -6.854  12.509  71.117  1.00  0.00     3.399 A  
HETATM   30  C   UNL     1      -6.041  13.420  71.790  1.00  0.00     0.908 A  
HETATM   31  C   UNL     1      -6.040  14.782  71.489  1.00  0.00     0.296 A  
HETATM   32  F   UNL     1      -5.242  12.971  72.767  1.00  0.00    -0.102 F  
ENDBRANCH  21  23
ENDBRANCH  16  17
ENDBRANCH  15  16
ENDBRANCH   3  15
TORSDOF 4
ENDMDL
MODEL      258
REMARK 921   NORMALIZED FREE ENERGY PREDICTED BY IDOCK:   40.76 KCAL/MOL
REMARK 922        TOTAL FREE ENERGY PREDICTED BY IDOCK:   50.02 KCAL/MOL
REMARK 923 INTER-LIGAND FREE ENERGY PREDICTED BY IDOCK:   47.93 KCAL/MOL
REMARK 924 INTRA-LIGAND FREE ENERGY PREDICTED BY IDOCK:    2.09 KCAL/MOL
REMARK 927      BINDING AFFINITY PREDICTED BY RF-SCORE:    0.00 PKD
ROOT
HETATM    1  C   UNL     1      -9.012   7.694  67.946  1.00  0.00    -0.128 C  
HETATM    2  C   UNL     1      -8.957   6.864  66.690  1.00  0.00    -0.145 C  
HETATM    3  C   UNL     1     -10.017   6.530  65.925  1.00  0.00     0.413 C  
HETATM    4  C   UNL     1      -9.730   5.735  64.701  1.00  0.00     1.248 C  
HETATM    5  O   UNL     1      -5.221   6.427  64.564  1.00  0.00    -0.020 OA 
HETATM    6  C   UNL     1      -5.982   5.345  65.092  1.00  0.00    -0.022 C  
HETATM    7  O   UNL     1     -10.653   5.382  63.965  1.00  0.00     1.870 OA 
HETATM    8  N   UNL     1      -8.411   5.417  64.453  1.00  0.00    -0.136 N  
HETATM    9  C   UNL     1      -8.164   4.526  63.325  1.00  0.00    -0.098 C  
HETATM   10  N   UNL     1      -7.676   6.458  66.421  1.00  0.00    -0.097 NA 
HETATM   11  C   UNL     1      -6.707   4.392  62.922  1.00  0.00    -0.031 C  
HETATM   12  C   UNL     1      -7.441   5.752  65.365  1.00  0.00    -0.078 C  
HETATM   13  C   UNL     1      -5.863   4.150  64.160  1.00  0.00    -0.014 C  
HETATM   14  H   UNL     1      -5.295   7.174  65.146  1.00  0.00     0.000 HD 
ENDROOT
BRANCH   3  15
HETATM   15  C   UNL     1     -11.465   6.930  66.095  1.00  0.00     2.631 C  
BRANCH  15  16
HETATM   16  C   UNL     1     -12.141   7.474  64.805  1.00  0.00    16.586 C  
BRANCH  16  17
HETATM   17  N   UNL     1     -12.106   8.937  64.640  1.00  0.00    13.810 NA 
HETATM   18  C   UNL     1     -10.367   9.513  66.324  1.00  0.00    -0.226 C  
HETATM   19  C   UNL     1      -9.711   9.527  63.911  1.00  0.00     0.649 C  
HETATM   20  C   UNL     1     -11.814   9.676  65.870  1.00  0.00     5.371 C  
HETATM   21  C   UNL     1      -9.422  10.142  65.290  1.00  0.00    -0.306 C  
HETATM   22  C   UNL     1     -11.205   9.385  63.557  1.00  0.00     8.547 C  
BRANCH  21  23
HETATM   23  C   UNL     1      -9.502  11.643  65.416  1.00  0.00    -0.171 A  
HETATM   24  N   UNL     1      -9.585  12.454  64.353  1.00  0.00     0.063 NA 
HETATM   25  O   UNL     1     -10.001  13.683  64.847  1.00  0.00    -0.281 OA 
HETATM   26  C   UNL     1     -10.136  13.612  66.199  1.00  0.00    -0.306 A  
HETATM   27  C   UNL     1      -9.748  12.354  66.626  1.00  0.00    -0.229 A  
HETATM   28  C   UNL     1      -9.794  12.057  68.002  1.00  0.00    -0.199 A  
HETATM   29  C   UNL     1     -10.253  13.046  68.880  1.00  0.00    -0.015 A  
HETATM   30  C   UNL     1     -10.670  14.285  68.395  1.00  0.00    -0.251 A  
HETATM   31  C   UNL     1     -10.619  14.610  67.039  1.00  0.00    -0.280 A  
HETATM   32  F   UNL     1     -11.146  15.189  69.262  1.00  0.00    -0.228 F  
ENDBRANCH  21  23
ENDBRANCH  16  17
ENDBRANCH  15  16
ENDBRANCH   3  15
TORSDOF 4
ENDMDL
MODEL      259
REMARK 921   NORMALIZED FREE ENERGY PREDICTED BY IDOCK:   42.22 KCAL/MOL
REMARK 922        TOTAL FREE ENERGY PREDICTED BY IDOCK:   51.82 KCAL/MOL
REMARK 923 INTER-LIGAND FREE ENERGY PREDICTED BY IDOCK:    9.40 KCAL/MOL
REMARK 924 INTRA-LIGAND FREE ENERGY PREDICTED BY IDOCK:   42.42 KCAL/MOL
REMARK 927      BINDING AFFINITY PREDICTED BY RF-SCORE:    0.00 PKD
ROOT
HETATM    1  C   UNL     1     -12.323  11.290  65.571  1.00  0.00     2.141 C  
HETATM    2  C   UNL     1     -11.441  10.519  66.518  1.00  0.00     0.790 C  
HETATM    3  C   UNL     1     -10.445  11.041  67.263  1.00  0.00    -0.270 C  
HETATM    4  C   UNL     1      -9.725  10.104  68.165  1.00  0.00    -0.139 C  
HETATM    5  O   UNL     1     -12.732   6.674  68.009  1.00  0.00     3.482 OA 
HETATM    6  C   UNL     1     -11.532   6.895  67.275  1.00  0.00     0.364 C  
HETATM    7  O   UNL     1      -8.794  10.511  68.862  1.00  0.00    -0.148 OA 
HETATM    8  N   UNL     1     -10.142   8.788  68.166  1.00  0.00    -0.182 N  
HETATM    9  C   UNL     1      -9.339   7.859  68.953  1.00  0.00    -0.150 C  
HETATM   10  N   UNL     1     -11.761   9.185  66.518  1.00  0.00     3.074 NA 
HETATM   11  C   UNL     1      -9.952   6.483  69.140  1.00  0.00    -0.163 C  
HETATM   12  C   UNL     1     -11.116   8.377  67.291  1.00  0.00     0.460 C  
HETATM   13  C   UNL     1     -10.448   5.968  67.801  1.00  0.00    -0.300 C  
HETATM   14  H   UNL     1     -13.410   7.253  67.681  1.00  0.00     0.000 HD 
ENDROOT
BRANCH   3  15
HETATM   15  C   UNL     1     -10.011  12.485  67.374  1.00  0.00    -0.207 C  
BRANCH  15  16
HETATM   16  C   UNL     1      -8.670  12.701  68.130  1.00  0.00    -0.190 C  
BRANCH  16  17
HETATM   17  N   UNL     1      -8.506  11.917  69.366  1.00  0.00     0.655 NA 
HETATM   18  C   UNL     1      -7.380   9.898  68.442  1.00  0.00    -0.078 C  
HETATM   19  C   UNL     1      -5.976  11.564  69.670  1.00  0.00    -0.102 C  
HETATM   20  C   UNL     1      -8.591  10.467  69.177  1.00  0.00    -0.150 C  
HETATM   21  C   UNL     1      -6.119  10.080  69.299  1.00  0.00    -0.040 C  
HETATM   22  C   UNL     1      -7.279  12.256  70.119  1.00  0.00     1.448 C  
BRANCH  21  23
HETATM   23  C   UNL     1      -6.156   9.078  70.426  1.00  0.00    -0.037 A  
HETATM   24  N   UNL     1      -5.605   9.317  71.623  1.00  0.00    -0.068 NA 
HETATM   25  O   UNL     1      -6.139   8.366  72.482  1.00  0.00    -0.061 OA 
HETATM   26  C   UNL     1      -6.980   7.548  71.794  1.00  0.00    -0.062 A  
HETATM   27  C   UNL     1      -6.964   7.904  70.457  1.00  0.00    -0.045 A  
HETATM   28  C   UNL     1      -7.757   7.178  69.548  1.00  0.00    -0.113 A  
HETATM   29  C   UNL     1      -8.549   6.136  70.043  1.00  0.00    -0.136 A  
HETATM   30  C   UNL     1      -8.560   5.841  71.406  1.00  0.00    -0.129 A  
HETATM   31  C   UNL     1      -7.771   6.534  72.325  1.00  0.00    -0.097 A  
HETATM   32  F   UNL     1      -9.366   4.866  71.847  1.00  0.00    -0.147 F  
ENDBRANCH  21  23
ENDBRANCH  16  17
ENDBRANCH  15  16
ENDBRANCH   3  15
TORSDOF 4
ENDMDL
MODEL      260
REMARK 921   NORMALIZED FREE ENERGY PREDICTED BY IDOCK:   46.48 KCAL/MOL
REMARK 922        TOTAL FREE ENERGY PREDICTED BY IDOCK:   57.07 KCAL/MOL
REMARK 923 INTER-LIGAND FREE ENERGY PREDICTED BY IDOCK:   45.31 KCAL/MOL
REMARK 924 INTRA-LIGAND FREE ENERGY PREDICTED BY IDOCK:   11.77 KCAL/MOL
REMARK 927      BINDING AFFINITY PREDICTED BY RF-SCORE:    0.00 PKD
ROOT
HETATM    1  C   UNL     1     -13.339   6.018  69.733  1.00  0.00     6.971 C  
HETATM    2  C   UNL     1     -12.484   6.269  68.519  1.00  0.00     5.175 C  
HETATM    3  C   UNL     1     -12.494   7.392  67.772  1.00  0.00     6.253 C  
HETATM    4  C   UNL     1     -11.534   7.447  66.637  1.00  0.00     1.835 C  
HETATM    5  O   UNL     1      -8.894   3.944  67.899  1.00  0.00    -0.098 OA 
HETATM    6  C   UNL     1      -9.985   4.007  66.985  1.00  0.00    -0.000 C  
HETATM    7  O   UNL     1     -11.502   8.436  65.904  1.00  0.00     3.689 OA 
HETATM    8  N   UNL     1     -10.717   6.350  66.452  1.00  0.00    -0.029 N  
HETATM    9  C   UNL     1      -9.880   6.364  65.257  1.00  0.00     1.312 C  
HETATM   10  N   UNL     1     -11.690   5.186  68.240  1.00  0.00     3.406 NA 
HETATM   11  C   UNL     1      -8.820   5.280  65.206  1.00  0.00    -0.144 C  
HETATM   12  C   UNL     1     -10.874   5.237  67.240  1.00  0.00     0.133 C  
HETATM   13  C   UNL     1      -9.449   3.945  65.564  1.00  0.00    -0.171 C  
HETATM   14  H   UNL     1      -9.229   3.983  68.788  1.00  0.00     0.000 HD 
ENDROOT
BRANCH   3  15
HETATM   15  C   UNL     1     -13.294   8.657  67.985  1.00  0.00    15.792 C  
BRANCH  15  16
HETATM   16  C   UNL     1     -12.617   9.703  68.914  1.00  0.00     2.950 C  
BRANCH  16  17
HETATM   17  N   UNL     1     -12.268   9.222  70.261  1.00  0.00     0.155 NA 
HETATM   18  C   UNL     1     -11.048   7.136  69.665  1.00  0.00    -0.206 C  
HETATM   19  C   UNL     1      -9.699   9.126  70.355  1.00  0.00    -0.266 C  
HETATM   20  C   UNL     1     -12.234   7.763  70.391  1.00  0.00     0.287 C  
HETATM   21  C   UNL     1      -9.736   7.590  70.321  1.00  0.00    -0.179 C  
HETATM   22  C   UNL     1     -11.015   9.804  70.788  1.00  0.00    -0.336 C  
BRANCH  21  23
HETATM   23  C   UNL     1      -9.576   6.859  71.631  1.00  0.00    -0.161 A  
HETATM   24  N   UNL     1     -10.175   7.259  72.759  1.00  0.00    -0.204 NA 
HETATM   25  O   UNL     1     -10.103   6.179  73.629  1.00  0.00    -0.185 OA 
HETATM   26  C   UNL     1      -9.437   5.154  73.032  1.00  0.00    -0.142 A  
HETATM   27  C   UNL     1      -9.003   5.563  71.784  1.00  0.00    -0.144 A  
HETATM   28  C   UNL     1      -8.274   4.661  70.985  1.00  0.00    -0.091 A  
HETATM   29  C   UNL     1      -8.038   3.374  71.484  1.00  0.00    -0.061 A  
HETATM   30  C   UNL     1      -8.531   2.997  72.733  1.00  0.00    -0.076 A  
HETATM   31  C   UNL     1      -9.241   3.877  73.550  1.00  0.00    -0.108 A  
HETATM   32  F   UNL     1      -8.324   1.743  73.156  1.00  0.00    -0.052 F  
ENDBRANCH  21  23
ENDBRANCH  16  17
ENDBRANCH  15  16
ENDBRANCH   3  15
TORSDOF 4
ENDMDL
MODEL      261
REMARK 921   NORMALIZED FREE ENERGY PREDICTED BY IDOCK:   57.24 KCAL/MOL
REMARK 922        TOTAL FREE ENERGY PREDICTED BY IDOCK:   70.35 KCAL/MOL
REMARK 923 INTER-LIGAND FREE ENERGY PREDICTED BY IDOCK:   64.87 KCAL/MOL
REMARK 924 INTRA-LIGAND FREE ENERGY PREDICTED BY IDOCK:    5.48 KCAL/MOL
REMARK 927      BINDING AFFINITY PREDICTED BY RF-SCORE:    0.00 PKD
ROOT
HETATM    1  C   UNL     1      -7.643  14.891  67.663  1.00  0.00    -0.201 C  
HETATM    2  C   UNL     1      -7.981  13.894  66.585  1.00  0.00     0.650 C  
HETATM    3  C   UNL     1      -8.213  14.190  65.290  1.00  0.00     4.945 C  
HETATM    4  C   UNL     1      -8.490  13.043  64.383  1.00  0.00     4.615 C  
HETATM    5  O   UNL     1      -7.041   9.715  67.151  1.00  0.00    -0.084 OA 
HETATM    6  C   UNL     1      -8.350  10.224  66.911  1.00  0.00    -0.123 C  
HETATM    7  O   UNL     1      -8.726  13.242  63.191  1.00  0.00     4.699 OA 
HETATM    8  N   UNL     1      -8.479  11.783  64.945  1.00  0.00     0.777 N  
HETATM    9  C   UNL     1      -8.884  10.685  64.073  1.00  0.00    -0.164 C  
HETATM   10  N   UNL     1      -8.051  12.622  67.092  1.00  0.00    -0.168 NA 
HETATM   11  C   UNL     1      -8.627   9.297  64.629  1.00  0.00    -0.209 C  
HETATM   12  C   UNL     1      -8.311  11.636  66.300  1.00  0.00    -0.027 C  
HETATM   13  C   UNL     1      -9.125   9.229  66.062  1.00  0.00    -0.235 C  
HETATM   14  H   UNL     1      -6.557  10.336  67.682  1.00  0.00     0.000 HD 
ENDROOT
BRANCH   3  15
HETATM   15  C   UNL     1      -8.144  15.535  64.603  1.00  0.00     9.005 C  
BRANCH  15  16
HETATM   16  C   UNL     1      -9.199  16.567  65.093  1.00  0.00     1.531 C  
BRANCH  16  17
HETATM   17  N   UNL     1      -9.576  16.461  66.512  1.00  0.00    -0.253 NA 
HETATM   18  C   UNL     1      -7.767  17.829  67.537  1.00  0.00    -0.214 C  
HETATM   19  C   UNL     1     -10.036  18.859  67.321  1.00  0.00    -0.386 C  
HETATM   20  C   UNL     1      -8.443  16.465  67.441  1.00  0.00    -0.178 C  
HETATM   21  C   UNL     1      -8.739  18.850  68.146  1.00  0.00    -0.342 C  
HETATM   22  C   UNL     1     -10.575  17.468  66.932  1.00  0.00    -0.219 C  
BRANCH  21  23
HETATM   23  C   UNL     1      -8.854  18.580  69.626  1.00  0.00     0.834 A  
HETATM   24  N   UNL     1      -9.982  18.133  70.193  1.00  0.00     1.053 NA 
HETATM   25  O   UNL     1      -9.615  17.666  71.448  1.00  0.00     5.498 OA 
HETATM   26  C   UNL     1      -8.282  17.863  71.638  1.00  0.00    11.083 A  
HETATM   27  C   UNL     1      -7.761  18.522  70.539  1.00  0.00     2.860 A  
HETATM   28  C   UNL     1      -6.390  18.843  70.522  1.00  0.00     0.249 A  
HETATM   29  C   UNL     1      -5.605  18.460  71.616  1.00  0.00     0.222 A  
HETATM   30  C   UNL     1      -6.171  17.763  72.683  1.00  0.00     3.817 A  
HETATM   31  C   UNL     1      -7.529  17.447  72.731  1.00  0.00    12.379 A  
HETATM   32  F   UNL     1      -5.377  17.374  73.690  1.00  0.00     3.454 F  
ENDBRANCH  21  23
ENDBRANCH  16  17
ENDBRANCH  15  16
ENDBRANCH   3  15
TORSDOF 4
ENDMDL
MODEL      262
REMARK 921   NORMALIZED FREE ENERGY PREDICTED BY IDOCK:   57.50 KCAL/MOL
REMARK 922        TOTAL FREE ENERGY PREDICTED BY IDOCK:   70.67 KCAL/MOL
REMARK 923 INTER-LIGAND FREE ENERGY PREDICTED BY IDOCK:   36.21 KCAL/MOL
REMARK 924 INTRA-LIGAND FREE ENERGY PREDICTED BY IDOCK:   34.46 KCAL/MOL
REMARK 927      BINDING AFFINITY PREDICTED BY RF-SCORE:    0.00 PKD
ROOT
HETATM    1  C   UNL     1     -11.455  15.589  70.835  1.00  0.00    -0.410 C  
HETATM    2  C   UNL     1     -10.584  15.010  69.750  1.00  0.00    -0.215 C  
HETATM    3  C   UNL     1      -9.246  15.148  69.662  1.00  0.00    -0.082 C  
HETATM    4  C   UNL     1      -8.577  14.457  68.528  1.00  0.00    -0.175 C  
HETATM    5  O   UNL     1     -12.032  11.710  67.364  1.00  0.00    -0.621 OA 
HETATM    6  C   UNL     1     -11.626  12.971  66.839  1.00  0.00    -0.366 C  
HETATM    7  O   UNL     1      -7.358  14.554  68.379  1.00  0.00    -0.100 OA 
HETATM    8  N   UNL     1      -9.381  13.732  67.673  1.00  0.00    -0.205 N  
HETATM    9  C   UNL     1      -8.729  13.174  66.493  1.00  0.00     0.094 C  
HETATM   10  N   UNL     1     -11.333  14.328  68.826  1.00  0.00    -0.259 NA 
HETATM   11  C   UNL     1      -9.567  12.183  65.707  1.00  0.00    -0.209 C  
HETATM   12  C   UNL     1     -10.744  13.747  67.834  1.00  0.00    -0.247 C  
HETATM   13  C   UNL     1     -10.955  12.758  65.492  1.00  0.00    -0.310 C  
HETATM   14  H   UNL     1     -12.451  11.843  68.206  1.00  0.00     0.000 HD 
ENDROOT
BRANCH   3  15
HETATM   15  C   UNL     1      -8.306  15.846  70.620  1.00  0.00     2.427 C  
BRANCH  15  16
HETATM   16  C   UNL     1      -8.071  15.093  71.960  1.00  0.00     5.770 C  
BRANCH  16  17
HETATM   17  N   UNL     1      -8.104  13.623  71.874  1.00  0.00     8.035 NA 
HETATM   18  C   UNL     1     -10.058  13.329  70.361  1.00  0.00     3.390 C  
HETATM   19  C   UNL     1      -7.772  13.034  69.392  1.00  0.00     0.611 C  
HETATM   20  C   UNL     1      -9.447  13.056  71.732  1.00  0.00    15.928 C  
HETATM   21  C   UNL     1      -9.245  12.610  69.276  1.00  0.00     0.929 C  
HETATM   22  C   UNL     1      -7.213  13.074  70.828  1.00  0.00     3.215 C  
BRANCH  21  23
HETATM   23  C   UNL     1      -9.554  11.135  69.341  1.00  0.00     0.217 A  
HETATM   24  N   UNL     1     -10.705  10.618  68.893  1.00  0.00    -0.203 NA 
HETATM   25  O   UNL     1     -10.487   9.251  68.779  1.00  0.00    -0.207 OA 
HETATM   26  C   UNL     1      -9.224   8.954  69.188  1.00  0.00    -0.144 A  
HETATM   27  C   UNL     1      -8.610  10.109  69.638  1.00  0.00    -0.170 A  
HETATM   28  C   UNL     1      -7.291  10.037  70.124  1.00  0.00    -0.171 A  
HETATM   29  C   UNL     1      -6.646   8.794  70.110  1.00  0.00    -0.039 A  
HETATM   30  C   UNL     1      -7.294   7.665  69.609  1.00  0.00    -0.089 A  
HETATM   31  C   UNL     1      -8.607   7.708  69.138  1.00  0.00    -0.139 A  
HETATM   32  F   UNL     1      -6.628   6.504  69.570  1.00  0.00    -0.041 F  
ENDBRANCH  21  23
ENDBRANCH  16  17
ENDBRANCH  15  16
ENDBRANCH   3  15
TORSDOF 4
ENDMDL
MODEL      263
REMARK 921   NORMALIZED FREE ENERGY PREDICTED BY IDOCK:   59.01 KCAL/MOL
REMARK 922        TOTAL FREE ENERGY PREDICTED BY IDOCK:   72.54 KCAL/MOL
REMARK 923 INTER-LIGAND FREE ENERGY PREDICTED BY IDOCK:   64.26 KCAL/MOL
REMARK 924 INTRA-LIGAND FREE ENERGY PREDICTED BY IDOCK:    8.28 KCAL/MOL
REMARK 927      BINDING AFFINITY PREDICTED BY RF-SCORE:    0.00 PKD
ROOT
HETATM    1  C   UNL     1     -11.788  13.061  68.545  1.00  0.00    -0.360 C  
HETATM    2  C   UNL     1     -12.413  13.802  67.392  1.00  0.00     0.081 C  
HETATM    3  C   UNL     1     -12.917  13.235  66.277  1.00  0.00     0.616 C  
HETATM    4  C   UNL     1     -13.527  14.154  65.279  1.00  0.00     0.688 C  
HETATM    5  O   UNL     1     -13.871  17.830  67.963  1.00  0.00     5.875 OA 
HETATM    6  C   UNL     1     -12.874  17.457  67.016  1.00  0.00     6.580 C  
HETATM    7  O   UNL     1     -13.992  13.705  64.231  1.00  0.00     2.632 OA 
HETATM    8  N   UNL     1     -13.528  15.500  65.584  1.00  0.00     2.250 N  
HETATM    9  C   UNL     1     -14.007  16.396  64.537  1.00  0.00     5.921 C  
HETATM   10  N   UNL     1     -12.387  15.157  67.603  1.00  0.00     0.351 NA 
HETATM   11  C   UNL     1     -14.233  17.831  64.977  1.00  0.00    15.936 C  
HETATM   12  C   UNL     1     -12.902  15.947  66.721  1.00  0.00     3.287 C  
HETATM   13  C   UNL     1     -13.029  18.310  65.767  1.00  0.00    11.969 C  
HETATM   14  H   UNL     1     -13.775  17.296  68.743  1.00  0.00     0.000 HD 
ENDROOT
BRANCH   3  15
HETATM   15  C   UNL     1     -13.029  11.766  65.936  1.00  0.00     3.689 C  
BRANCH  15  16
HETATM   16  C   UNL     1     -12.090  10.838  66.756  1.00  0.00     2.333 C  
BRANCH  16  17
HETATM   17  N   UNL     1     -12.569  10.482  68.102  1.00  0.00     1.589 NA 
HETATM   18  C   UNL     1     -10.536   9.357  68.994  1.00  0.00    -0.233 C  
HETATM   19  C   UNL     1     -11.020  11.686  69.766  1.00  0.00    -0.001 C  
HETATM   20  C   UNL     1     -12.013   9.234  68.631  1.00  0.00     1.859 C  
HETATM   21  C   UNL     1     -10.365  10.351  70.152  1.00  0.00    -0.114 C  
HETATM   22  C   UNL     1     -12.403  11.567  69.092  1.00  0.00    -0.004 C  
BRANCH  21  23
HETATM   23  C   UNL     1     -10.828   9.688  71.426  1.00  0.00    -0.224 A  
HETATM   24  N   UNL     1     -11.905  10.102  72.105  1.00  0.00     0.455 NA 
HETATM   25  O   UNL     1     -12.225   9.068  72.974  1.00  0.00     0.066 OA 
HETATM   26  C   UNL     1     -11.325   8.057  72.834  1.00  0.00    -0.298 A  
HETATM   27  C   UNL     1     -10.360   8.435  71.918  1.00  0.00    -0.353 A  
HETATM   28  C   UNL     1      -9.313   7.542  71.623  1.00  0.00    -0.164 A  
HETATM   29  C   UNL     1      -9.305   6.294  72.258  1.00  0.00    -0.146 A  
HETATM   30  C   UNL     1     -10.324   5.945  73.145  1.00  0.00    -0.211 A  
HETATM   31  C   UNL     1     -11.363   6.818  73.466  1.00  0.00     0.359 A  
HETATM   32  F   UNL     1     -10.306   4.725  73.697  1.00  0.00    -0.169 F  
ENDBRANCH  21  23
ENDBRANCH  16  17
ENDBRANCH  15  16
ENDBRANCH   3  15
TORSDOF 4
ENDMDL
MODEL      264
REMARK 921   NORMALIZED FREE ENERGY PREDICTED BY IDOCK:   83.56 KCAL/MOL
REMARK 922        TOTAL FREE ENERGY PREDICTED BY IDOCK:  102.82 KCAL/MOL
REMARK 923 INTER-LIGAND FREE ENERGY PREDICTED BY IDOCK:   41.42 KCAL/MOL
REMARK 924 INTRA-LIGAND FREE ENERGY PREDICTED BY IDOCK:   61.40 KCAL/MOL
REMARK 927      BINDING AFFINITY PREDICTED BY RF-SCORE:    0.00 PKD
ROOT
HETATM    1  C   UNL     1     -11.221  16.292  63.090  1.00  0.00     4.985 C  
HETATM    2  C   UNL     1     -10.556  16.870  64.312  1.00  0.00     2.146 C  
HETATM    3  C   UNL     1     -10.446  16.256  65.508  1.00  0.00    -0.383 C  
HETATM    4  C   UNL     1      -9.711  16.994  66.571  1.00  0.00    -0.282 C  
HETATM    5  O   UNL     1      -7.735  20.116  63.892  1.00  0.00     1.408 OA 
HETATM    6  C   UNL     1      -8.927  20.176  64.671  1.00  0.00     2.891 C  
HETATM    7  O   UNL     1      -9.588  16.499  67.692  1.00  0.00    -0.231 OA 
HETATM    8  N   UNL     1      -9.203  18.232  66.238  1.00  0.00    -0.252 N  
HETATM    9  C   UNL     1      -8.604  18.996  67.327  1.00  0.00    -0.278 C  
HETATM   10  N   UNL     1     -10.083  18.133  64.067  1.00  0.00     6.313 NA 
HETATM   11  C   UNL     1      -7.836  20.232  66.895  1.00  0.00    -0.351 C  
HETATM   12  C   UNL     1      -9.463  18.772  65.003  1.00  0.00     2.836 C  
HETATM   13  C   UNL     1      -8.673  21.024  65.906  1.00  0.00     1.254 C  
HETATM   14  H   UNL     1      -7.893  19.586  63.119  1.00  0.00     0.000 HD 
ENDROOT
BRANCH   3  15
HETATM   15  C   UNL     1     -10.897  14.867  65.899  1.00  0.00    -0.336 C  
BRANCH  15  16
HETATM   16  C   UNL     1      -9.741  13.856  66.141  1.00  0.00    -0.272 C  
BRANCH  16  17
HETATM   17  N   UNL     1      -8.644  14.341  66.993  1.00  0.00    -0.212 NA 
HETATM   18  C   UNL     1      -9.022  16.795  66.819  1.00  0.00    -0.265 C  
HETATM   19  C   UNL     1      -9.743  15.645  68.919  1.00  0.00    -0.220 C  
HETATM   20  C   UNL     1      -8.075  15.624  66.574  1.00  0.00    -0.133 C  
HETATM   21  C   UNL     1      -9.250  16.974  68.326  1.00  0.00    -0.255 C  
HETATM   22  C   UNL     1      -8.992  14.391  68.430  1.00  0.00    -0.188 C  
BRANCH  21  23
HETATM   23  C   UNL     1      -8.012  17.591  68.929  1.00  0.00    -0.180 A  
HETATM   24  N   UNL     1      -7.440  18.695  68.432  1.00  0.00    -0.287 NA 
HETATM   25  O   UNL     1      -6.585  19.158  69.423  1.00  0.00    -0.298 OA 
HETATM   26  C   UNL     1      -6.626  18.316  70.492  1.00  0.00     1.016 A  
HETATM   27  C   UNL     1      -7.457  17.251  70.197  1.00  0.00     1.760 A  
HETATM   28  C   UNL     1      -7.641  16.241  71.161  1.00  0.00     4.505 A  
HETATM   29  C   UNL     1      -6.987  16.371  72.391  1.00  0.00     7.404 A  
HETATM   30  C   UNL     1      -6.189  17.485  72.655  1.00  0.00     3.965 A  
HETATM   31  C   UNL     1      -5.978  18.490  71.711  1.00  0.00     0.977 A  
HETATM   32  F   UNL     1      -5.617  17.596  73.861  1.00  0.00     4.380 F  
ENDBRANCH  21  23
ENDBRANCH  16  17
ENDBRANCH  15  16
ENDBRANCH   3  15
TORSDOF 4
ENDMDL
