MODEL        1
REMARK 921   NORMALIZED FREE ENERGY PREDICTED BY IDOCK:   -4.79 KCAL/MOL
REMARK 922        TOTAL FREE ENERGY PREDICTED BY IDOCK:   -9.84 KCAL/MOL
REMARK 923 INTER-LIGAND FREE ENERGY PREDICTED BY IDOCK:   -8.44 KCAL/MOL
REMARK 924 INTRA-LIGAND FREE ENERGY PREDICTED BY IDOCK:   -1.41 KCAL/MOL
REMARK 927      BINDING AFFINITY PREDICTED BY RF-SCORE:    0.00 PKD
ROOT
HETATM    1  C   UNL     1     -12.482  15.593  73.974  1.00  0.00    -0.785 C  
HETATM    2  C   UNL     1     -12.411  15.901  72.488  1.00  0.00    -0.575 C  
ENDROOT
BRANCH   2   3
HETATM    3  C   UNL     1     -13.605  15.307  71.745  1.00  0.00    -0.581 C  
BRANCH   3   4
HETATM    4  C   UNL     1     -13.895  13.885  72.217  1.00  0.00    -0.669 C  
BRANCH   4   5
HETATM    5  C   UNL     1     -12.930  12.893  71.575  1.00  0.00    -0.388 C  
BRANCH   5   6
HETATM    6  C   UNL     1     -13.347  11.456  71.872  1.00  0.00    -0.409 C  
BRANCH   6   7
HETATM    7  C   UNL     1     -12.673  10.487  70.906  1.00  0.00    -0.495 C  
BRANCH   7   8
HETATM    8  C   UNL     1     -11.554  11.180  70.137  1.00  0.00    -0.410 C  
BRANCH   8   9
HETATM    9  C   UNL     1     -11.588  10.790  68.663  1.00  0.00    -0.342 C  
BRANCH   9  10
HETATM   10  C   UNL     1     -11.079  11.931  67.791  1.00  0.00    -0.295 C  
BRANCH  10  11
HETATM   11  C   UNL     1     -11.664  13.266  68.240  1.00  0.00    -0.388 C  
BRANCH  11  12
HETATM   12  C   UNL     1     -10.565  14.313  68.387  1.00  0.00    -0.255 C  
BRANCH  12  13
HETATM   13  C   UNL     1      -9.821  14.523  67.071  1.00  0.00    -0.249 C  
BRANCH  13  14
HETATM   14  C   UNL     1     -10.723  15.206  66.045  1.00  0.00    -0.333 C  
BRANCH  14  15
HETATM   15  C   UNL     1     -10.793  14.405  64.748  1.00  0.00    -0.415 C  
HETATM   16  C   UNL     1     -12.187  13.884  64.487  1.00  0.00    -0.417 C  
HETATM   17  O   UNL     1     -12.259  13.173  63.337  1.00  0.00    -0.646 OA 
HETATM   18  O   UNL     1     -13.157  14.063  65.206  1.00  0.00    -0.782 OA 
ENDBRANCH  14  15
ENDBRANCH  13  14
ENDBRANCH  12  13
ENDBRANCH  11  12
ENDBRANCH  10  11
ENDBRANCH   9  10
ENDBRANCH   8   9
ENDBRANCH   7   8
ENDBRANCH   6   7
ENDBRANCH   5   6
ENDBRANCH   4   5
ENDBRANCH   3   4
ENDBRANCH   2   3
TORSDOF 13
ENDMDL
MODEL        2
REMARK 921   NORMALIZED FREE ENERGY PREDICTED BY IDOCK:   -4.73 KCAL/MOL
REMARK 922        TOTAL FREE ENERGY PREDICTED BY IDOCK:   -9.73 KCAL/MOL
REMARK 923 INTER-LIGAND FREE ENERGY PREDICTED BY IDOCK:   -8.38 KCAL/MOL
REMARK 924 INTRA-LIGAND FREE ENERGY PREDICTED BY IDOCK:   -1.34 KCAL/MOL
REMARK 927      BINDING AFFINITY PREDICTED BY RF-SCORE:    0.00 PKD
ROOT
HETATM    1  C   UNL     1     -10.164   9.992  69.551  1.00  0.00    -0.255 C  
HETATM    2  C   UNL     1     -11.386  10.763  70.020  1.00  0.00    -0.397 C  
ENDROOT
BRANCH   2   3
HETATM    3  C   UNL     1     -12.210   9.941  71.008  1.00  0.00    -0.446 C  
BRANCH   3   4
HETATM    4  C   UNL     1     -13.206  10.820  71.758  1.00  0.00    -0.523 C  
BRANCH   4   5
HETATM    5  C   UNL     1     -13.010  12.291  71.399  1.00  0.00    -0.354 C  
BRANCH   5   6
HETATM    6  C   UNL     1     -13.797  13.192  72.345  1.00  0.00    -0.583 C  
BRANCH   6   7
HETATM    7  C   UNL     1     -14.054  14.553  71.704  1.00  0.00    -0.540 C  
BRANCH   7   8
HETATM    8  C   UNL     1     -13.334  15.657  72.469  1.00  0.00    -0.604 C  
BRANCH   8   9
HETATM    9  C   UNL     1     -11.835  15.617  72.192  1.00  0.00    -0.567 C  
BRANCH   9  10
HETATM   10  C   UNL     1     -11.530  16.139  70.793  1.00  0.00    -0.408 C  
BRANCH  10  11
HETATM   11  C   UNL     1     -11.068  15.011  69.876  1.00  0.00    -0.298 C  
BRANCH  11  12
HETATM   12  C   UNL     1     -11.577  15.230  68.456  1.00  0.00    -0.368 C  
BRANCH  12  13
HETATM   13  C   UNL     1     -11.872  13.902  67.763  1.00  0.00    -0.415 C  
BRANCH  13  14
HETATM   14  C   UNL     1     -11.065  13.776  66.472  1.00  0.00    -0.309 C  
BRANCH  14  15
HETATM   15  C   UNL     1     -11.135  15.058  65.648  1.00  0.00    -0.349 C  
HETATM   16  C   UNL     1     -12.111  14.933  64.502  1.00  0.00    -0.407 C  
HETATM   17  O   UNL     1     -12.181  16.066  63.765  1.00  0.00    -0.895 OA 
HETATM   18  O   UNL     1     -12.774  13.942  64.240  1.00  0.00    -0.664 OA 
ENDBRANCH  14  15
ENDBRANCH  13  14
ENDBRANCH  12  13
ENDBRANCH  11  12
ENDBRANCH  10  11
ENDBRANCH   9  10
ENDBRANCH   8   9
ENDBRANCH   7   8
ENDBRANCH   6   7
ENDBRANCH   5   6
ENDBRANCH   4   5
ENDBRANCH   3   4
ENDBRANCH   2   3
TORSDOF 13
ENDMDL
MODEL        3
REMARK 921   NORMALIZED FREE ENERGY PREDICTED BY IDOCK:   -4.65 KCAL/MOL
REMARK 922        TOTAL FREE ENERGY PREDICTED BY IDOCK:   -9.59 KCAL/MOL
REMARK 923 INTER-LIGAND FREE ENERGY PREDICTED BY IDOCK:   -8.17 KCAL/MOL
REMARK 924 INTRA-LIGAND FREE ENERGY PREDICTED BY IDOCK:   -1.42 KCAL/MOL
REMARK 927      BINDING AFFINITY PREDICTED BY RF-SCORE:    0.00 PKD
ROOT
HETATM    1  C   UNL     1     -10.874   8.836  71.799  1.00  0.00    -0.416 C  
HETATM    2  C   UNL     1     -12.086   9.706  71.514  1.00  0.00    -0.482 C  
ENDROOT
BRANCH   2   3
HETATM    3  C   UNL     1     -11.811  10.677  70.369  1.00  0.00    -0.441 C  
BRANCH   3   4
HETATM    4  C   UNL     1     -12.330  12.075  70.695  1.00  0.00    -0.394 C  
BRANCH   4   5
HETATM    5  C   UNL     1     -13.328  12.027  71.849  1.00  0.00    -0.408 C  
BRANCH   5   6
HETATM    6  C   UNL     1     -13.441  13.387  72.529  1.00  0.00    -0.640 C  
BRANCH   6   7
HETATM    7  C   UNL     1     -14.380  14.303  71.750  1.00  0.00    -0.539 C  
BRANCH   7   8
HETATM    8  C   UNL     1     -13.633  15.519  71.217  1.00  0.00    -0.520 C  
BRANCH   8   9
HETATM    9  C   UNL     1     -12.292  15.683  71.926  1.00  0.00    -0.502 C  
BRANCH   9  10
HETATM   10  C   UNL     1     -11.139  15.538  70.940  1.00  0.00    -0.387 C  
BRANCH  10  11
HETATM   11  C   UNL     1     -11.647  15.527  69.501  1.00  0.00    -0.361 C  
BRANCH  11  12
HETATM   12  C   UNL     1     -10.752  14.660  68.622  1.00  0.00    -0.252 C  
BRANCH  12  13
HETATM   13  C   UNL     1     -11.414  14.366  67.278  1.00  0.00    -0.377 C  
BRANCH  13  14
HETATM   14  C   UNL     1     -11.766  12.885  67.163  1.00  0.00    -0.437 C  
BRANCH  14  15
HETATM   15  C   UNL     1     -11.340  12.318  65.812  1.00  0.00    -0.400 C  
HETATM   16  C   UNL     1     -12.282  12.740  64.708  1.00  0.00    -0.459 C  
HETATM   17  O   UNL     1     -11.912  12.243  63.504  1.00  0.00    -0.477 OA 
HETATM   18  O   UNL     1     -13.269  13.443  64.848  1.00  0.00    -0.679 OA 
ENDBRANCH  14  15
ENDBRANCH  13  14
ENDBRANCH  12  13
ENDBRANCH  11  12
ENDBRANCH  10  11
ENDBRANCH   9  10
ENDBRANCH   8   9
ENDBRANCH   7   8
ENDBRANCH   6   7
ENDBRANCH   5   6
ENDBRANCH   4   5
ENDBRANCH   3   4
ENDBRANCH   2   3
TORSDOF 13
ENDMDL
MODEL        4
REMARK 921   NORMALIZED FREE ENERGY PREDICTED BY IDOCK:   -4.57 KCAL/MOL
REMARK 922        TOTAL FREE ENERGY PREDICTED BY IDOCK:   -9.45 KCAL/MOL
REMARK 923 INTER-LIGAND FREE ENERGY PREDICTED BY IDOCK:   -8.04 KCAL/MOL
REMARK 924 INTRA-LIGAND FREE ENERGY PREDICTED BY IDOCK:   -1.40 KCAL/MOL
REMARK 927      BINDING AFFINITY PREDICTED BY RF-SCORE:    0.00 PKD
ROOT
HETATM    1  C   UNL     1     -12.612  15.506  73.720  1.00  0.00    -0.750 C  
HETATM    2  C   UNL     1     -13.594  15.441  72.563  1.00  0.00    -0.634 C  
ENDROOT
BRANCH   2   3
HETATM    3  C   UNL     1     -13.636  14.042  71.954  1.00  0.00    -0.520 C  
BRANCH   3   4
HETATM    4  C   UNL     1     -12.333  13.719  71.227  1.00  0.00    -0.394 C  
BRANCH   4   5
HETATM    5  C   UNL     1     -12.388  12.326  70.607  1.00  0.00    -0.375 C  
BRANCH   5   6
HETATM    6  C   UNL     1     -13.035  11.329  71.563  1.00  0.00    -0.520 C  
BRANCH   6   7
HETATM    7  C   UNL     1     -12.792   9.897  71.097  1.00  0.00    -0.461 C  
BRANCH   7   8
HETATM    8  C   UNL     1     -11.453   9.380  71.611  1.00  0.00    -0.463 C  
BRANCH   8   9
HETATM    9  C   UNL     1     -10.739   8.568  70.536  1.00  0.00    -0.246 C  
BRANCH   9  10
HETATM   10  C   UNL     1      -9.907   9.476  69.637  1.00  0.00    -0.220 C  
BRANCH  10  11
HETATM   11  C   UNL     1     -10.373   9.387  68.188  1.00  0.00    -0.255 C  
BRANCH  11  12
HETATM   12  C   UNL     1     -11.124  10.652  67.785  1.00  0.00    -0.385 C  
BRANCH  12  13
HETATM   13  C   UNL     1     -10.168  11.828  67.600  1.00  0.00    -0.216 C  
BRANCH  13  14
HETATM   14  C   UNL     1     -10.717  12.812  66.569  1.00  0.00    -0.277 C  
BRANCH  14  15
HETATM   15  C   UNL     1     -11.447  12.085  65.444  1.00  0.00    -0.361 C  
HETATM   16  C   UNL     1     -12.595  12.905  64.903  1.00  0.00    -0.458 C  
HETATM   17  O   UNL     1     -13.249  12.269  63.902  1.00  0.00    -0.766 OA 
HETATM   18  O   UNL     1     -12.924  14.012  65.297  1.00  0.00    -0.743 OA 
ENDBRANCH  14  15
ENDBRANCH  13  14
ENDBRANCH  12  13
ENDBRANCH  11  12
ENDBRANCH  10  11
ENDBRANCH   9  10
ENDBRANCH   8   9
ENDBRANCH   7   8
ENDBRANCH   6   7
ENDBRANCH   5   6
ENDBRANCH   4   5
ENDBRANCH   3   4
ENDBRANCH   2   3
TORSDOF 13
ENDMDL
MODEL        5
REMARK 921   NORMALIZED FREE ENERGY PREDICTED BY IDOCK:   -4.49 KCAL/MOL
REMARK 922        TOTAL FREE ENERGY PREDICTED BY IDOCK:   -9.31 KCAL/MOL
REMARK 923 INTER-LIGAND FREE ENERGY PREDICTED BY IDOCK:   -7.89 KCAL/MOL
REMARK 924 INTRA-LIGAND FREE ENERGY PREDICTED BY IDOCK:   -1.42 KCAL/MOL
REMARK 927      BINDING AFFINITY PREDICTED BY RF-SCORE:    0.00 PKD
ROOT
HETATM    1  C   UNL     1     -11.241   8.411  71.859  1.00  0.00    -0.379 C  
HETATM    2  C   UNL     1     -12.735   8.491  72.121  1.00  0.00    -0.423 C  
ENDROOT
BRANCH   2   3
HETATM    3  C   UNL     1     -13.306   9.826  71.650  1.00  0.00    -0.487 C  
BRANCH   3   4
HETATM    4  C   UNL     1     -12.287  10.597  70.816  1.00  0.00    -0.472 C  
BRANCH   4   5
HETATM    5  C   UNL     1     -12.488  12.102  70.969  1.00  0.00    -0.369 C  
BRANCH   5   6
HETATM    6  C   UNL     1     -13.496  12.408  72.072  1.00  0.00    -0.460 C  
BRANCH   6   7
HETATM    7  C   UNL     1     -13.706  13.913  72.209  1.00  0.00    -0.660 C  
BRANCH   7   8
HETATM    8  C   UNL     1     -12.841  14.482  73.327  1.00  0.00    -0.510 C  
BRANCH   8   9
HETATM    9  C   UNL     1     -11.731  15.360  72.758  1.00  0.00    -0.535 C  
BRANCH   9  10
HETATM   10  C   UNL     1     -12.195  16.059  71.486  1.00  0.00    -0.478 C  
BRANCH  10  11
HETATM   11  C   UNL     1     -11.158  15.921  70.376  1.00  0.00    -0.382 C  
BRANCH  11  12
HETATM   12  C   UNL     1     -11.782  15.300  69.130  1.00  0.00    -0.355 C  
BRANCH  12  13
HETATM   13  C   UNL     1     -11.121  15.827  67.859  1.00  0.00    -0.326 C  
BRANCH  13  14
HETATM   14  C   UNL     1     -11.219  14.799  66.735  1.00  0.00    -0.344 C  
BRANCH  14  15
HETATM   15  C   UNL     1     -10.938  13.389  67.247  1.00  0.00    -0.286 C  
HETATM   16  C   UNL     1     -11.691  12.346  66.454  1.00  0.00    -0.391 C  
HETATM   17  O   UNL     1     -11.447  11.092  66.900  1.00  0.00    -0.384 OA 
HETATM   18  O   UNL     1     -12.440  12.572  65.518  1.00  0.00    -0.646 OA 
ENDBRANCH  14  15
ENDBRANCH  13  14
ENDBRANCH  12  13
ENDBRANCH  11  12
ENDBRANCH  10  11
ENDBRANCH   9  10
ENDBRANCH   8   9
ENDBRANCH   7   8
ENDBRANCH   6   7
ENDBRANCH   5   6
ENDBRANCH   4   5
ENDBRANCH   3   4
ENDBRANCH   2   3
TORSDOF 13
ENDMDL
MODEL        6
REMARK 921   NORMALIZED FREE ENERGY PREDICTED BY IDOCK:   -4.40 KCAL/MOL
REMARK 922        TOTAL FREE ENERGY PREDICTED BY IDOCK:   -9.16 KCAL/MOL
REMARK 923 INTER-LIGAND FREE ENERGY PREDICTED BY IDOCK:   -7.49 KCAL/MOL
REMARK 924 INTRA-LIGAND FREE ENERGY PREDICTED BY IDOCK:   -1.66 KCAL/MOL
REMARK 927      BINDING AFFINITY PREDICTED BY RF-SCORE:    0.00 PKD
ROOT
HETATM    1  C   UNL     1     -10.681  15.526  65.347  1.00  0.00    -0.422 C  
HETATM    2  C   UNL     1     -11.835  14.888  64.592  1.00  0.00    -0.412 C  
ENDROOT
BRANCH   2   3
HETATM    3  C   UNL     1     -12.609  13.921  65.485  1.00  0.00    -0.560 C  
BRANCH   3   4
HETATM    4  C   UNL     1     -12.572  12.503  64.924  1.00  0.00    -0.469 C  
BRANCH   4   5
HETATM    5  C   UNL     1     -11.903  12.480  63.552  1.00  0.00    -0.616 C  
BRANCH   5   6
HETATM    6  C   UNL     1     -10.631  11.639  63.581  1.00  0.00    -0.493 C  
BRANCH   6   7
HETATM    7  C   UNL     1     -10.492  10.916  64.916  1.00  0.00    -0.352 C  
BRANCH   7   8
HETATM    8  C   UNL     1      -9.057  10.985  65.424  1.00  0.00    -0.213 C  
BRANCH   8   9
HETATM    9  C   UNL     1      -9.026  11.298  66.917  1.00  0.00    -0.163 C  
BRANCH   9  10
HETATM   10  C   UNL     1      -9.702  12.634  67.203  1.00  0.00    -0.211 C  
BRANCH  10  11
HETATM   11  C   UNL     1     -10.582  12.547  68.446  1.00  0.00    -0.256 C  
BRANCH  11  12
HETATM   12  C   UNL     1     -11.011  13.938  68.900  1.00  0.00    -0.290 C  
BRANCH  12  13
HETATM   13  C   UNL     1     -11.961  13.863  70.092  1.00  0.00    -0.402 C  
BRANCH  13  14
HETATM   14  C   UNL     1     -12.347  15.263  70.563  1.00  0.00    -0.434 C  
BRANCH  14  15
HETATM   15  C   UNL     1     -11.898  15.507  72.001  1.00  0.00    -0.538 C  
HETATM   16  C   UNL     1     -13.074  15.695  72.929  1.00  0.00    -0.520 C  
HETATM   17  O   UNL     1     -12.686  15.910  74.208  1.00  0.00    -0.598 OA 
HETATM   18  O   UNL     1     -14.249  15.663  72.601  1.00  0.00    -0.546 OA 
ENDBRANCH  14  15
ENDBRANCH  13  14
ENDBRANCH  12  13
ENDBRANCH  11  12
ENDBRANCH  10  11
ENDBRANCH   9  10
ENDBRANCH   8   9
ENDBRANCH   7   8
ENDBRANCH   6   7
ENDBRANCH   5   6
ENDBRANCH   4   5
ENDBRANCH   3   4
ENDBRANCH   2   3
TORSDOF 13
ENDMDL
MODEL        7
REMARK 921   NORMALIZED FREE ENERGY PREDICTED BY IDOCK:   -4.40 KCAL/MOL
REMARK 922        TOTAL FREE ENERGY PREDICTED BY IDOCK:   -9.15 KCAL/MOL
REMARK 923 INTER-LIGAND FREE ENERGY PREDICTED BY IDOCK:   -7.94 KCAL/MOL
REMARK 924 INTRA-LIGAND FREE ENERGY PREDICTED BY IDOCK:   -1.21 KCAL/MOL
REMARK 927      BINDING AFFINITY PREDICTED BY RF-SCORE:    0.00 PKD
ROOT
HETATM    1  C   UNL     1     -12.307  16.320  74.129  1.00  0.00    -0.631 C  
HETATM    2  C   UNL     1     -12.894  15.069  73.499  1.00  0.00    -0.636 C  
ENDROOT
BRANCH   2   3
HETATM    3  C   UNL     1     -13.927  15.423  72.432  1.00  0.00    -0.657 C  
BRANCH   3   4
HETATM    4  C   UNL     1     -13.674  14.646  71.142  1.00  0.00    -0.374 C  
BRANCH   4   5
HETATM    5  C   UNL     1     -12.541  15.280  70.341  1.00  0.00    -0.421 C  
BRANCH   5   6
HETATM    6  C   UNL     1     -11.447  14.260  70.043  1.00  0.00    -0.280 C  
BRANCH   6   7
HETATM    7  C   UNL     1     -11.863  13.342  68.898  1.00  0.00    -0.367 C  
BRANCH   7   8
HETATM    8  C   UNL     1     -11.900  11.888  69.355  1.00  0.00    -0.389 C  
BRANCH   8   9
HETATM    9  C   UNL     1     -10.551  11.215  69.123  1.00  0.00    -0.238 C  
BRANCH   9  10
HETATM   10  C   UNL     1     -10.698  10.018  68.191  1.00  0.00    -0.282 C  
BRANCH  10  11
HETATM   11  C   UNL     1      -9.854  10.197  66.933  1.00  0.00    -0.244 C  
BRANCH  11  12
HETATM   12  C   UNL     1     -10.648  10.923  65.852  1.00  0.00    -0.244 C  
BRANCH  12  13
HETATM   13  C   UNL     1     -10.133  12.346  65.649  1.00  0.00    -0.277 C  
BRANCH  13  14
HETATM   14  C   UNL     1     -11.294  13.333  65.562  1.00  0.00    -0.315 C  
BRANCH  14  15
HETATM   15  C   UNL     1     -10.794  14.765  65.402  1.00  0.00    -0.372 C  
HETATM   16  C   UNL     1     -11.651  15.552  64.438  1.00  0.00    -0.258 C  
HETATM   17  O   UNL     1     -11.216  16.825  64.289  1.00  0.00    -1.163 OA 
HETATM   18  O   UNL     1     -12.627  15.123  63.844  1.00  0.00    -0.794 OA 
ENDBRANCH  14  15
ENDBRANCH  13  14
ENDBRANCH  12  13
ENDBRANCH  11  12
ENDBRANCH  10  11
ENDBRANCH   9  10
ENDBRANCH   8   9
ENDBRANCH   7   8
ENDBRANCH   6   7
ENDBRANCH   5   6
ENDBRANCH   4   5
ENDBRANCH   3   4
ENDBRANCH   2   3
TORSDOF 13
ENDMDL
MODEL        8
REMARK 921   NORMALIZED FREE ENERGY PREDICTED BY IDOCK:   -4.39 KCAL/MOL
REMARK 922        TOTAL FREE ENERGY PREDICTED BY IDOCK:   -9.14 KCAL/MOL
REMARK 923 INTER-LIGAND FREE ENERGY PREDICTED BY IDOCK:   -7.94 KCAL/MOL
REMARK 924 INTRA-LIGAND FREE ENERGY PREDICTED BY IDOCK:   -1.20 KCAL/MOL
REMARK 927      BINDING AFFINITY PREDICTED BY RF-SCORE:    0.00 PKD
ROOT
HETATM    1  C   UNL     1     -12.615  15.394  73.697  1.00  0.00    -0.723 C  
HETATM    2  C   UNL     1     -13.734  15.750  72.733  1.00  0.00    -0.639 C  
ENDROOT
BRANCH   2   3
HETATM    3  C   UNL     1     -13.905  14.672  71.665  1.00  0.00    -0.522 C  
BRANCH   3   4
HETATM    4  C   UNL     1     -13.772  13.276  72.267  1.00  0.00    -0.686 C  
BRANCH   4   5
HETATM    5  C   UNL     1     -12.823  12.416  71.438  1.00  0.00    -0.360 C  
BRANCH   5   6
HETATM    6  C   UNL     1     -12.181  13.233  70.322  1.00  0.00    -0.391 C  
BRANCH   6   7
HETATM    7  C   UNL     1     -11.710  12.324  69.190  1.00  0.00    -0.377 C  
BRANCH   7   8
HETATM    8  C   UNL     1     -11.617  13.096  67.879  1.00  0.00    -0.375 C  
BRANCH   8   9
HETATM    9  C   UNL     1     -11.176  12.179  66.743  1.00  0.00    -0.375 C  
BRANCH   9  10
HETATM   10  C   UNL     1     -11.936  12.501  65.462  1.00  0.00    -0.500 C  
BRANCH  10  11
HETATM   11  C   UNL     1     -11.211  13.571  64.651  1.00  0.00    -0.377 C  
BRANCH  11  12
HETATM   12  C   UNL     1     -12.059  14.835  64.549  1.00  0.00    -0.460 C  
BRANCH  12  13
HETATM   13  C   UNL     1     -11.195  16.090  64.647  1.00  0.00    -0.340 C  
BRANCH  13  14
HETATM   14  C   UNL     1     -10.171  15.952  65.771  1.00  0.00    -0.389 C  
BRANCH  14  15
HETATM   15  C   UNL     1     -10.503  16.875  66.940  1.00  0.00    -0.271 C  
HETATM   16  C   UNL     1      -9.753  18.184  66.849  1.00  0.00    -0.318 C  
HETATM   17  O   UNL     1     -10.043  19.011  67.881  1.00  0.00    -0.342 OA 
HETATM   18  O   UNL     1      -8.971  18.493  65.965  1.00  0.00    -0.491 OA 
ENDBRANCH  14  15
ENDBRANCH  13  14
ENDBRANCH  12  13
ENDBRANCH  11  12
ENDBRANCH  10  11
ENDBRANCH   9  10
ENDBRANCH   8   9
ENDBRANCH   7   8
ENDBRANCH   6   7
ENDBRANCH   5   6
ENDBRANCH   4   5
ENDBRANCH   3   4
ENDBRANCH   2   3
TORSDOF 13
ENDMDL
MODEL        9
REMARK 921   NORMALIZED FREE ENERGY PREDICTED BY IDOCK:   -4.38 KCAL/MOL
REMARK 922        TOTAL FREE ENERGY PREDICTED BY IDOCK:   -9.12 KCAL/MOL
REMARK 923 INTER-LIGAND FREE ENERGY PREDICTED BY IDOCK:   -7.48 KCAL/MOL
REMARK 924 INTRA-LIGAND FREE ENERGY PREDICTED BY IDOCK:   -1.64 KCAL/MOL
REMARK 927      BINDING AFFINITY PREDICTED BY RF-SCORE:    0.00 PKD
ROOT
HETATM    1  C   UNL     1     -14.120   7.265  71.551  1.00  0.00    -0.515 C  
HETATM    2  C   UNL     1     -14.313   8.696  72.022  1.00  0.00    -0.512 C  
ENDROOT
BRANCH   2   3
HETATM    3  C   UNL     1     -12.985   9.448  72.057  1.00  0.00    -0.508 C  
BRANCH   3   4
HETATM    4  C   UNL     1     -13.187  10.935  71.780  1.00  0.00    -0.513 C  
BRANCH   4   5
HETATM    5  C   UNL     1     -12.284  11.402  70.642  1.00  0.00    -0.484 C  
BRANCH   5   6
HETATM    6  C   UNL     1     -11.852  10.227  69.771  1.00  0.00    -0.217 C  
BRANCH   6   7
HETATM    7  C   UNL     1     -10.359  10.302  69.467  1.00  0.00    -0.267 C  
BRANCH   7   8
HETATM    8  C   UNL     1     -10.083  11.301  68.349  1.00  0.00    -0.202 C  
BRANCH   8   9
HETATM    9  C   UNL     1     -11.002  11.046  67.158  1.00  0.00    -0.344 C  
BRANCH   9  10
HETATM   10  C   UNL     1     -11.633  12.347  66.675  1.00  0.00    -0.447 C  
BRANCH  10  11
HETATM   11  C   UNL     1     -10.961  13.554  67.323  1.00  0.00    -0.293 C  
BRANCH  11  12
HETATM   12  C   UNL     1     -11.991  14.425  68.035  1.00  0.00    -0.326 C  
BRANCH  12  13
HETATM   13  C   UNL     1     -11.419  15.019  69.319  1.00  0.00    -0.326 C  
BRANCH  13  14
HETATM   14  C   UNL     1     -12.474  15.030  70.424  1.00  0.00    -0.407 C  
BRANCH  14  15
HETATM   15  C   UNL     1     -11.852  15.352  71.780  1.00  0.00    -0.483 C  
HETATM   16  C   UNL     1     -12.674  14.794  72.918  1.00  0.00    -0.426 C  
HETATM   17  O   UNL     1     -12.130  15.073  74.126  1.00  0.00    -0.579 OA 
HETATM   18  O   UNL     1     -13.712  14.163  72.800  1.00  0.00    -0.628 OA 
ENDBRANCH  14  15
ENDBRANCH  13  14
ENDBRANCH  12  13
ENDBRANCH  11  12
ENDBRANCH  10  11
ENDBRANCH   9  10
ENDBRANCH   8   9
ENDBRANCH   7   8
ENDBRANCH   6   7
ENDBRANCH   5   6
ENDBRANCH   4   5
ENDBRANCH   3   4
ENDBRANCH   2   3
TORSDOF 13
ENDMDL
MODEL       10
REMARK 921   NORMALIZED FREE ENERGY PREDICTED BY IDOCK:   -4.36 KCAL/MOL
REMARK 922        TOTAL FREE ENERGY PREDICTED BY IDOCK:   -9.08 KCAL/MOL
REMARK 923 INTER-LIGAND FREE ENERGY PREDICTED BY IDOCK:   -7.54 KCAL/MOL
REMARK 924 INTRA-LIGAND FREE ENERGY PREDICTED BY IDOCK:   -1.54 KCAL/MOL
REMARK 927      BINDING AFFINITY PREDICTED BY RF-SCORE:    0.00 PKD
ROOT
HETATM    1  C   UNL     1     -11.875  12.395  65.335  1.00  0.00    -0.460 C  
HETATM    2  C   UNL     1     -11.018  11.965  66.513  1.00  0.00    -0.337 C  
ENDROOT
BRANCH   2   3
HETATM    3  C   UNL     1     -11.774  12.122  67.830  1.00  0.00    -0.403 C  
BRANCH   3   4
HETATM    4  C   UNL     1     -11.720  10.837  68.652  1.00  0.00    -0.289 C  
BRANCH   4   5
HETATM    5  C   UNL     1     -11.521  11.148  70.133  1.00  0.00    -0.361 C  
BRANCH   5   6
HETATM    6  C   UNL     1     -12.660  10.572  70.968  1.00  0.00    -0.499 C  
BRANCH   6   7
HETATM    7  C   UNL     1     -13.272  11.647  71.860  1.00  0.00    -0.475 C  
BRANCH   7   8
HETATM    8  C   UNL     1     -12.695  13.018  71.530  1.00  0.00    -0.349 C  
BRANCH   8   9
HETATM    9  C   UNL     1     -13.722  14.115  71.792  1.00  0.00    -0.492 C  
BRANCH   9  10
HETATM   10  C   UNL     1     -13.338  15.399  71.066  1.00  0.00    -0.545 C  
BRANCH  10  11
HETATM   11  C   UNL     1     -11.972  15.899  71.524  1.00  0.00    -0.537 C  
BRANCH  11  12
HETATM   12  C   UNL     1     -11.093  16.239  70.325  1.00  0.00    -0.340 C  
BRANCH  12  13
HETATM   13  C   UNL     1     -11.674  15.669  69.034  1.00  0.00    -0.408 C  
BRANCH  13  14
HETATM   14  C   UNL     1     -10.682  15.820  67.883  1.00  0.00    -0.302 C  
BRANCH  14  15
HETATM   15  C   UNL     1     -11.389  15.773  66.532  1.00  0.00     0.132 C  
HETATM   16  C   UNL     1     -10.689  16.632  65.505  1.00  0.00    -0.223 C  
HETATM   17  O   UNL     1     -11.309  16.595  64.302  1.00  0.00    -1.116 OA 
HETATM   18  O   UNL     1      -9.684  17.295  65.701  1.00  0.00    -0.535 OA 
ENDBRANCH  14  15
ENDBRANCH  13  14
ENDBRANCH  12  13
ENDBRANCH  11  12
ENDBRANCH  10  11
ENDBRANCH   9  10
ENDBRANCH   8   9
ENDBRANCH   7   8
ENDBRANCH   6   7
ENDBRANCH   5   6
ENDBRANCH   4   5
ENDBRANCH   3   4
ENDBRANCH   2   3
TORSDOF 13
ENDMDL
MODEL       11
REMARK 921   NORMALIZED FREE ENERGY PREDICTED BY IDOCK:   -4.35 KCAL/MOL
REMARK 922        TOTAL FREE ENERGY PREDICTED BY IDOCK:   -9.07 KCAL/MOL
REMARK 923 INTER-LIGAND FREE ENERGY PREDICTED BY IDOCK:   -7.64 KCAL/MOL
REMARK 924 INTRA-LIGAND FREE ENERGY PREDICTED BY IDOCK:   -1.44 KCAL/MOL
REMARK 927      BINDING AFFINITY PREDICTED BY RF-SCORE:    0.00 PKD
ROOT
HETATM    1  C   UNL     1     -12.853  16.074  73.661  1.00  0.00    -0.708 C  
HETATM    2  C   UNL     1     -13.730  15.591  72.519  1.00  0.00    -0.668 C  
ENDROOT
BRANCH   2   3
HETATM    3  C   UNL     1     -13.570  14.089  72.298  1.00  0.00    -0.622 C  
BRANCH   3   4
HETATM    4  C   UNL     1     -12.592  13.800  71.164  1.00  0.00    -0.452 C  
BRANCH   4   5
HETATM    5  C   UNL     1     -12.530  12.304  70.868  1.00  0.00    -0.371 C  
BRANCH   5   6
HETATM    6  C   UNL     1     -11.721  12.031  69.604  1.00  0.00    -0.405 C  
BRANCH   6   7
HETATM    7  C   UNL     1     -11.557  13.306  68.783  1.00  0.00    -0.350 C  
BRANCH   7   8
HETATM    8  C   UNL     1     -12.050  13.099  67.355  1.00  0.00    -0.316 C  
BRANCH   8   9
HETATM    9  C   UNL     1     -11.678  14.289  66.477  1.00  0.00    -0.409 C  
BRANCH   9  10
HETATM   10  C   UNL     1     -12.287  14.145  65.087  1.00  0.00    -0.460 C  
BRANCH  10  11
HETATM   11  C   UNL     1     -12.768  12.717  64.845  1.00  0.00    -0.479 C  
BRANCH  11  12
HETATM   12  C   UNL     1     -12.261  12.198  63.504  1.00  0.00    -0.670 C  
BRANCH  12  13
HETATM   13  C   UNL     1     -10.737  12.137  63.475  1.00  0.00    -0.509 C  
BRANCH  13  14
HETATM   14  C   UNL     1     -10.232  10.910  64.231  1.00  0.00    -0.430 C  
BRANCH  14  15
HETATM   15  C   UNL     1      -9.378  11.312  65.431  1.00  0.00    -0.232 C  
HETATM   16  C   UNL     1      -9.662  10.442  66.633  1.00  0.00    -0.190 C  
HETATM   17  O   UNL     1      -8.908  10.789  67.703  1.00  0.00    -0.131 OA 
HETATM   18  O   UNL     1     -10.468   9.527  66.673  1.00  0.00    -0.231 OA 
ENDBRANCH  14  15
ENDBRANCH  13  14
ENDBRANCH  12  13
ENDBRANCH  11  12
ENDBRANCH  10  11
ENDBRANCH   9  10
ENDBRANCH   8   9
ENDBRANCH   7   8
ENDBRANCH   6   7
ENDBRANCH   5   6
ENDBRANCH   4   5
ENDBRANCH   3   4
ENDBRANCH   2   3
TORSDOF 13
ENDMDL
MODEL       12
REMARK 921   NORMALIZED FREE ENERGY PREDICTED BY IDOCK:   -4.34 KCAL/MOL
REMARK 922        TOTAL FREE ENERGY PREDICTED BY IDOCK:   -9.04 KCAL/MOL
REMARK 923 INTER-LIGAND FREE ENERGY PREDICTED BY IDOCK:   -7.16 KCAL/MOL
REMARK 924 INTRA-LIGAND FREE ENERGY PREDICTED BY IDOCK:   -1.88 KCAL/MOL
REMARK 927      BINDING AFFINITY PREDICTED BY RF-SCORE:    0.00 PKD
ROOT
HETATM    1  C   UNL     1      -9.175   9.316  67.098  1.00  0.00    -0.157 C  
HETATM    2  C   UNL     1     -10.368   8.427  66.792  1.00  0.00    -0.357 C  
ENDROOT
BRANCH   2   3
HETATM    3  C   UNL     1     -10.692   7.514  67.971  1.00  0.00    -0.170 C  
BRANCH   3   4
HETATM    4  C   UNL     1      -9.744   7.767  69.140  1.00  0.00    -0.161 C  
BRANCH   4   5
HETATM    5  C   UNL     1     -10.199   7.007  70.382  1.00  0.00    -0.209 C  
BRANCH   5   6
HETATM    6  C   UNL     1     -11.671   6.623  70.278  1.00  0.00    -0.432 C  
BRANCH   6   7
HETATM    7  C   UNL     1     -12.411   6.964  71.567  1.00  0.00    -0.420 C  
BRANCH   7   8
HETATM    8  C   UNL     1     -12.013   8.347  72.070  1.00  0.00    -0.419 C  
BRANCH   8   9
HETATM    9  C   UNL     1     -13.235   9.253  72.183  1.00  0.00    -0.535 C  
BRANCH   9  10
HETATM   10  C   UNL     1     -13.134  10.420  71.208  1.00  0.00    -0.494 C  
BRANCH  10  11
HETATM   11  C   UNL     1     -11.735  10.512  70.607  1.00  0.00    -0.453 C  
BRANCH  11  12
HETATM   12  C   UNL     1     -11.620  11.727  69.693  1.00  0.00    -0.393 C  
BRANCH  12  13
HETATM   13  C   UNL     1     -11.921  11.359  68.243  1.00  0.00    -0.234 C  
BRANCH  13  14
HETATM   14  C   UNL     1     -11.665  12.548  67.320  1.00  0.00    -0.431 C  
BRANCH  14  15
HETATM   15  C   UNL     1     -11.638  12.118  65.856  1.00  0.00    -0.425 C  
HETATM   16  C   UNL     1     -12.569  12.956  65.011  1.00  0.00    -0.472 C  
HETATM   17  O   UNL     1     -12.551  12.583  63.710  1.00  0.00    -0.644 OA 
HETATM   18  O   UNL     1     -13.270  13.867  65.419  1.00  0.00    -0.750 OA 
ENDBRANCH  14  15
ENDBRANCH  13  14
ENDBRANCH  12  13
ENDBRANCH  11  12
ENDBRANCH  10  11
ENDBRANCH   9  10
ENDBRANCH   8   9
ENDBRANCH   7   8
ENDBRANCH   6   7
ENDBRANCH   5   6
ENDBRANCH   4   5
ENDBRANCH   3   4
ENDBRANCH   2   3
TORSDOF 13
ENDMDL
MODEL       13
REMARK 921   NORMALIZED FREE ENERGY PREDICTED BY IDOCK:   -4.34 KCAL/MOL
REMARK 922        TOTAL FREE ENERGY PREDICTED BY IDOCK:   -9.04 KCAL/MOL
REMARK 923 INTER-LIGAND FREE ENERGY PREDICTED BY IDOCK:   -7.72 KCAL/MOL
REMARK 924 INTRA-LIGAND FREE ENERGY PREDICTED BY IDOCK:   -1.32 KCAL/MOL
REMARK 927      BINDING AFFINITY PREDICTED BY RF-SCORE:    0.00 PKD
ROOT
HETATM    1  C   UNL     1     -13.870  15.495  71.985  1.00  0.00    -0.602 C  
HETATM    2  C   UNL     1     -12.742  15.151  71.028  1.00  0.00    -0.458 C  
ENDROOT
BRANCH   2   3
HETATM    3  C   UNL     1     -12.393  13.666  71.099  1.00  0.00    -0.403 C  
BRANCH   3   4
HETATM    4  C   UNL     1     -13.184  12.967  72.201  1.00  0.00    -0.552 C  
BRANCH   4   5
HETATM    5  C   UNL     1     -13.272  11.466  71.937  1.00  0.00    -0.485 C  
BRANCH   5   6
HETATM    6  C   UNL     1     -12.171  11.015  70.983  1.00  0.00    -0.456 C  
BRANCH   6   7
HETATM    7  C   UNL     1     -11.980   9.504  71.055  1.00  0.00    -0.407 C  
BRANCH   7   8
HETATM    8  C   UNL     1     -10.822   9.061  70.169  1.00  0.00    -0.261 C  
BRANCH   8   9
HETATM    9  C   UNL     1     -10.026  10.265  69.678  1.00  0.00    -0.240 C  
BRANCH   9  10
HETATM   10  C   UNL     1     -10.023  10.327  68.155  1.00  0.00    -0.168 C  
BRANCH  10  11
HETATM   11  C   UNL     1     -10.283  11.747  67.664  1.00  0.00    -0.216 C  
BRANCH  11  12
HETATM   12  C   UNL     1     -11.769  12.080  67.741  1.00  0.00    -0.379 C  
BRANCH  12  13
HETATM   13  C   UNL     1     -12.079  13.397  67.036  1.00  0.00    -0.390 C  
BRANCH  13  14
HETATM   14  C   UNL     1     -11.092  13.644  65.897  1.00  0.00    -0.289 C  
BRANCH  14  15
HETATM   15  C   UNL     1     -11.650  14.641  64.886  1.00  0.00    -0.405 C  
HETATM   16  C   UNL     1     -10.853  15.925  64.868  1.00  0.00    -0.400 C  
HETATM   17  O   UNL     1     -11.340  16.815  63.972  1.00  0.00    -1.153 OA 
HETATM   18  O   UNL     1      -9.880  16.165  65.564  1.00  0.00    -0.458 OA 
ENDBRANCH  14  15
ENDBRANCH  13  14
ENDBRANCH  12  13
ENDBRANCH  11  12
ENDBRANCH  10  11
ENDBRANCH   9  10
ENDBRANCH   8   9
ENDBRANCH   7   8
ENDBRANCH   6   7
ENDBRANCH   5   6
ENDBRANCH   4   5
ENDBRANCH   3   4
ENDBRANCH   2   3
TORSDOF 13
ENDMDL
MODEL       14
REMARK 921   NORMALIZED FREE ENERGY PREDICTED BY IDOCK:   -4.33 KCAL/MOL
REMARK 922        TOTAL FREE ENERGY PREDICTED BY IDOCK:   -9.03 KCAL/MOL
REMARK 923 INTER-LIGAND FREE ENERGY PREDICTED BY IDOCK:   -7.66 KCAL/MOL
REMARK 924 INTRA-LIGAND FREE ENERGY PREDICTED BY IDOCK:   -1.37 KCAL/MOL
REMARK 927      BINDING AFFINITY PREDICTED BY RF-SCORE:    0.00 PKD
ROOT
HETATM    1  C   UNL     1      -7.958  19.802  66.234  1.00  0.00    -0.346 C  
HETATM    2  C   UNL     1      -9.467  19.655  66.325  1.00  0.00    -0.474 C  
ENDROOT
BRANCH   2   3
HETATM    3  C   UNL     1     -10.003  20.262  67.620  1.00  0.00    -0.551 C  
BRANCH   3   4
HETATM    4  C   UNL     1      -9.924  19.263  68.770  1.00  0.00    -0.511 C  
BRANCH   4   5
HETATM    5  C   UNL     1     -10.401  17.883  68.324  1.00  0.00    -0.389 C  
BRANCH   5   6
HETATM    6  C   UNL     1      -9.334  16.826  68.588  1.00  0.00    -0.252 C  
BRANCH   6   7
HETATM    7  C   UNL     1      -9.837  15.791  69.589  1.00  0.00    -0.275 C  
BRANCH   7   8
HETATM    8  C   UNL     1     -11.083  16.292  70.308  1.00  0.00    -0.340 C  
BRANCH   8   9
HETATM    9  C   UNL     1     -11.623  15.229  71.259  1.00  0.00    -0.430 C  
BRANCH   9  10
HETATM   10  C   UNL     1     -12.613  14.317  70.544  1.00  0.00    -0.418 C  
BRANCH  10  11
HETATM   11  C   UNL     1     -12.074  12.894  70.447  1.00  0.00    -0.385 C  
BRANCH  11  12
HETATM   12  C   UNL     1     -11.520  12.621  69.052  1.00  0.00    -0.354 C  
BRANCH  12  13
HETATM   13  C   UNL     1     -12.153  13.546  68.016  1.00  0.00    -0.298 C  
BRANCH  13  14
HETATM   14  C   UNL     1     -11.315  13.579  66.740  1.00  0.00    -0.351 C  
BRANCH  14  15
HETATM   15  C   UNL     1     -11.798  12.539  65.732  1.00  0.00    -0.494 C  
HETATM   16  C   UNL     1     -12.386  13.187  64.500  1.00  0.00    -0.385 C  
HETATM   17  O   UNL     1     -12.816  12.272  63.599  1.00  0.00    -0.753 OA 
HETATM   18  O   UNL     1     -12.479  14.388  64.306  1.00  0.00    -0.659 OA 
ENDBRANCH  14  15
ENDBRANCH  13  14
ENDBRANCH  12  13
ENDBRANCH  11  12
ENDBRANCH  10  11
ENDBRANCH   9  10
ENDBRANCH   8   9
ENDBRANCH   7   8
ENDBRANCH   6   7
ENDBRANCH   5   6
ENDBRANCH   4   5
ENDBRANCH   3   4
ENDBRANCH   2   3
TORSDOF 13
ENDMDL
MODEL       15
REMARK 921   NORMALIZED FREE ENERGY PREDICTED BY IDOCK:   -4.33 KCAL/MOL
REMARK 922        TOTAL FREE ENERGY PREDICTED BY IDOCK:   -9.03 KCAL/MOL
REMARK 923 INTER-LIGAND FREE ENERGY PREDICTED BY IDOCK:   -7.52 KCAL/MOL
REMARK 924 INTRA-LIGAND FREE ENERGY PREDICTED BY IDOCK:   -1.50 KCAL/MOL
REMARK 927      BINDING AFFINITY PREDICTED BY RF-SCORE:    0.00 PKD
ROOT
HETATM    1  C   UNL     1      -9.353  10.435  63.233  1.00  0.00    -0.335 C  
HETATM    2  C   UNL     1     -10.370  11.355  63.886  1.00  0.00    -0.434 C  
ENDROOT
BRANCH   2   3
HETATM    3  C   UNL     1     -10.226  11.344  65.406  1.00  0.00    -0.320 C  
BRANCH   3   4
HETATM    4  C   UNL     1     -11.396  12.061  66.075  1.00  0.00    -0.398 C  
BRANCH   4   5
HETATM    5  C   UNL     1     -12.332  12.663  65.030  1.00  0.00    -0.561 C  
BRANCH   5   6
HETATM    6  C   UNL     1     -12.655  14.116  65.362  1.00  0.00    -0.485 C  
BRANCH   6   7
HETATM    7  C   UNL     1     -11.840  15.063  64.487  1.00  0.00    -0.377 C  
BRANCH   7   8
HETATM    8  C   UNL     1     -10.492  15.369  65.129  1.00  0.00    -0.439 C  
BRANCH   8   9
HETATM    9  C   UNL     1     -10.517  16.731  65.815  1.00  0.00    -0.305 C  
BRANCH   9  10
HETATM   10  C   UNL     1     -10.372  16.577  67.325  1.00  0.00    -0.296 C  
BRANCH  10  11
HETATM   11  C   UNL     1     -10.078  15.128  67.702  1.00  0.00    -0.231 C  
BRANCH  11  12
HETATM   12  C   UNL     1     -10.982  14.675  68.843  1.00  0.00    -0.264 C  
BRANCH  12  13
HETATM   13  C   UNL     1     -11.573  15.868  69.589  1.00  0.00    -0.339 C  
BRANCH  13  14
HETATM   14  C   UNL     1     -12.584  15.404  70.634  1.00  0.00    -0.491 C  
BRANCH  14  15
HETATM   15  C   UNL     1     -12.047  15.599  72.049  1.00  0.00    -0.529 C  
HETATM   16  C   UNL     1     -12.873  14.849  73.068  1.00  0.00    -0.486 C  
HETATM   17  O   UNL     1     -12.403  15.014  74.327  1.00  0.00    -0.587 OA 
HETATM   18  O   UNL     1     -13.855  14.167  72.822  1.00  0.00    -0.645 OA 
ENDBRANCH  14  15
ENDBRANCH  13  14
ENDBRANCH  12  13
ENDBRANCH  11  12
ENDBRANCH  10  11
ENDBRANCH   9  10
ENDBRANCH   8   9
ENDBRANCH   7   8
ENDBRANCH   6   7
ENDBRANCH   5   6
ENDBRANCH   4   5
ENDBRANCH   3   4
ENDBRANCH   2   3
TORSDOF 13
ENDMDL
MODEL       16
REMARK 921   NORMALIZED FREE ENERGY PREDICTED BY IDOCK:   -4.33 KCAL/MOL
REMARK 922        TOTAL FREE ENERGY PREDICTED BY IDOCK:   -9.02 KCAL/MOL
REMARK 923 INTER-LIGAND FREE ENERGY PREDICTED BY IDOCK:   -7.79 KCAL/MOL
REMARK 924 INTRA-LIGAND FREE ENERGY PREDICTED BY IDOCK:   -1.24 KCAL/MOL
REMARK 927      BINDING AFFINITY PREDICTED BY RF-SCORE:    0.00 PKD
ROOT
HETATM    1  C   UNL     1     -10.208   9.592  70.611  1.00  0.00    -0.364 C  
HETATM    2  C   UNL     1     -11.304  10.604  70.324  1.00  0.00    -0.401 C  
ENDROOT
BRANCH   2   3
HETATM    3  C   UNL     1     -12.660  10.102  70.815  1.00  0.00    -0.406 C  
BRANCH   3   4
HETATM    4  C   UNL     1     -13.190  10.972  71.951  1.00  0.00    -0.503 C  
BRANCH   4   5
HETATM    5  C   UNL     1     -13.075  12.453  71.599  1.00  0.00    -0.408 C  
BRANCH   5   6
HETATM    6  C   UNL     1     -14.073  13.283  72.399  1.00  0.00    -0.460 C  
BRANCH   6   7
HETATM    7  C   UNL     1     -14.072  14.733  71.925  1.00  0.00    -0.609 C  
BRANCH   7   8
HETATM    8  C   UNL     1     -13.349  15.629  72.923  1.00  0.00    -0.651 C  
BRANCH   8   9
HETATM    9  C   UNL     1     -12.029  16.127  72.345  1.00  0.00    -0.649 C  
BRANCH   9  10
HETATM   10  C   UNL     1     -11.995  15.935  70.833  1.00  0.00    -0.432 C  
BRANCH  10  11
HETATM   11  C   UNL     1     -10.663  15.342  70.386  1.00  0.00    -0.312 C  
BRANCH  11  12
HETATM   12  C   UNL     1     -10.829  14.567  69.083  1.00  0.00    -0.278 C  
BRANCH  12  13
HETATM   13  C   UNL     1     -10.961  15.510  67.891  1.00  0.00    -0.316 C  
BRANCH  13  14
HETATM   14  C   UNL     1      -9.928  16.631  67.973  1.00  0.00    -0.258 C  
BRANCH  14  15
HETATM   15  C   UNL     1     -10.565  17.992  67.706  1.00  0.00    -0.409 C  
HETATM   16  C   UNL     1      -9.883  18.714  66.568  1.00  0.00    -0.364 C  
HETATM   17  O   UNL     1     -10.443  19.922  66.322  1.00  0.00    -0.470 OA 
HETATM   18  O   UNL     1      -8.937  18.290  65.924  1.00  0.00    -0.497 OA 
ENDBRANCH  14  15
ENDBRANCH  13  14
ENDBRANCH  12  13
ENDBRANCH  11  12
ENDBRANCH  10  11
ENDBRANCH   9  10
ENDBRANCH   8   9
ENDBRANCH   7   8
ENDBRANCH   6   7
ENDBRANCH   5   6
ENDBRANCH   4   5
ENDBRANCH   3   4
ENDBRANCH   2   3
TORSDOF 13
ENDMDL
MODEL       17
REMARK 921   NORMALIZED FREE ENERGY PREDICTED BY IDOCK:   -4.33 KCAL/MOL
REMARK 922        TOTAL FREE ENERGY PREDICTED BY IDOCK:   -9.02 KCAL/MOL
REMARK 923 INTER-LIGAND FREE ENERGY PREDICTED BY IDOCK:   -7.67 KCAL/MOL
REMARK 924 INTRA-LIGAND FREE ENERGY PREDICTED BY IDOCK:   -1.35 KCAL/MOL
REMARK 927      BINDING AFFINITY PREDICTED BY RF-SCORE:    0.00 PKD
ROOT
HETATM    1  C   UNL     1     -10.935  11.773  63.599  1.00  0.00    -0.513 C  
HETATM    2  C   UNL     1     -11.208  12.283  65.004  1.00  0.00    -0.367 C  
ENDROOT
BRANCH   2   3
HETATM    3  C   UNL     1     -12.030  13.570  64.972  1.00  0.00    -0.399 C  
BRANCH   3   4
HETATM    4  C   UNL     1     -12.219  14.136  66.377  1.00  0.00    -0.473 C  
BRANCH   4   5
HETATM    5  C   UNL     1     -11.893  13.085  67.434  1.00  0.00    -0.411 C  
BRANCH   5   6
HETATM    6  C   UNL     1     -11.013  13.672  68.533  1.00  0.00    -0.289 C  
BRANCH   6   7
HETATM    7  C   UNL     1     -11.503  15.061  68.932  1.00  0.00    -0.333 C  
BRANCH   7   8
HETATM    8  C   UNL     1     -10.684  15.611  70.093  1.00  0.00    -0.355 C  
BRANCH   8   9
HETATM    9  C   UNL     1     -11.589  16.273  71.127  1.00  0.00    -0.376 C  
BRANCH   9  10
HETATM   10  C   UNL     1     -11.952  15.292  72.235  1.00  0.00    -0.511 C  
BRANCH  10  11
HETATM   11  C   UNL     1     -13.464  15.219  72.428  1.00  0.00    -0.565 C  
BRANCH  11  12
HETATM   12  C   UNL     1     -13.955  13.781  72.297  1.00  0.00    -0.672 C  
BRANCH  12  13
HETATM   13  C   UNL     1     -12.980  12.936  71.482  1.00  0.00    -0.388 C  
BRANCH  13  14
HETATM   14  C   UNL     1     -13.105  11.460  71.853  1.00  0.00    -0.505 C  
BRANCH  14  15
HETATM   15  C   UNL     1     -12.214  10.589  70.972  1.00  0.00    -0.505 C  
HETATM   16  C   UNL     1     -12.145   9.168  71.478  1.00  0.00    -0.351 C  
HETATM   17  O   UNL     1     -11.357   8.387  70.702  1.00  0.00    -0.263 OA 
HETATM   18  O   UNL     1     -12.718   8.738  72.466  1.00  0.00    -0.396 OA 
ENDBRANCH  14  15
ENDBRANCH  13  14
ENDBRANCH  12  13
ENDBRANCH  11  12
ENDBRANCH  10  11
ENDBRANCH   9  10
ENDBRANCH   8   9
ENDBRANCH   7   8
ENDBRANCH   6   7
ENDBRANCH   5   6
ENDBRANCH   4   5
ENDBRANCH   3   4
ENDBRANCH   2   3
TORSDOF 13
ENDMDL
MODEL       18
REMARK 921   NORMALIZED FREE ENERGY PREDICTED BY IDOCK:   -4.32 KCAL/MOL
REMARK 922        TOTAL FREE ENERGY PREDICTED BY IDOCK:   -9.01 KCAL/MOL
REMARK 923 INTER-LIGAND FREE ENERGY PREDICTED BY IDOCK:   -7.34 KCAL/MOL
REMARK 924 INTRA-LIGAND FREE ENERGY PREDICTED BY IDOCK:   -1.67 KCAL/MOL
REMARK 927      BINDING AFFINITY PREDICTED BY RF-SCORE:    0.00 PKD
ROOT
HETATM    1  C   UNL     1     -12.598  15.794  74.220  1.00  0.00    -0.734 C  
HETATM    2  C   UNL     1     -13.299  15.241  72.991  1.00  0.00    -0.610 C  
ENDROOT
BRANCH   2   3
HETATM    3  C   UNL     1     -12.433  15.401  71.744  1.00  0.00    -0.451 C  
BRANCH   3   4
HETATM    4  C   UNL     1     -12.410  14.115  70.922  1.00  0.00    -0.438 C  
BRANCH   4   5
HETATM    5  C   UNL     1     -13.116  12.984  71.664  1.00  0.00    -0.440 C  
BRANCH   5   6
HETATM    6  C   UNL     1     -12.732  11.627  71.083  1.00  0.00    -0.426 C  
BRANCH   6   7
HETATM    7  C   UNL     1     -11.540  11.762  70.141  1.00  0.00    -0.281 C  
BRANCH   7   8
HETATM    8  C   UNL     1     -11.906  11.304  68.734  1.00  0.00    -0.396 C  
BRANCH   8   9
HETATM    9  C   UNL     1     -11.133  12.101  67.689  1.00  0.00    -0.320 C  
BRANCH   9  10
HETATM   10  C   UNL     1     -11.898  13.360  67.295  1.00  0.00    -0.422 C  
BRANCH  10  11
HETATM   11  C   UNL     1     -10.964  14.564  67.211  1.00  0.00    -0.307 C  
BRANCH  11  12
HETATM   12  C   UNL     1      -9.961  14.547  68.360  1.00  0.00    -0.241 C  
BRANCH  12  13
HETATM   13  C   UNL     1      -9.777  15.941  68.954  1.00  0.00    -0.230 C  
BRANCH  13  14
HETATM   14  C   UNL     1     -10.618  16.966  68.196  1.00  0.00    -0.360 C  
BRANCH  14  15
HETATM   15  C   UNL     1      -9.843  18.261  67.971  1.00  0.00    -0.343 C  
HETATM   16  C   UNL     1      -9.805  18.643  66.510  1.00  0.00    -0.364 C  
HETATM   17  O   UNL     1      -9.120  19.792  66.301  1.00  0.00    -0.365 OA 
HETATM   18  O   UNL     1     -10.317  18.013  65.599  1.00  0.00    -0.611 OA 
ENDBRANCH  14  15
ENDBRANCH  13  14
ENDBRANCH  12  13
ENDBRANCH  11  12
ENDBRANCH  10  11
ENDBRANCH   9  10
ENDBRANCH   8   9
ENDBRANCH   7   8
ENDBRANCH   6   7
ENDBRANCH   5   6
ENDBRANCH   4   5
ENDBRANCH   3   4
ENDBRANCH   2   3
TORSDOF 13
ENDMDL
MODEL       19
REMARK 921   NORMALIZED FREE ENERGY PREDICTED BY IDOCK:   -4.32 KCAL/MOL
REMARK 922        TOTAL FREE ENERGY PREDICTED BY IDOCK:   -9.00 KCAL/MOL
REMARK 923 INTER-LIGAND FREE ENERGY PREDICTED BY IDOCK:   -6.80 KCAL/MOL
REMARK 924 INTRA-LIGAND FREE ENERGY PREDICTED BY IDOCK:   -2.20 KCAL/MOL
REMARK 927      BINDING AFFINITY PREDICTED BY RF-SCORE:    0.00 PKD
ROOT
HETATM    1  C   UNL     1     -10.319   8.215  67.788  1.00  0.00    -0.295 C  
HETATM    2  C   UNL     1     -10.214   8.994  66.488  1.00  0.00    -0.318 C  
ENDROOT
BRANCH   2   3
HETATM    3  C   UNL     1      -8.970   9.879  66.475  1.00  0.00    -0.166 C  
BRANCH   3   4
HETATM    4  C   UNL     1      -9.027  10.892  65.335  1.00  0.00    -0.209 C  
BRANCH   4   5
HETATM    5  C   UNL     1     -10.395  10.870  64.658  1.00  0.00    -0.407 C  
BRANCH   5   6
HETATM    6  C   UNL     1     -10.443  11.854  63.494  1.00  0.00    -0.505 C  
BRANCH   6   7
HETATM    7  C   UNL     1     -11.805  12.536  63.419  1.00  0.00    -0.587 C  
BRANCH   7   8
HETATM    8  C   UNL     1     -12.472  12.565  64.789  1.00  0.00    -0.532 C  
BRANCH   8   9
HETATM    9  C   UNL     1     -12.521  13.988  65.336  1.00  0.00    -0.520 C  
BRANCH   9  10
HETATM   10  C   UNL     1     -12.162  14.009  66.817  1.00  0.00    -0.439 C  
BRANCH  10  11
HETATM   11  C   UNL     1     -10.659  13.845  67.019  1.00  0.00    -0.279 C  
BRANCH  11  12
HETATM   12  C   UNL     1     -10.371  12.896  68.178  1.00  0.00    -0.243 C  
BRANCH  12  13
HETATM   13  C   UNL     1     -11.601  12.063  68.529  1.00  0.00    -0.363 C  
BRANCH  13  14
HETATM   14  C   UNL     1     -11.317  11.160  69.727  1.00  0.00    -0.354 C  
BRANCH  14  15
HETATM   15  C   UNL     1     -12.519  11.088  70.664  1.00  0.00    -0.465 C  
HETATM   16  C   UNL     1     -12.469   9.860  71.542  1.00  0.00    -0.411 C  
HETATM   17  O   UNL     1     -13.532   9.787  72.379  1.00  0.00    -0.413 OA 
HETATM   18  O   UNL     1     -11.592   9.012  71.527  1.00  0.00    -0.292 OA 
ENDBRANCH  14  15
ENDBRANCH  13  14
ENDBRANCH  12  13
ENDBRANCH  11  12
ENDBRANCH  10  11
ENDBRANCH   9  10
ENDBRANCH   8   9
ENDBRANCH   7   8
ENDBRANCH   6   7
ENDBRANCH   5   6
ENDBRANCH   4   5
ENDBRANCH   3   4
ENDBRANCH   2   3
TORSDOF 13
ENDMDL
MODEL       20
REMARK 921   NORMALIZED FREE ENERGY PREDICTED BY IDOCK:   -4.31 KCAL/MOL
REMARK 922        TOTAL FREE ENERGY PREDICTED BY IDOCK:   -8.99 KCAL/MOL
REMARK 923 INTER-LIGAND FREE ENERGY PREDICTED BY IDOCK:   -7.51 KCAL/MOL
REMARK 924 INTRA-LIGAND FREE ENERGY PREDICTED BY IDOCK:   -1.47 KCAL/MOL
REMARK 927      BINDING AFFINITY PREDICTED BY RF-SCORE:    0.00 PKD
ROOT
HETATM    1  C   UNL     1      -9.850  19.723  67.460  1.00  0.00    -0.516 C  
HETATM    2  C   UNL     1     -10.632  18.428  67.320  1.00  0.00    -0.435 C  
ENDROOT
BRANCH   2   3
HETATM    3  C   UNL     1     -10.448  17.821  65.931  1.00  0.00    -0.251 C  
BRANCH   3   4
HETATM    4  C   UNL     1     -10.374  16.299  66.001  1.00  0.00    -0.363 C  
BRANCH   4   5
HETATM    5  C   UNL     1     -10.914  15.670  64.720  1.00  0.00    -0.418 C  
BRANCH   5   6
HETATM    6  C   UNL     1     -12.010  14.656  65.030  1.00  0.00    -0.364 C  
BRANCH   6   7
HETATM    7  C   UNL     1     -11.666  13.292  64.441  1.00  0.00    -0.433 C  
BRANCH   7   8
HETATM    8  C   UNL     1     -11.595  12.232  65.534  1.00  0.00    -0.422 C  
BRANCH   8   9
HETATM    9  C   UNL     1     -10.285  12.341  66.307  1.00  0.00    -0.251 C  
BRANCH   9  10
HETATM   10  C   UNL     1     -10.542  12.332  67.809  1.00  0.00    -0.241 C  
BRANCH  10  11
HETATM   11  C   UNL     1     -10.447  13.740  68.389  1.00  0.00    -0.256 C  
BRANCH  11  12
HETATM   12  C   UNL     1     -11.837  14.293  68.690  1.00  0.00    -0.379 C  
BRANCH  12  13
HETATM   13  C   UNL     1     -11.758  15.538  69.569  1.00  0.00    -0.380 C  
BRANCH  13  14
HETATM   14  C   UNL     1     -12.868  15.528  70.617  1.00  0.00    -0.466 C  
BRANCH  14  15
HETATM   15  C   UNL     1     -12.330  15.894  71.997  1.00  0.00    -0.550 C  
HETATM   16  C   UNL     1     -12.946  15.041  73.081  1.00  0.00    -0.522 C  
HETATM   17  O   UNL     1     -12.474  15.357  74.310  1.00  0.00    -0.609 OA 
HETATM   18  O   UNL     1     -13.775  14.163  72.907  1.00  0.00    -0.658 OA 
ENDBRANCH  14  15
ENDBRANCH  13  14
ENDBRANCH  12  13
ENDBRANCH  11  12
ENDBRANCH  10  11
ENDBRANCH   9  10
ENDBRANCH   8   9
ENDBRANCH   7   8
ENDBRANCH   6   7
ENDBRANCH   5   6
ENDBRANCH   4   5
ENDBRANCH   3   4
ENDBRANCH   2   3
TORSDOF 13
ENDMDL
MODEL       21
REMARK 921   NORMALIZED FREE ENERGY PREDICTED BY IDOCK:   -4.27 KCAL/MOL
REMARK 922        TOTAL FREE ENERGY PREDICTED BY IDOCK:   -8.92 KCAL/MOL
REMARK 923 INTER-LIGAND FREE ENERGY PREDICTED BY IDOCK:   -7.65 KCAL/MOL
REMARK 924 INTRA-LIGAND FREE ENERGY PREDICTED BY IDOCK:   -1.26 KCAL/MOL
REMARK 927      BINDING AFFINITY PREDICTED BY RF-SCORE:    0.00 PKD
ROOT
HETATM    1  C   UNL     1     -10.520  11.975  63.542  1.00  0.00    -0.505 C  
HETATM    2  C   UNL     1     -11.919  12.563  63.496  1.00  0.00    -0.629 C  
ENDROOT
BRANCH   2   3
HETATM    3  C   UNL     1     -11.994  13.868  64.285  1.00  0.00    -0.477 C  
BRANCH   3   4
HETATM    4  C   UNL     1     -12.709  13.665  65.618  1.00  0.00    -0.505 C  
BRANCH   4   5
HETATM    5  C   UNL     1     -11.717  13.703  66.777  1.00  0.00    -0.426 C  
BRANCH   5   6
HETATM    6  C   UNL     1     -11.757  12.401  67.571  1.00  0.00    -0.425 C  
BRANCH   6   7
HETATM    7  C   UNL     1     -11.028  12.558  68.902  1.00  0.00    -0.272 C  
BRANCH   7   8
HETATM    8  C   UNL     1     -12.017  12.583  70.062  1.00  0.00    -0.372 C  
BRANCH   8   9
HETATM    9  C   UNL     1     -12.625  13.972  70.224  1.00  0.00    -0.354 C  
BRANCH   9  10
HETATM   10  C   UNL     1     -11.936  14.735  71.349  1.00  0.00    -0.403 C  
BRANCH  10  11
HETATM   11  C   UNL     1     -11.435  16.092  70.863  1.00  0.00    -0.451 C  
BRANCH  11  12
HETATM   12  C   UNL     1     -10.428  15.920  69.731  1.00  0.00    -0.311 C  
BRANCH  12  13
HETATM   13  C   UNL     1     -10.845  16.711  68.494  1.00  0.00    -0.356 C  
BRANCH  13  14
HETATM   14  C   UNL     1     -10.061  18.017  68.400  1.00  0.00    -0.392 C  
BRANCH  14  15
HETATM   15  C   UNL     1     -10.785  19.036  67.525  1.00  0.00    -0.532 C  
HETATM   16  C   UNL     1     -10.167  19.130  66.149  1.00  0.00    -0.463 C  
HETATM   17  O   UNL     1     -10.804  20.031  65.364  1.00  0.00    -0.363 OA 
HETATM   18  O   UNL     1      -9.207  18.487  65.757  1.00  0.00    -0.418 OA 
ENDBRANCH  14  15
ENDBRANCH  13  14
ENDBRANCH  12  13
ENDBRANCH  11  12
ENDBRANCH  10  11
ENDBRANCH   9  10
ENDBRANCH   8   9
ENDBRANCH   7   8
ENDBRANCH   6   7
ENDBRANCH   5   6
ENDBRANCH   4   5
ENDBRANCH   3   4
ENDBRANCH   2   3
TORSDOF 13
ENDMDL
MODEL       22
REMARK 921   NORMALIZED FREE ENERGY PREDICTED BY IDOCK:   -4.26 KCAL/MOL
REMARK 922        TOTAL FREE ENERGY PREDICTED BY IDOCK:   -8.91 KCAL/MOL
REMARK 923 INTER-LIGAND FREE ENERGY PREDICTED BY IDOCK:   -7.59 KCAL/MOL
REMARK 924 INTRA-LIGAND FREE ENERGY PREDICTED BY IDOCK:   -1.33 KCAL/MOL
REMARK 927      BINDING AFFINITY PREDICTED BY RF-SCORE:    0.00 PKD
ROOT
HETATM    1  C   UNL     1     -13.476   9.425  72.176  1.00  0.00    -0.543 C  
HETATM    2  C   UNL     1     -12.394  10.099  71.350  1.00  0.00    -0.515 C  
ENDROOT
BRANCH   2   3
HETATM    3  C   UNL     1     -12.730  11.566  71.094  1.00  0.00    -0.458 C  
BRANCH   3   4
HETATM    4  C   UNL     1     -13.422  12.191  72.302  1.00  0.00    -0.298 C  
BRANCH   4   5
HETATM    5  C   UNL     1     -13.795  13.644  72.023  1.00  0.00    -0.565 C  
BRANCH   5   6
HETATM    6  C   UNL     1     -12.939  14.595  72.853  1.00  0.00    -0.592 C  
BRANCH   6   7
HETATM    7  C   UNL     1     -11.781  15.142  72.024  1.00  0.00    -0.504 C  
BRANCH   7   8
HETATM    8  C   UNL     1     -12.237  15.474  70.608  1.00  0.00    -0.445 C  
BRANCH   8   9
HETATM    9  C   UNL     1     -11.258  14.917  69.580  1.00  0.00    -0.300 C  
BRANCH   9  10
HETATM   10  C   UNL     1     -11.947  13.906  68.671  1.00  0.00    -0.401 C  
BRANCH  10  11
HETATM   11  C   UNL     1     -11.519  14.096  67.219  1.00  0.00    -0.371 C  
BRANCH  11  12
HETATM   12  C   UNL     1     -10.380  15.105  67.121  1.00  0.00    -0.263 C  
BRANCH  12  13
HETATM   13  C   UNL     1     -10.354  15.779  65.752  1.00  0.00    -0.390 C  
BRANCH  13  14
HETATM   14  C   UNL     1     -10.418  17.298  65.898  1.00  0.00    -0.267 C  
BRANCH  14  15
HETATM   15  C   UNL     1     -10.292  17.720  67.359  1.00  0.00    -0.370 C  
HETATM   16  C   UNL     1     -10.435  19.215  67.522  1.00  0.00    -0.455 C  
HETATM   17  O   UNL     1     -10.326  19.600  68.816  1.00  0.00    -0.400 OA 
HETATM   18  O   UNL     1     -10.625  20.013  66.618  1.00  0.00    -0.450 OA 
ENDBRANCH  14  15
ENDBRANCH  13  14
ENDBRANCH  12  13
ENDBRANCH  11  12
ENDBRANCH  10  11
ENDBRANCH   9  10
ENDBRANCH   8   9
ENDBRANCH   7   8
ENDBRANCH   6   7
ENDBRANCH   5   6
ENDBRANCH   4   5
ENDBRANCH   3   4
ENDBRANCH   2   3
TORSDOF 13
ENDMDL
MODEL       23
REMARK 921   NORMALIZED FREE ENERGY PREDICTED BY IDOCK:   -4.25 KCAL/MOL
REMARK 922        TOTAL FREE ENERGY PREDICTED BY IDOCK:   -8.90 KCAL/MOL
REMARK 923 INTER-LIGAND FREE ENERGY PREDICTED BY IDOCK:   -7.04 KCAL/MOL
REMARK 924 INTRA-LIGAND FREE ENERGY PREDICTED BY IDOCK:   -1.85 KCAL/MOL
REMARK 927      BINDING AFFINITY PREDICTED BY RF-SCORE:    0.00 PKD
ROOT
HETATM    1  C   UNL     1     -12.951  10.786  71.437  1.00  0.00    -0.535 C  
HETATM    2  C   UNL     1     -11.749   9.939  71.056  1.00  0.00    -0.466 C  
ENDROOT
BRANCH   2   3
HETATM    3  C   UNL     1     -10.919  10.618  69.970  1.00  0.00    -0.325 C  
BRANCH   3   4
HETATM    4  C   UNL     1     -11.815  11.296  68.936  1.00  0.00    -0.413 C  
BRANCH   4   5
HETATM    5  C   UNL     1     -11.281  11.070  67.524  1.00  0.00    -0.372 C  
BRANCH   5   6
HETATM    6  C   UNL     1     -10.639   9.692  67.398  1.00  0.00    -0.333 C  
BRANCH   6   7
HETATM    7  C   UNL     1      -9.985   9.524  66.031  1.00  0.00    -0.348 C  
BRANCH   7   8
HETATM    8  C   UNL     1      -9.619  10.879  65.435  1.00  0.00    -0.271 C  
BRANCH   8   9
HETATM    9  C   UNL     1      -9.852  10.887  63.928  1.00  0.00    -0.385 C  
BRANCH   9  10
HETATM   10  C   UNL     1     -10.724  12.069  63.523  1.00  0.00    -0.513 C  
BRANCH  10  11
HETATM   11  C   UNL     1     -12.176  11.845  63.936  1.00  0.00    -0.497 C  
BRANCH  11  12
HETATM   12  C   UNL     1     -12.745  13.095  64.601  1.00  0.00    -0.326 C  
BRANCH  12  13
HETATM   13  C   UNL     1     -11.723  14.228  64.615  1.00  0.00    -0.439 C  
BRANCH  13  14
HETATM   14  C   UNL     1     -11.460  14.700  66.043  1.00  0.00    -0.332 C  
BRANCH  14  15
HETATM   15  C   UNL     1      -9.964  14.794  66.330  1.00  0.00    -0.308 C  
HETATM   16  C   UNL     1      -9.435  16.187  66.083  1.00  0.00    -0.327 C  
HETATM   17  O   UNL     1      -8.109  16.281  66.336  1.00  0.00    -0.291 OA 
HETATM   18  O   UNL     1     -10.096  17.139  65.700  1.00  0.00    -0.561 OA 
ENDBRANCH  14  15
ENDBRANCH  13  14
ENDBRANCH  12  13
ENDBRANCH  11  12
ENDBRANCH  10  11
ENDBRANCH   9  10
ENDBRANCH   8   9
ENDBRANCH   7   8
ENDBRANCH   6   7
ENDBRANCH   5   6
ENDBRANCH   4   5
ENDBRANCH   3   4
ENDBRANCH   2   3
TORSDOF 13
ENDMDL
MODEL       24
REMARK 921   NORMALIZED FREE ENERGY PREDICTED BY IDOCK:   -4.25 KCAL/MOL
REMARK 922        TOTAL FREE ENERGY PREDICTED BY IDOCK:   -8.89 KCAL/MOL
REMARK 923 INTER-LIGAND FREE ENERGY PREDICTED BY IDOCK:   -7.54 KCAL/MOL
REMARK 924 INTRA-LIGAND FREE ENERGY PREDICTED BY IDOCK:   -1.36 KCAL/MOL
REMARK 927      BINDING AFFINITY PREDICTED BY RF-SCORE:    0.00 PKD
ROOT
HETATM    1  C   UNL     1     -11.903   6.862  70.738  1.00  0.00    -0.427 C  
HETATM    2  C   UNL     1     -12.275   7.846  71.834  1.00  0.00    -0.351 C  
ENDROOT
BRANCH   2   3
HETATM    3  C   UNL     1     -11.467   9.136  71.714  1.00  0.00    -0.452 C  
BRANCH   3   4
HETATM    4  C   UNL     1     -12.340  10.290  71.229  1.00  0.00    -0.506 C  
BRANCH   4   5
HETATM    5  C   UNL     1     -12.001  10.658  69.787  1.00  0.00    -0.363 C  
BRANCH   5   6
HETATM    6  C   UNL     1     -10.543  10.341  69.472  1.00  0.00    -0.270 C  
BRANCH   6   7
HETATM    7  C   UNL     1     -10.439   9.447  68.240  1.00  0.00    -0.260 C  
BRANCH   7   8
HETATM    8  C   UNL     1     -10.550  10.271  66.962  1.00  0.00    -0.302 C  
BRANCH   8   9
HETATM    9  C   UNL     1      -9.907   9.538  65.789  1.00  0.00    -0.363 C  
BRANCH   9  10
HETATM   10  C   UNL     1      -9.054  10.490  64.960  1.00  0.00    -0.231 C  
BRANCH  10  11
HETATM   11  C   UNL     1      -9.662  10.707  63.577  1.00  0.00    -0.389 C  
BRANCH  11  12
HETATM   12  C   UNL     1     -10.334  12.073  63.493  1.00  0.00    -0.492 C  
BRANCH  12  13
HETATM   13  C   UNL     1     -11.841  11.962  63.702  1.00  0.00    -0.573 C  
BRANCH  13  14
HETATM   14  C   UNL     1     -12.288  12.831  64.875  1.00  0.00    -0.551 C  
BRANCH  14  15
HETATM   15  C   UNL     1     -11.271  13.930  65.170  1.00  0.00    -0.326 C  
HETATM   16  C   UNL     1     -11.675  15.246  64.547  1.00  0.00    -0.305 C  
HETATM   17  O   UNL     1     -10.779  16.228  64.805  1.00  0.00    -0.680 OA 
HETATM   18  O   UNL     1     -12.682  15.439  63.885  1.00  0.00    -0.695 OA 
ENDBRANCH  14  15
ENDBRANCH  13  14
ENDBRANCH  12  13
ENDBRANCH  11  12
ENDBRANCH  10  11
ENDBRANCH   9  10
ENDBRANCH   8   9
ENDBRANCH   7   8
ENDBRANCH   6   7
ENDBRANCH   5   6
ENDBRANCH   4   5
ENDBRANCH   3   4
ENDBRANCH   2   3
TORSDOF 13
ENDMDL
MODEL       25
REMARK 921   NORMALIZED FREE ENERGY PREDICTED BY IDOCK:   -4.25 KCAL/MOL
REMARK 922        TOTAL FREE ENERGY PREDICTED BY IDOCK:   -8.88 KCAL/MOL
REMARK 923 INTER-LIGAND FREE ENERGY PREDICTED BY IDOCK:   -7.71 KCAL/MOL
REMARK 924 INTRA-LIGAND FREE ENERGY PREDICTED BY IDOCK:   -1.17 KCAL/MOL
REMARK 927      BINDING AFFINITY PREDICTED BY RF-SCORE:    0.00 PKD
ROOT
HETATM    1  C   UNL     1      -9.729  10.154  65.386  1.00  0.00    -0.355 C  
HETATM    2  C   UNL     1      -9.688  11.435  64.570  1.00  0.00    -0.268 C  
ENDROOT
BRANCH   2   3
HETATM    3  C   UNL     1     -10.779  11.442  63.502  1.00  0.00    -0.453 C  
BRANCH   3   4
HETATM    4  C   UNL     1     -11.621  12.712  63.583  1.00  0.00    -0.575 C  
BRANCH   4   5
HETATM    5  C   UNL     1     -12.469  12.720  64.853  1.00  0.00    -0.563 C  
BRANCH   5   6
HETATM    6  C   UNL     1     -12.342  14.052  65.584  1.00  0.00    -0.502 C  
BRANCH   6   7
HETATM    7  C   UNL     1     -11.363  13.937  66.749  1.00  0.00    -0.347 C  
BRANCH   7   8
HETATM    8  C   UNL     1     -12.012  13.232  67.934  1.00  0.00    -0.349 C  
BRANCH   8   9
HETATM    9  C   UNL     1     -11.347  11.884  68.191  1.00  0.00    -0.350 C  
BRANCH   9  10
HETATM   10  C   UNL     1     -11.140  11.660  69.684  1.00  0.00    -0.177 C  
BRANCH  10  11
HETATM   11  C   UNL     1     -12.227  10.756  70.258  1.00  0.00    -0.431 C  
BRANCH  11  12
HETATM   12  C   UNL     1     -13.013  11.484  71.344  1.00  0.00    -0.450 C  
BRANCH  12  13
HETATM   13  C   UNL     1     -12.680  12.973  71.365  1.00  0.00    -0.375 C  
BRANCH  13  14
HETATM   14  C   UNL     1     -13.491  13.692  72.441  1.00  0.00    -0.685 C  
BRANCH  14  15
HETATM   15  C   UNL     1     -12.605  14.604  73.284  1.00  0.00    -0.505 C  
HETATM   16  C   UNL     1     -13.264  15.940  73.542  1.00  0.00    -0.504 C  
HETATM   17  O   UNL     1     -12.487  16.756  74.291  1.00  0.00    -0.645 OA 
HETATM   18  O   UNL     1     -14.365  16.277  73.137  1.00  0.00    -0.180 OA 
ENDBRANCH  14  15
ENDBRANCH  13  14
ENDBRANCH  12  13
ENDBRANCH  11  12
ENDBRANCH  10  11
ENDBRANCH   9  10
ENDBRANCH   8   9
ENDBRANCH   7   8
ENDBRANCH   6   7
ENDBRANCH   5   6
ENDBRANCH   4   5
ENDBRANCH   3   4
ENDBRANCH   2   3
TORSDOF 13
ENDMDL
MODEL       26
REMARK 921   NORMALIZED FREE ENERGY PREDICTED BY IDOCK:   -4.25 KCAL/MOL
REMARK 922        TOTAL FREE ENERGY PREDICTED BY IDOCK:   -8.88 KCAL/MOL
REMARK 923 INTER-LIGAND FREE ENERGY PREDICTED BY IDOCK:   -7.50 KCAL/MOL
REMARK 924 INTRA-LIGAND FREE ENERGY PREDICTED BY IDOCK:   -1.38 KCAL/MOL
REMARK 927      BINDING AFFINITY PREDICTED BY RF-SCORE:    0.00 PKD
ROOT
HETATM    1  C   UNL     1     -12.678  15.422  73.839  1.00  0.00    -0.698 C  
HETATM    2  C   UNL     1     -13.606  15.521  72.641  1.00  0.00    -0.657 C  
ENDROOT
BRANCH   2   3
HETATM    3  C   UNL     1     -14.121  14.145  72.227  1.00  0.00    -0.630 C  
BRANCH   3   4
HETATM    4  C   UNL     1     -12.996  13.283  71.662  1.00  0.00    -0.441 C  
BRANCH   4   5
HETATM    5  C   UNL     1     -13.233  11.808  71.973  1.00  0.00    -0.460 C  
BRANCH   5   6
HETATM    6  C   UNL     1     -12.644  10.919  70.883  1.00  0.00    -0.494 C  
BRANCH   6   7
HETATM    7  C   UNL     1     -12.007   9.673  71.489  1.00  0.00    -0.485 C  
BRANCH   7   8
HETATM    8  C   UNL     1     -10.903   9.135  70.586  1.00  0.00    -0.321 C  
BRANCH   8   9
HETATM    9  C   UNL     1     -10.320  10.249  69.724  1.00  0.00    -0.287 C  
BRANCH   9  10
HETATM   10  C   UNL     1      -9.894   9.712  68.362  1.00  0.00    -0.170 C  
BRANCH  10  11
HETATM   11  C   UNL     1     -10.769  10.284  67.251  1.00  0.00    -0.323 C  
BRANCH  11  12
HETATM   12  C   UNL     1     -11.322  11.648  67.649  1.00  0.00    -0.362 C  
BRANCH  12  13
HETATM   13  C   UNL     1     -11.596  12.514  66.422  1.00  0.00    -0.449 C  
BRANCH  13  14
HETATM   14  C   UNL     1     -12.099  13.894  66.838  1.00  0.00    -0.467 C  
BRANCH  14  15
HETATM   15  C   UNL     1     -11.825  14.163  68.315  1.00  0.00    -0.391 C  
HETATM   16  C   UNL     1     -11.082  15.463  68.517  1.00  0.00    -0.295 C  
HETATM   17  O   UNL     1     -10.835  15.711  69.825  1.00  0.00    -0.256 OA 
HETATM   18  O   UNL     1     -10.730  16.224  67.630  1.00  0.00    -0.313 OA 
ENDBRANCH  14  15
ENDBRANCH  13  14
ENDBRANCH  12  13
ENDBRANCH  11  12
ENDBRANCH  10  11
ENDBRANCH   9  10
ENDBRANCH   8   9
ENDBRANCH   7   8
ENDBRANCH   6   7
ENDBRANCH   5   6
ENDBRANCH   4   5
ENDBRANCH   3   4
ENDBRANCH   2   3
TORSDOF 13
ENDMDL
MODEL       27
REMARK 921   NORMALIZED FREE ENERGY PREDICTED BY IDOCK:   -4.25 KCAL/MOL
REMARK 922        TOTAL FREE ENERGY PREDICTED BY IDOCK:   -8.88 KCAL/MOL
REMARK 923 INTER-LIGAND FREE ENERGY PREDICTED BY IDOCK:   -7.34 KCAL/MOL
REMARK 924 INTRA-LIGAND FREE ENERGY PREDICTED BY IDOCK:   -1.54 KCAL/MOL
REMARK 927      BINDING AFFINITY PREDICTED BY RF-SCORE:    0.00 PKD
ROOT
HETATM    1  C   UNL     1     -10.703  10.837  69.275  1.00  0.00    -0.268 C  
HETATM    2  C   UNL     1     -10.067  11.415  68.023  1.00  0.00    -0.193 C  
ENDROOT
BRANCH   2   3
HETATM    3  C   UNL     1     -10.504  10.647  66.778  1.00  0.00    -0.303 C  
BRANCH   3   4
HETATM    4  C   UNL     1      -9.597  10.961  65.591  1.00  0.00    -0.268 C  
BRANCH   4   5
HETATM    5  C   UNL     1     -10.280  10.598  64.275  1.00  0.00    -0.391 C  
BRANCH   5   6
HETATM    6  C   UNL     1     -10.601  11.849  63.464  1.00  0.00    -0.507 C  
BRANCH   6   7
HETATM    7  C   UNL     1     -11.989  12.376  63.812  1.00  0.00    -0.600 C  
BRANCH   7   8
HETATM    8  C   UNL     1     -11.934  13.857  64.165  1.00  0.00    -0.464 C  
BRANCH   8   9
HETATM    9  C   UNL     1     -11.893  14.050  65.677  1.00  0.00    -0.384 C  
BRANCH   9  10
HETATM   10  C   UNL     1     -10.537  14.592  66.116  1.00  0.00    -0.308 C  
BRANCH  10  11
HETATM   11  C   UNL     1     -10.692  15.611  67.240  1.00  0.00    -0.305 C  
BRANCH  11  12
HETATM   12  C   UNL     1     -10.767  14.913  68.594  1.00  0.00    -0.250 C  
BRANCH  12  13
HETATM   13  C   UNL     1     -11.933  15.440  69.425  1.00  0.00    -0.351 C  
BRANCH  13  14
HETATM   14  C   UNL     1     -11.941  14.799  70.811  1.00  0.00    -0.371 C  
BRANCH  14  15
HETATM   15  C   UNL     1     -12.010  15.855  71.910  1.00  0.00    -0.588 C  
HETATM   16  C   UNL     1     -12.987  15.468  72.995  1.00  0.00    -0.499 C  
HETATM   17  O   UNL     1     -13.055  16.398  73.976  1.00  0.00    -0.673 OA 
HETATM   18  O   UNL     1     -13.655  14.447  73.018  1.00  0.00    -0.619 OA 
ENDBRANCH  14  15
ENDBRANCH  13  14
ENDBRANCH  12  13
ENDBRANCH  11  12
ENDBRANCH  10  11
ENDBRANCH   9  10
ENDBRANCH   8   9
ENDBRANCH   7   8
ENDBRANCH   6   7
ENDBRANCH   5   6
ENDBRANCH   4   5
ENDBRANCH   3   4
ENDBRANCH   2   3
TORSDOF 13
ENDMDL
MODEL       28
REMARK 921   NORMALIZED FREE ENERGY PREDICTED BY IDOCK:   -4.24 KCAL/MOL
REMARK 922        TOTAL FREE ENERGY PREDICTED BY IDOCK:   -8.88 KCAL/MOL
REMARK 923 INTER-LIGAND FREE ENERGY PREDICTED BY IDOCK:   -7.02 KCAL/MOL
REMARK 924 INTRA-LIGAND FREE ENERGY PREDICTED BY IDOCK:   -1.85 KCAL/MOL
REMARK 927      BINDING AFFINITY PREDICTED BY RF-SCORE:    0.00 PKD
ROOT
HETATM    1  C   UNL     1     -10.590  19.412  65.779  1.00  0.00    -0.490 C  
HETATM    2  C   UNL     1      -9.697  20.176  66.741  1.00  0.00    -0.577 C  
ENDROOT
BRANCH   2   3
HETATM    3  C   UNL     1     -10.037  19.843  68.191  1.00  0.00    -0.569 C  
BRANCH   3   4
HETATM    4  C   UNL     1      -9.355  18.551  68.634  1.00  0.00    -0.352 C  
BRANCH   4   5
HETATM    5  C   UNL     1     -10.388  17.508  69.051  1.00  0.00    -0.303 C  
BRANCH   5   6
HETATM    6  C   UNL     1     -10.608  16.485  67.942  1.00  0.00    -0.329 C  
BRANCH   6   7
HETATM    7  C   UNL     1      -9.275  15.934  67.444  1.00  0.00    -0.207 C  
BRANCH   7   8
HETATM    8  C   UNL     1      -9.292  15.763  65.929  1.00  0.00    -0.356 C  
BRANCH   8   9
HETATM    9  C   UNL     1     -10.722  15.633  65.416  1.00  0.00    -0.424 C  
BRANCH   9  10
HETATM   10  C   UNL     1     -10.901  14.333  64.640  1.00  0.00    -0.384 C  
BRANCH  10  11
HETATM   11  C   UNL     1     -12.270  13.717  64.915  1.00  0.00    -0.447 C  
BRANCH  11  12
HETATM   12  C   UNL     1     -12.509  13.583  66.415  1.00  0.00    -0.349 C  
BRANCH  12  13
HETATM   13  C   UNL     1     -11.738  12.401  66.995  1.00  0.00    -0.423 C  
BRANCH  13  14
HETATM   14  C   UNL     1     -11.565  12.557  68.504  1.00  0.00    -0.364 C  
BRANCH  14  15
HETATM   15  C   UNL     1     -12.032  13.931  68.975  1.00  0.00    -0.402 C  
HETATM   16  C   UNL     1     -12.571  13.885  70.386  1.00  0.00    -0.282 C  
HETATM   17  O   UNL     1     -12.986  15.100  70.814  1.00  0.00    -0.393 OA 
HETATM   18  O   UNL     1     -12.640  12.888  71.086  1.00  0.00    -0.370 OA 
ENDBRANCH  14  15
ENDBRANCH  13  14
ENDBRANCH  12  13
ENDBRANCH  11  12
ENDBRANCH  10  11
ENDBRANCH   9  10
ENDBRANCH   8   9
ENDBRANCH   7   8
ENDBRANCH   6   7
ENDBRANCH   5   6
ENDBRANCH   4   5
ENDBRANCH   3   4
ENDBRANCH   2   3
TORSDOF 13
ENDMDL
MODEL       29
REMARK 921   NORMALIZED FREE ENERGY PREDICTED BY IDOCK:   -4.24 KCAL/MOL
REMARK 922        TOTAL FREE ENERGY PREDICTED BY IDOCK:   -8.87 KCAL/MOL
REMARK 923 INTER-LIGAND FREE ENERGY PREDICTED BY IDOCK:   -7.13 KCAL/MOL
REMARK 924 INTRA-LIGAND FREE ENERGY PREDICTED BY IDOCK:   -1.75 KCAL/MOL
REMARK 927      BINDING AFFINITY PREDICTED BY RF-SCORE:    0.00 PKD
ROOT
HETATM    1  C   UNL     1     -13.707  13.734  72.091  1.00  0.00    -0.634 C  
HETATM    2  C   UNL     1     -14.008  15.223  72.078  1.00  0.00    -0.645 C  
ENDROOT
BRANCH   2   3
HETATM    3  C   UNL     1     -12.730  16.044  72.234  1.00  0.00    -0.477 C  
BRANCH   3   4
HETATM    4  C   UNL     1     -11.533  15.321  71.622  1.00  0.00    -0.471 C  
BRANCH   4   5
HETATM    5  C   UNL     1     -10.962  16.115  70.450  1.00  0.00    -0.320 C  
BRANCH   5   6
HETATM    6  C   UNL     1     -11.778  15.882  69.184  1.00  0.00    -0.369 C  
BRANCH   6   7
HETATM    7  C   UNL     1     -11.633  14.440  68.706  1.00  0.00    -0.348 C  
BRANCH   7   8
HETATM    8  C   UNL     1     -12.023  14.314  67.238  1.00  0.00    -0.439 C  
BRANCH   8   9
HETATM    9  C   UNL     1     -10.929  13.604  66.447  1.00  0.00    -0.297 C  
BRANCH   9  10
HETATM   10  C   UNL     1      -9.574  14.259  66.693  1.00  0.00    -0.302 C  
BRANCH  10  11
HETATM   11  C   UNL     1      -9.429  15.538  65.875  1.00  0.00    -0.377 C  
BRANCH  11  12
HETATM   12  C   UNL     1      -9.354  16.756  66.789  1.00  0.00    -0.263 C  
BRANCH  12  13
HETATM   13  C   UNL     1     -10.289  17.864  66.313  1.00  0.00    -0.364 C  
BRANCH  13  14
HETATM   14  C   UNL     1     -10.280  19.036  67.293  1.00  0.00    -0.476 C  
BRANCH  14  15
HETATM   15  C   UNL     1      -9.226  18.841  68.379  1.00  0.00    -0.376 C  
HETATM   16  C   UNL     1      -7.976  19.639  68.093  1.00  0.00    -0.318 C  
HETATM   17  O   UNL     1      -7.035  19.475  69.053  1.00  0.00    -0.331 OA 
HETATM   18  O   UNL     1      -7.799  20.357  67.122  1.00  0.00    -0.318 OA 
ENDBRANCH  14  15
ENDBRANCH  13  14
ENDBRANCH  12  13
ENDBRANCH  11  12
ENDBRANCH  10  11
ENDBRANCH   9  10
ENDBRANCH   8   9
ENDBRANCH   7   8
ENDBRANCH   6   7
ENDBRANCH   5   6
ENDBRANCH   4   5
ENDBRANCH   3   4
ENDBRANCH   2   3
TORSDOF 13
ENDMDL
MODEL       30
REMARK 921   NORMALIZED FREE ENERGY PREDICTED BY IDOCK:   -4.24 KCAL/MOL
REMARK 922        TOTAL FREE ENERGY PREDICTED BY IDOCK:   -8.87 KCAL/MOL
REMARK 923 INTER-LIGAND FREE ENERGY PREDICTED BY IDOCK:   -6.52 KCAL/MOL
REMARK 924 INTRA-LIGAND FREE ENERGY PREDICTED BY IDOCK:   -2.35 KCAL/MOL
REMARK 927      BINDING AFFINITY PREDICTED BY RF-SCORE:    0.00 PKD
ROOT
HETATM    1  C   UNL     1      -9.220  15.524  66.507  1.00  0.00    -0.324 C  
HETATM    2  C   UNL     1     -10.532  15.437  65.746  1.00  0.00    -0.371 C  
ENDROOT
BRANCH   2   3
HETATM    3  C   UNL     1     -11.597  14.713  66.566  1.00  0.00    -0.350 C  
BRANCH   3   4
HETATM    4  C   UNL     1     -12.555  13.941  65.663  1.00  0.00    -0.553 C  
BRANCH   4   5
HETATM    5  C   UNL     1     -12.312  14.282  64.195  1.00  0.00    -0.361 C  
BRANCH   5   6
HETATM    6  C   UNL     1     -12.127  13.017  63.365  1.00  0.00    -0.591 C  
BRANCH   6   7
HETATM    7  C   UNL     1     -11.914  11.805  64.268  1.00  0.00    -0.277 C  
BRANCH   7   8
HETATM    8  C   UNL     1     -10.549  11.176  64.017  1.00  0.00    -0.436 C  
BRANCH   8   9
HETATM    9  C   UNL     1      -9.934  10.681  65.322  1.00  0.00    -0.356 C  
BRANCH   9  10
HETATM   10  C   UNL     1      -9.424  11.850  66.156  1.00  0.00    -0.243 C  
BRANCH  10  11
HETATM   11  C   UNL     1      -9.722  11.636  67.637  1.00  0.00    -0.186 C  
BRANCH  11  12
HETATM   12  C   UNL     1     -11.122  11.062  67.827  1.00  0.00    -0.356 C  
BRANCH  12  13
HETATM   13  C   UNL     1     -11.732  11.518  69.150  1.00  0.00    -0.395 C  
BRANCH  13  14
HETATM   14  C   UNL     1     -11.301  12.945  69.479  1.00  0.00    -0.221 C  
BRANCH  14  15
HETATM   15  C   UNL     1     -12.394  13.693  70.238  1.00  0.00    -0.392 C  
HETATM   16  C   UNL     1     -12.098  15.171  70.331  1.00  0.00    -0.328 C  
HETATM   17  O   UNL     1     -13.063  15.844  71.001  1.00  0.00    -0.508 OA 
HETATM   18  O   UNL     1     -11.115  15.728  69.869  1.00  0.00    -0.272 OA 
ENDBRANCH  14  15
ENDBRANCH  13  14
ENDBRANCH  12  13
ENDBRANCH  11  12
ENDBRANCH  10  11
ENDBRANCH   9  10
ENDBRANCH   8   9
ENDBRANCH   7   8
ENDBRANCH   6   7
ENDBRANCH   5   6
ENDBRANCH   4   5
ENDBRANCH   3   4
ENDBRANCH   2   3
TORSDOF 13
ENDMDL
MODEL       31
REMARK 921   NORMALIZED FREE ENERGY PREDICTED BY IDOCK:   -4.24 KCAL/MOL
REMARK 922        TOTAL FREE ENERGY PREDICTED BY IDOCK:   -8.87 KCAL/MOL
REMARK 923 INTER-LIGAND FREE ENERGY PREDICTED BY IDOCK:   -6.76 KCAL/MOL
REMARK 924 INTRA-LIGAND FREE ENERGY PREDICTED BY IDOCK:   -2.10 KCAL/MOL
REMARK 927      BINDING AFFINITY PREDICTED BY RF-SCORE:    0.00 PKD
ROOT
HETATM    1  C   UNL     1     -12.692  14.673  73.214  1.00  0.00    -0.552 C  
HETATM    2  C   UNL     1     -11.864  15.070  72.004  1.00  0.00    -0.462 C  
ENDROOT
BRANCH   2   3
HETATM    3  C   UNL     1     -12.758  15.422  70.817  1.00  0.00    -0.516 C  
BRANCH   3   4
HETATM    4  C   UNL     1     -11.977  15.370  69.507  1.00  0.00    -0.358 C  
BRANCH   4   5
HETATM    5  C   UNL     1     -10.474  15.403  69.769  1.00  0.00    -0.303 C  
BRANCH   5   6
HETATM    6  C   UNL     1      -9.789  16.441  68.886  1.00  0.00    -0.260 C  
BRANCH   6   7
HETATM    7  C   UNL     1     -10.615  16.713  67.633  1.00  0.00    -0.321 C  
BRANCH   7   8
HETATM    8  C   UNL     1      -9.782  16.488  66.376  1.00  0.00    -0.305 C  
BRANCH   8   9
HETATM    9  C   UNL     1     -10.444  15.460  65.466  1.00  0.00    -0.402 C  
BRANCH   9  10
HETATM   10  C   UNL     1     -10.388  14.070  66.090  1.00  0.00    -0.301 C  
BRANCH  10  11
HETATM   11  C   UNL     1     -11.782  13.458  66.189  1.00  0.00    -0.405 C  
BRANCH  11  12
HETATM   12  C   UNL     1     -11.731  12.119  66.917  1.00  0.00    -0.374 C  
BRANCH  12  13
HETATM   13  C   UNL     1     -10.608  12.093  67.950  1.00  0.00    -0.230 C  
BRANCH  13  14
HETATM   14  C   UNL     1     -10.948  11.139  69.093  1.00  0.00    -0.295 C  
BRANCH  14  15
HETATM   15  C   UNL     1     -11.987  11.747  70.031  1.00  0.00    -0.421 C  
HETATM   16  C   UNL     1     -12.307  10.823  71.183  1.00  0.00    -0.393 C  
HETATM   17  O   UNL     1     -13.227  11.355  72.022  1.00  0.00    -0.503 OA 
HETATM   18  O   UNL     1     -11.816   9.722  71.367  1.00  0.00    -0.361 OA 
ENDBRANCH  14  15
ENDBRANCH  13  14
ENDBRANCH  12  13
ENDBRANCH  11  12
ENDBRANCH  10  11
ENDBRANCH   9  10
ENDBRANCH   8   9
ENDBRANCH   7   8
ENDBRANCH   6   7
ENDBRANCH   5   6
ENDBRANCH   4   5
ENDBRANCH   3   4
ENDBRANCH   2   3
TORSDOF 13
ENDMDL
MODEL       32
REMARK 921   NORMALIZED FREE ENERGY PREDICTED BY IDOCK:   -4.23 KCAL/MOL
REMARK 922        TOTAL FREE ENERGY PREDICTED BY IDOCK:   -8.85 KCAL/MOL
REMARK 923 INTER-LIGAND FREE ENERGY PREDICTED BY IDOCK:   -6.77 KCAL/MOL
REMARK 924 INTRA-LIGAND FREE ENERGY PREDICTED BY IDOCK:   -2.08 KCAL/MOL
REMARK 927      BINDING AFFINITY PREDICTED BY RF-SCORE:    0.00 PKD
ROOT
HETATM    1  C   UNL     1      -7.144  16.980  66.529  1.00  0.00    -0.307 C  
HETATM    2  C   UNL     1      -6.607  17.560  67.826  1.00  0.00    -0.171 C  
ENDROOT
BRANCH   2   3
HETATM    3  C   UNL     1      -6.071  18.974  67.616  1.00  0.00    -0.214 C  
BRANCH   3   4
HETATM    4  C   UNL     1      -7.013  20.014  68.215  1.00  0.00    -0.330 C  
BRANCH   4   5
HETATM    5  C   UNL     1      -7.953  20.572  67.149  1.00  0.00    -0.361 C  
BRANCH   5   6
HETATM    6  C   UNL     1      -9.410  20.320  67.521  1.00  0.00    -0.513 C  
BRANCH   6   7
HETATM    7  C   UNL     1     -10.098  19.465  66.462  1.00  0.00    -0.516 C  
BRANCH   7   8
HETATM    8  C   UNL     1     -10.581  18.148  67.058  1.00  0.00    -0.346 C  
BRANCH   8   9
HETATM    9  C   UNL     1     -10.257  18.078  68.547  1.00  0.00    -0.392 C  
BRANCH   9  10
HETATM   10  C   UNL     1     -10.076  16.631  68.992  1.00  0.00    -0.293 C  
BRANCH  10  11
HETATM   11  C   UNL     1     -11.424  15.942  69.177  1.00  0.00    -0.377 C  
BRANCH  11  12
HETATM   12  C   UNL     1     -11.648  14.897  68.089  1.00  0.00    -0.356 C  
BRANCH  12  13
HETATM   13  C   UNL     1     -10.347  14.185  67.729  1.00  0.00    -0.242 C  
BRANCH  13  14
HETATM   14  C   UNL     1     -10.019  14.377  66.250  1.00  0.00    -0.320 C  
BRANCH  14  15
HETATM   15  C   UNL     1     -11.169  13.911  65.363  1.00  0.00    -0.306 C  
HETATM   16  C   UNL     1     -11.602  14.989  64.397  1.00  0.00    -0.276 C  
HETATM   17  O   UNL     1     -12.622  14.584  63.604  1.00  0.00    -0.798 OA 
HETATM   18  O   UNL     1     -11.115  16.105  64.315  1.00  0.00    -0.653 OA 
ENDBRANCH  14  15
ENDBRANCH  13  14
ENDBRANCH  12  13
ENDBRANCH  11  12
ENDBRANCH  10  11
ENDBRANCH   9  10
ENDBRANCH   8   9
ENDBRANCH   7   8
ENDBRANCH   6   7
ENDBRANCH   5   6
ENDBRANCH   4   5
ENDBRANCH   3   4
ENDBRANCH   2   3
TORSDOF 13
ENDMDL
MODEL       33
REMARK 921   NORMALIZED FREE ENERGY PREDICTED BY IDOCK:   -4.22 KCAL/MOL
REMARK 922        TOTAL FREE ENERGY PREDICTED BY IDOCK:   -8.84 KCAL/MOL
REMARK 923 INTER-LIGAND FREE ENERGY PREDICTED BY IDOCK:   -7.30 KCAL/MOL
REMARK 924 INTRA-LIGAND FREE ENERGY PREDICTED BY IDOCK:   -1.54 KCAL/MOL
REMARK 927      BINDING AFFINITY PREDICTED BY RF-SCORE:    0.00 PKD
ROOT
HETATM    1  C   UNL     1      -7.046  19.712  68.294  1.00  0.00    -0.337 C  
HETATM    2  C   UNL     1      -7.409  20.557  67.085  1.00  0.00    -0.374 C  
ENDROOT
BRANCH   2   3
HETATM    3  C   UNL     1      -8.689  20.052  66.425  1.00  0.00    -0.364 C  
BRANCH   3   4
HETATM    4  C   UNL     1      -9.901  20.291  67.320  1.00  0.00    -0.593 C  
BRANCH   4   5
HETATM    5  C   UNL     1     -10.810  19.065  67.342  1.00  0.00    -0.496 C  
BRANCH   5   6
HETATM    6  C   UNL     1     -10.384  18.090  68.434  1.00  0.00    -0.377 C  
BRANCH   6   7
HETATM    7  C   UNL     1      -9.776  16.830  67.826  1.00  0.00    -0.248 C  
BRANCH   7   8
HETATM    8  C   UNL     1     -10.216  16.662  66.376  1.00  0.00    -0.322 C  
BRANCH   8   9
HETATM    9  C   UNL     1      -9.755  15.317  65.825  1.00  0.00    -0.385 C  
BRANCH   9  10
HETATM   10  C   UNL     1     -10.951  14.441  65.470  1.00  0.00    -0.330 C  
BRANCH  10  11
HETATM   11  C   UNL     1     -10.900  13.115  66.222  1.00  0.00    -0.292 C  
BRANCH  11  12
HETATM   12  C   UNL     1     -11.888  13.117  67.384  1.00  0.00    -0.412 C  
BRANCH  12  13
HETATM   13  C   UNL     1     -11.176  13.332  68.716  1.00  0.00    -0.317 C  
BRANCH  13  14
HETATM   14  C   UNL     1     -11.956  14.309  69.594  1.00  0.00    -0.387 C  
BRANCH  14  15
HETATM   15  C   UNL     1     -12.450  13.634  70.870  1.00  0.00    -0.448 C  
HETATM   16  C   UNL     1     -13.488  14.472  71.579  1.00  0.00    -0.374 C  
HETATM   17  O   UNL     1     -13.934  13.880  72.712  1.00  0.00    -0.697 OA 
HETATM   18  O   UNL     1     -13.899  15.558  71.204  1.00  0.00    -0.549 OA 
ENDBRANCH  14  15
ENDBRANCH  13  14
ENDBRANCH  12  13
ENDBRANCH  11  12
ENDBRANCH  10  11
ENDBRANCH   9  10
ENDBRANCH   8   9
ENDBRANCH   7   8
ENDBRANCH   6   7
ENDBRANCH   5   6
ENDBRANCH   4   5
ENDBRANCH   3   4
ENDBRANCH   2   3
TORSDOF 13
ENDMDL
MODEL       34
REMARK 921   NORMALIZED FREE ENERGY PREDICTED BY IDOCK:   -4.21 KCAL/MOL
REMARK 922        TOTAL FREE ENERGY PREDICTED BY IDOCK:   -8.82 KCAL/MOL
REMARK 923 INTER-LIGAND FREE ENERGY PREDICTED BY IDOCK:   -7.37 KCAL/MOL
REMARK 924 INTRA-LIGAND FREE ENERGY PREDICTED BY IDOCK:   -1.45 KCAL/MOL
REMARK 927      BINDING AFFINITY PREDICTED BY RF-SCORE:    0.00 PKD
ROOT
HETATM    1  C   UNL     1     -12.655  15.559  73.896  1.00  0.00    -0.767 C  
HETATM    2  C   UNL     1     -13.539  15.827  72.690  1.00  0.00    -0.630 C  
ENDROOT
BRANCH   2   3
HETATM    3  C   UNL     1     -13.850  14.536  71.937  1.00  0.00    -0.545 C  
BRANCH   3   4
HETATM    4  C   UNL     1     -12.770  14.227  70.904  1.00  0.00    -0.427 C  
BRANCH   4   5
HETATM    5  C   UNL     1     -12.289  15.505  70.223  1.00  0.00    -0.431 C  
BRANCH   5   6
HETATM    6  C   UNL     1     -10.882  15.328  69.662  1.00  0.00    -0.294 C  
BRANCH   6   7
HETATM    7  C   UNL     1     -10.751  16.017  68.308  1.00  0.00    -0.298 C  
BRANCH   7   8
HETATM    8  C   UNL     1     -10.646  14.992  67.185  1.00  0.00    -0.295 C  
BRANCH   8   9
HETATM    9  C   UNL     1     -12.022  14.434  66.833  1.00  0.00    -0.425 C  
BRANCH   9  10
HETATM   10  C   UNL     1     -12.139  12.977  67.263  1.00  0.00    -0.304 C  
BRANCH  10  11
HETATM   11  C   UNL     1     -10.791  12.268  67.172  1.00  0.00    -0.282 C  
BRANCH  11  12
HETATM   12  C   UNL     1     -10.501  11.496  68.455  1.00  0.00    -0.226 C  
BRANCH  12  13
HETATM   13  C   UNL     1     -11.606  11.703  69.487  1.00  0.00    -0.397 C  
BRANCH  13  14
HETATM   14  C   UNL     1     -11.545  10.624  70.566  1.00  0.00    -0.444 C  
BRANCH  14  15
HETATM   15  C   UNL     1     -12.742  10.714  71.508  1.00  0.00    -0.549 C  
HETATM   16  C   UNL     1     -13.073   9.373  72.121  1.00  0.00    -0.442 C  
HETATM   17  O   UNL     1     -14.133   9.444  72.960  1.00  0.00    -0.310 OA 
HETATM   18  O   UNL     1     -12.478   8.330  71.907  1.00  0.00    -0.306 OA 
ENDBRANCH  14  15
ENDBRANCH  13  14
ENDBRANCH  12  13
ENDBRANCH  11  12
ENDBRANCH  10  11
ENDBRANCH   9  10
ENDBRANCH   8   9
ENDBRANCH   7   8
ENDBRANCH   6   7
ENDBRANCH   5   6
ENDBRANCH   4   5
ENDBRANCH   3   4
ENDBRANCH   2   3
TORSDOF 13
ENDMDL
MODEL       35
REMARK 921   NORMALIZED FREE ENERGY PREDICTED BY IDOCK:   -4.21 KCAL/MOL
REMARK 922        TOTAL FREE ENERGY PREDICTED BY IDOCK:   -8.82 KCAL/MOL
REMARK 923 INTER-LIGAND FREE ENERGY PREDICTED BY IDOCK:   -6.74 KCAL/MOL
REMARK 924 INTRA-LIGAND FREE ENERGY PREDICTED BY IDOCK:   -2.08 KCAL/MOL
REMARK 927      BINDING AFFINITY PREDICTED BY RF-SCORE:    0.00 PKD
ROOT
HETATM    1  C   UNL     1      -8.728  13.499  67.002  1.00  0.00    -0.197 C  
HETATM    2  C   UNL     1      -9.876  14.308  66.424  1.00  0.00    -0.309 C  
ENDROOT
BRANCH   2   3
HETATM    3  C   UNL     1     -11.211  13.880  67.029  1.00  0.00    -0.327 C  
BRANCH   3   4
HETATM    4  C   UNL     1     -12.242  13.595  65.941  1.00  0.00    -0.502 C  
BRANCH   4   5
HETATM    5  C   UNL     1     -11.724  14.034  64.574  1.00  0.00    -0.428 C  
BRANCH   5   6
HETATM    6  C   UNL     1     -12.333  13.186  63.462  1.00  0.00    -0.478 C  
BRANCH   6   7
HETATM    7  C   UNL     1     -11.808  11.756  63.525  1.00  0.00    -0.481 C  
BRANCH   7   8
HETATM    8  C   UNL     1     -10.290  11.729  63.389  1.00  0.00    -0.481 C  
BRANCH   8   9
HETATM    9  C   UNL     1      -9.714  10.465  64.018  1.00  0.00    -0.373 C  
BRANCH   9  10
HETATM   10  C   UNL     1      -9.800  10.531  65.539  1.00  0.00    -0.324 C  
BRANCH  10  11
HETATM   11  C   UNL     1      -9.567   9.157  66.160  1.00  0.00    -0.333 C  
BRANCH  11  12
HETATM   12  C   UNL     1     -10.435   8.973  67.400  1.00  0.00    -0.338 C  
BRANCH  12  13
HETATM   13  C   UNL     1     -11.059  10.295  67.840  1.00  0.00    -0.341 C  
BRANCH  13  14
HETATM   14  C   UNL     1     -10.554  10.695  69.224  1.00  0.00    -0.263 C  
BRANCH  14  15
HETATM   15  C   UNL     1     -11.481  10.181  70.322  1.00  0.00    -0.381 C  
HETATM   16  C   UNL     1     -12.334  11.289  70.896  1.00  0.00    -0.388 C  
HETATM   17  O   UNL     1     -13.162  10.842  71.870  1.00  0.00    -0.469 OA 
HETATM   18  O   UNL     1     -12.307  12.458  70.549  1.00  0.00    -0.330 OA 
ENDBRANCH  14  15
ENDBRANCH  13  14
ENDBRANCH  12  13
ENDBRANCH  11  12
ENDBRANCH  10  11
ENDBRANCH   9  10
ENDBRANCH   8   9
ENDBRANCH   7   8
ENDBRANCH   6   7
ENDBRANCH   5   6
ENDBRANCH   4   5
ENDBRANCH   3   4
ENDBRANCH   2   3
TORSDOF 13
ENDMDL
MODEL       36
REMARK 921   NORMALIZED FREE ENERGY PREDICTED BY IDOCK:   -4.21 KCAL/MOL
REMARK 922        TOTAL FREE ENERGY PREDICTED BY IDOCK:   -8.81 KCAL/MOL
REMARK 923 INTER-LIGAND FREE ENERGY PREDICTED BY IDOCK:   -7.23 KCAL/MOL
REMARK 924 INTRA-LIGAND FREE ENERGY PREDICTED BY IDOCK:   -1.58 KCAL/MOL
REMARK 927      BINDING AFFINITY PREDICTED BY RF-SCORE:    0.00 PKD
ROOT
HETATM    1  C   UNL     1     -12.160  15.992  72.984  1.00  0.00    -0.628 C  
HETATM    2  C   UNL     1     -12.930  15.646  71.721  1.00  0.00    -0.541 C  
ENDROOT
BRANCH   2   3
HETATM    3  C   UNL     1     -12.066  15.841  70.478  1.00  0.00    -0.407 C  
BRANCH   3   4
HETATM    4  C   UNL     1     -12.070  14.591  69.603  1.00  0.00    -0.369 C  
BRANCH   4   5
HETATM    5  C   UNL     1     -12.255  13.335  70.451  1.00  0.00    -0.404 C  
BRANCH   5   6
HETATM    6  C   UNL     1     -11.917  12.082  69.651  1.00  0.00    -0.360 C  
BRANCH   6   7
HETATM    7  C   UNL     1     -11.062  12.431  68.437  1.00  0.00    -0.288 C  
BRANCH   7   8
HETATM    8  C   UNL     1     -11.637  11.806  67.171  1.00  0.00    -0.342 C  
BRANCH   8   9
HETATM    9  C   UNL     1     -11.140  12.542  65.931  1.00  0.00    -0.334 C  
BRANCH   9  10
HETATM   10  C   UNL     1     -12.060  13.708  65.590  1.00  0.00    -0.457 C  
BRANCH  10  11
HETATM   11  C   UNL     1     -11.257  14.933  65.163  1.00  0.00    -0.389 C  
BRANCH  11  12
HETATM   12  C   UNL     1      -9.815  14.827  65.648  1.00  0.00    -0.361 C  
BRANCH  12  13
HETATM   13  C   UNL     1      -9.343  16.138  66.272  1.00  0.00    -0.351 C  
BRANCH  13  14
HETATM   14  C   UNL     1     -10.527  17.066  66.536  1.00  0.00    -0.250 C  
BRANCH  14  15
HETATM   15  C   UNL     1     -10.327  17.868  67.818  1.00  0.00    -0.393 C  
HETATM   16  C   UNL     1     -10.433  19.355  67.569  1.00  0.00    -0.462 C  
HETATM   17  O   UNL     1     -10.259  20.076  68.701  1.00  0.00    -0.437 OA 
HETATM   18  O   UNL     1     -10.649  19.879  66.488  1.00  0.00    -0.460 OA 
ENDBRANCH  14  15
ENDBRANCH  13  14
ENDBRANCH  12  13
ENDBRANCH  11  12
ENDBRANCH  10  11
ENDBRANCH   9  10
ENDBRANCH   8   9
ENDBRANCH   7   8
ENDBRANCH   6   7
ENDBRANCH   5   6
ENDBRANCH   4   5
ENDBRANCH   3   4
ENDBRANCH   2   3
TORSDOF 13
ENDMDL
MODEL       37
REMARK 921   NORMALIZED FREE ENERGY PREDICTED BY IDOCK:   -4.19 KCAL/MOL
REMARK 922        TOTAL FREE ENERGY PREDICTED BY IDOCK:   -8.79 KCAL/MOL
REMARK 923 INTER-LIGAND FREE ENERGY PREDICTED BY IDOCK:   -6.81 KCAL/MOL
REMARK 924 INTRA-LIGAND FREE ENERGY PREDICTED BY IDOCK:   -1.98 KCAL/MOL
REMARK 927      BINDING AFFINITY PREDICTED BY RF-SCORE:    0.00 PKD
ROOT
HETATM    1  C   UNL     1     -10.247  11.878  63.491  1.00  0.00    -0.485 C  
HETATM    2  C   UNL     1     -11.679  12.385  63.441  1.00  0.00    -0.554 C  
ENDROOT
BRANCH   2   3
HETATM    3  C   UNL     1     -11.821  13.706  64.193  1.00  0.00    -0.463 C  
BRANCH   3   4
HETATM    4  C   UNL     1     -12.880  13.604  65.288  1.00  0.00    -0.421 C  
BRANCH   4   5
HETATM    5  C   UNL     1     -12.236  13.657  66.670  1.00  0.00    -0.437 C  
BRANCH   5   6
HETATM    6  C   UNL     1     -11.756  12.275  67.102  1.00  0.00    -0.396 C  
BRANCH   6   7
HETATM    7  C   UNL     1     -10.566  12.389  68.049  1.00  0.00    -0.238 C  
BRANCH   7   8
HETATM    8  C   UNL     1      -9.276  12.626  67.272  1.00  0.00    -0.195 C  
BRANCH   8   9
HETATM    9  C   UNL     1      -8.865  14.093  67.341  1.00  0.00    -0.211 C  
BRANCH   9  10
HETATM   10  C   UNL     1      -8.241  14.416  68.693  1.00  0.00    -0.148 C  
BRANCH  10  11
HETATM   11  C   UNL     1      -8.729  15.765  69.213  1.00  0.00    -0.261 C  
BRANCH  11  12
HETATM   12  C   UNL     1     -10.196  15.980  68.858  1.00  0.00    -0.231 C  
BRANCH  12  13
HETATM   13  C   UNL     1     -11.067  16.028  70.110  1.00  0.00    -0.372 C  
BRANCH  13  14
HETATM   14  C   UNL     1     -12.403  15.330  69.865  1.00  0.00    -0.323 C  
BRANCH  14  15
HETATM   15  C   UNL     1     -12.586  14.139  70.801  1.00  0.00    -0.432 C  
HETATM   16  C   UNL     1     -13.641  14.410  71.849  1.00  0.00    -0.403 C  
HETATM   17  O   UNL     1     -13.812  13.359  72.685  1.00  0.00    -0.726 OA 
HETATM   18  O   UNL     1     -14.281  15.443  71.960  1.00  0.00    -0.514 OA 
ENDBRANCH  14  15
ENDBRANCH  13  14
ENDBRANCH  12  13
ENDBRANCH  11  12
ENDBRANCH  10  11
ENDBRANCH   9  10
ENDBRANCH   8   9
ENDBRANCH   7   8
ENDBRANCH   6   7
ENDBRANCH   5   6
ENDBRANCH   4   5
ENDBRANCH   3   4
ENDBRANCH   2   3
TORSDOF 13
ENDMDL
MODEL       38
REMARK 921   NORMALIZED FREE ENERGY PREDICTED BY IDOCK:   -4.19 KCAL/MOL
REMARK 922        TOTAL FREE ENERGY PREDICTED BY IDOCK:   -8.78 KCAL/MOL
REMARK 923 INTER-LIGAND FREE ENERGY PREDICTED BY IDOCK:   -6.69 KCAL/MOL
REMARK 924 INTRA-LIGAND FREE ENERGY PREDICTED BY IDOCK:   -2.09 KCAL/MOL
REMARK 927      BINDING AFFINITY PREDICTED BY RF-SCORE:    0.00 PKD
ROOT
HETATM    1  C   UNL     1     -10.928  11.856  63.512  1.00  0.00    -0.505 C  
HETATM    2  C   UNL     1     -12.377  11.970  63.953  1.00  0.00    -0.553 C  
ENDROOT
BRANCH   2   3
HETATM    3  C   UNL     1     -12.531  12.994  65.075  1.00  0.00    -0.534 C  
BRANCH   3   4
HETATM    4  C   UNL     1     -12.165  14.396  64.595  1.00  0.00    -0.479 C  
BRANCH   4   5
HETATM    5  C   UNL     1     -11.208  15.071  65.574  1.00  0.00    -0.344 C  
BRANCH   5   6
HETATM    6  C   UNL     1     -11.528  14.674  67.011  1.00  0.00    -0.379 C  
BRANCH   6   7
HETATM    7  C   UNL     1     -10.251  14.329  67.772  1.00  0.00    -0.235 C  
BRANCH   7   8
HETATM    8  C   UNL     1      -9.161  13.859  66.816  1.00  0.00    -0.267 C  
BRANCH   8   9
HETATM    9  C   UNL     1      -9.097  12.336  66.778  1.00  0.00    -0.211 C  
BRANCH   9  10
HETATM   10  C   UNL     1      -9.594  11.741  68.090  1.00  0.00    -0.193 C  
BRANCH  10  11
HETATM   11  C   UNL     1     -10.677  10.696  67.841  1.00  0.00    -0.292 C  
BRANCH  11  12
HETATM   12  C   UNL     1     -11.981  11.100  68.521  1.00  0.00    -0.250 C  
BRANCH  12  13
HETATM   13  C   UNL     1     -11.722  11.725  69.889  1.00  0.00    -0.399 C  
BRANCH  13  14
HETATM   14  C   UNL     1     -12.537  11.017  70.969  1.00  0.00    -0.512 C  
BRANCH  14  15
HETATM   15  C   UNL     1     -11.844   9.741  71.439  1.00  0.00    -0.488 C  
HETATM   16  C   UNL     1     -12.838   8.641  71.731  1.00  0.00    -0.359 C  
HETATM   17  O   UNL     1     -12.232   7.504  72.148  1.00  0.00    -0.293 OA 
HETATM   18  O   UNL     1     -14.050   8.731  71.617  1.00  0.00    -0.401 OA 
ENDBRANCH  14  15
ENDBRANCH  13  14
ENDBRANCH  12  13
ENDBRANCH  11  12
ENDBRANCH  10  11
ENDBRANCH   9  10
ENDBRANCH   8   9
ENDBRANCH   7   8
ENDBRANCH   6   7
ENDBRANCH   5   6
ENDBRANCH   4   5
ENDBRANCH   3   4
ENDBRANCH   2   3
TORSDOF 13
ENDMDL
MODEL       39
REMARK 921   NORMALIZED FREE ENERGY PREDICTED BY IDOCK:   -4.19 KCAL/MOL
REMARK 922        TOTAL FREE ENERGY PREDICTED BY IDOCK:   -8.78 KCAL/MOL
REMARK 923 INTER-LIGAND FREE ENERGY PREDICTED BY IDOCK:   -6.92 KCAL/MOL
REMARK 924 INTRA-LIGAND FREE ENERGY PREDICTED BY IDOCK:   -1.86 KCAL/MOL
REMARK 927      BINDING AFFINITY PREDICTED BY RF-SCORE:    0.00 PKD
ROOT
HETATM    1  C   UNL     1     -10.047  19.490  66.389  1.00  0.00    -0.551 C  
HETATM    2  C   UNL     1     -10.557  19.523  67.820  1.00  0.00    -0.542 C  
ENDROOT
BRANCH   2   3
HETATM    3  C   UNL     1     -10.146  18.264  68.580  1.00  0.00    -0.407 C  
BRANCH   3   4
HETATM    4  C   UNL     1      -8.752  17.801  68.165  1.00  0.00    -0.266 C  
BRANCH   4   5
HETATM    5  C   UNL     1      -8.634  16.283  68.259  1.00  0.00    -0.196 C  
BRANCH   5   6
HETATM    6  C   UNL     1      -8.320  15.674  66.896  1.00  0.00    -0.287 C  
BRANCH   6   7
HETATM    7  C   UNL     1      -9.461  15.929  65.916  1.00  0.00    -0.372 C  
BRANCH   7   8
HETATM    8  C   UNL     1     -10.119  14.618  65.499  1.00  0.00    -0.405 C  
BRANCH   8   9
HETATM    9  C   UNL     1     -11.639  14.732  65.563  1.00  0.00    -0.301 C  
BRANCH   9  10
HETATM   10  C   UNL     1     -12.198  13.870  66.689  1.00  0.00    -0.465 C  
BRANCH  10  11
HETATM   11  C   UNL     1     -11.119  12.961  67.270  1.00  0.00    -0.309 C  
BRANCH  11  12
HETATM   12  C   UNL     1     -10.878  13.282  68.741  1.00  0.00    -0.273 C  
BRANCH  12  13
HETATM   13  C   UNL     1     -12.095  13.959  69.365  1.00  0.00    -0.384 C  
BRANCH  13  14
HETATM   14  C   UNL     1     -11.669  15.143  70.231  1.00  0.00    -0.338 C  
BRANCH  14  15
HETATM   15  C   UNL     1     -12.841  15.683  71.046  1.00  0.00    -0.521 C  
HETATM   16  C   UNL     1     -12.616  15.509  72.530  1.00  0.00    -0.403 C  
HETATM   17  O   UNL     1     -13.649  15.987  73.262  1.00  0.00    -0.590 OA 
HETATM   18  O   UNL     1     -11.632  15.001  73.043  1.00  0.00    -0.306 OA 
ENDBRANCH  14  15
ENDBRANCH  13  14
ENDBRANCH  12  13
ENDBRANCH  11  12
ENDBRANCH  10  11
ENDBRANCH   9  10
ENDBRANCH   8   9
ENDBRANCH   7   8
ENDBRANCH   6   7
ENDBRANCH   5   6
ENDBRANCH   4   5
ENDBRANCH   3   4
ENDBRANCH   2   3
TORSDOF 13
ENDMDL
MODEL       40
REMARK 921   NORMALIZED FREE ENERGY PREDICTED BY IDOCK:   -4.18 KCAL/MOL
REMARK 922        TOTAL FREE ENERGY PREDICTED BY IDOCK:   -8.76 KCAL/MOL
REMARK 923 INTER-LIGAND FREE ENERGY PREDICTED BY IDOCK:   -6.95 KCAL/MOL
REMARK 924 INTRA-LIGAND FREE ENERGY PREDICTED BY IDOCK:   -1.81 KCAL/MOL
REMARK 927      BINDING AFFINITY PREDICTED BY RF-SCORE:    0.00 PKD
ROOT
HETATM    1  C   UNL     1     -10.172   9.871  66.122  1.00  0.00    -0.277 C  
HETATM    2  C   UNL     1      -9.399  10.724  65.131  1.00  0.00    -0.254 C  
ENDROOT
BRANCH   2   3
HETATM    3  C   UNL     1     -10.119  10.795  63.786  1.00  0.00    -0.391 C  
BRANCH   3   4
HETATM    4  C   UNL     1     -10.743  12.170  63.568  1.00  0.00    -0.509 C  
BRANCH   4   5
HETATM    5  C   UNL     1     -12.263  12.102  63.692  1.00  0.00    -0.663 C  
BRANCH   5   6
HETATM    6  C   UNL     1     -12.740  12.824  64.948  1.00  0.00    -0.479 C  
BRANCH   6   7
HETATM    7  C   UNL     1     -11.804  13.978  65.296  1.00  0.00    -0.363 C  
BRANCH   7   8
HETATM    8  C   UNL     1     -11.618  14.088  66.804  1.00  0.00    -0.406 C  
BRANCH   8   9
HETATM    9  C   UNL     1     -10.200  13.692  67.204  1.00  0.00    -0.244 C  
BRANCH   9  10
HETATM   10  C   UNL     1     -10.218  12.792  68.434  1.00  0.00    -0.237 C  
BRANCH  10  11
HETATM   11  C   UNL     1     -11.617  12.239  68.688  1.00  0.00    -0.372 C  
BRANCH  11  12
HETATM   12  C   UNL     1     -12.086  12.588  70.096  1.00  0.00    -0.368 C  
BRANCH  12  13
HETATM   13  C   UNL     1     -12.532  11.341  70.855  1.00  0.00    -0.493 C  
BRANCH  13  14
HETATM   14  C   UNL     1     -11.737  10.119  70.400  1.00  0.00    -0.390 C  
BRANCH  14  15
HETATM   15  C   UNL     1     -11.011   9.464  71.571  1.00  0.00    -0.429 C  
HETATM   16  C   UNL     1     -11.744   8.239  72.067  1.00  0.00    -0.346 C  
HETATM   17  O   UNL     1     -11.106   7.649  73.106  1.00  0.00    -0.404 OA 
HETATM   18  O   UNL     1     -12.788   7.804  71.611  1.00  0.00    -0.325 OA 
ENDBRANCH  14  15
ENDBRANCH  13  14
ENDBRANCH  12  13
ENDBRANCH  11  12
ENDBRANCH  10  11
ENDBRANCH   9  10
ENDBRANCH   8   9
ENDBRANCH   7   8
ENDBRANCH   6   7
ENDBRANCH   5   6
ENDBRANCH   4   5
ENDBRANCH   3   4
ENDBRANCH   2   3
TORSDOF 13
ENDMDL
MODEL       41
REMARK 921   NORMALIZED FREE ENERGY PREDICTED BY IDOCK:   -4.17 KCAL/MOL
REMARK 922        TOTAL FREE ENERGY PREDICTED BY IDOCK:   -8.75 KCAL/MOL
REMARK 923 INTER-LIGAND FREE ENERGY PREDICTED BY IDOCK:   -7.59 KCAL/MOL
REMARK 924 INTRA-LIGAND FREE ENERGY PREDICTED BY IDOCK:   -1.17 KCAL/MOL
REMARK 927      BINDING AFFINITY PREDICTED BY RF-SCORE:    0.00 PKD
ROOT
HETATM    1  C   UNL     1     -10.885   6.700  67.387  1.00  0.00    -0.434 C  
HETATM    2  C   UNL     1     -10.826   5.885  68.668  1.00  0.00    -0.333 C  
ENDROOT
BRANCH   2   3
HETATM    3  C   UNL     1     -10.938   6.782  69.898  1.00  0.00    -0.340 C  
BRANCH   3   4
HETATM    4  C   UNL     1     -11.393   5.988  71.119  1.00  0.00    -0.300 C  
BRANCH   4   5
HETATM    5  C   UNL     1     -11.492   6.889  72.346  1.00  0.00    -0.297 C  
BRANCH   5   6
HETATM    6  C   UNL     1     -11.322   8.355  71.961  1.00  0.00    -0.411 C  
BRANCH   6   7
HETATM    7  C   UNL     1     -12.561   9.159  72.341  1.00  0.00    -0.381 C  
BRANCH   7   8
HETATM    8  C   UNL     1     -12.714  10.378  71.438  1.00  0.00    -0.551 C  
BRANCH   8   9
HETATM    9  C   UNL     1     -11.516  10.511  70.503  1.00  0.00    -0.433 C  
BRANCH   9  10
HETATM   10  C   UNL     1     -11.958  10.985  69.124  1.00  0.00    -0.394 C  
BRANCH  10  11
HETATM   11  C   UNL     1     -11.004  10.488  68.042  1.00  0.00    -0.345 C  
BRANCH  11  12
HETATM   12  C   UNL     1     -10.370  11.661  67.303  1.00  0.00    -0.232 C  
BRANCH  12  13
HETATM   13  C   UNL     1     -11.066  11.917  65.970  1.00  0.00    -0.369 C  
BRANCH  13  14
HETATM   14  C   UNL     1     -12.027  13.099  66.081  1.00  0.00    -0.478 C  
BRANCH  14  15
HETATM   15  C   UNL     1     -11.311  14.421  65.822  1.00  0.00    -0.330 C  
HETATM   16  C   UNL     1     -11.756  15.052  64.523  1.00  0.00    -0.368 C  
HETATM   17  O   UNL     1     -11.127  16.227  64.285  1.00  0.00    -0.762 OA 
HETATM   18  O   UNL     1     -12.581  14.586  63.755  1.00  0.00    -0.825 OA 
ENDBRANCH  14  15
ENDBRANCH  13  14
ENDBRANCH  12  13
ENDBRANCH  11  12
ENDBRANCH  10  11
ENDBRANCH   9  10
ENDBRANCH   8   9
ENDBRANCH   7   8
ENDBRANCH   6   7
ENDBRANCH   5   6
ENDBRANCH   4   5
ENDBRANCH   3   4
ENDBRANCH   2   3
TORSDOF 13
ENDMDL
MODEL       42
REMARK 921   NORMALIZED FREE ENERGY PREDICTED BY IDOCK:   -4.17 KCAL/MOL
REMARK 922        TOTAL FREE ENERGY PREDICTED BY IDOCK:   -8.75 KCAL/MOL
REMARK 923 INTER-LIGAND FREE ENERGY PREDICTED BY IDOCK:   -7.77 KCAL/MOL
REMARK 924 INTRA-LIGAND FREE ENERGY PREDICTED BY IDOCK:   -0.98 KCAL/MOL
REMARK 927      BINDING AFFINITY PREDICTED BY RF-SCORE:    0.00 PKD
ROOT
HETATM    1  C   UNL     1     -10.802  16.568  69.554  1.00  0.00    -0.315 C  
HETATM    2  C   UNL     1     -11.942  15.591  69.321  1.00  0.00    -0.338 C  
ENDROOT
BRANCH   2   3
HETATM    3  C   UNL     1     -12.909  15.581  70.502  1.00  0.00    -0.402 C  
BRANCH   3   4
HETATM    4  C   UNL     1     -12.158  15.489  71.828  1.00  0.00    -0.476 C  
BRANCH   4   5
HETATM    5  C   UNL     1     -12.956  14.684  72.849  1.00  0.00    -0.592 C  
BRANCH   5   6
HETATM    6  C   UNL     1     -13.896  13.703  72.156  1.00  0.00    -0.642 C  
BRANCH   6   7
HETATM    7  C   UNL     1     -13.279  12.309  72.108  1.00  0.00    -0.466 C  
BRANCH   7   8
HETATM    8  C   UNL     1     -12.348  12.169  70.910  1.00  0.00    -0.370 C  
BRANCH   8   9
HETATM    9  C   UNL     1     -12.500  10.795  70.264  1.00  0.00    -0.395 C  
BRANCH   9  10
HETATM   10  C   UNL     1     -11.174  10.044  70.275  1.00  0.00    -0.379 C  
BRANCH  10  11
HETATM   11  C   UNL     1     -10.326  10.413  69.061  1.00  0.00    -0.232 C  
BRANCH  11  12
HETATM   12  C   UNL     1     -11.119  10.219  67.773  1.00  0.00    -0.335 C  
BRANCH  12  13
HETATM   13  C   UNL     1     -10.490  10.990  66.615  1.00  0.00    -0.307 C  
BRANCH  13  14
HETATM   14  C   UNL     1     -11.226  12.308  66.382  1.00  0.00    -0.370 C  
BRANCH  14  15
HETATM   15  C   UNL     1     -11.252  12.673  64.900  1.00  0.00    -0.332 C  
HETATM   16  C   UNL     1     -12.446  13.532  64.558  1.00  0.00    -0.291 C  
HETATM   17  O   UNL     1     -12.477  13.863  63.245  1.00  0.00    -0.817 OA 
HETATM   18  O   UNL     1     -13.302  13.903  65.344  1.00  0.00    -0.710 OA 
ENDBRANCH  14  15
ENDBRANCH  13  14
ENDBRANCH  12  13
ENDBRANCH  11  12
ENDBRANCH  10  11
ENDBRANCH   9  10
ENDBRANCH   8   9
ENDBRANCH   7   8
ENDBRANCH   6   7
ENDBRANCH   5   6
ENDBRANCH   4   5
ENDBRANCH   3   4
ENDBRANCH   2   3
TORSDOF 13
ENDMDL
MODEL       43
REMARK 921   NORMALIZED FREE ENERGY PREDICTED BY IDOCK:   -4.17 KCAL/MOL
REMARK 922        TOTAL FREE ENERGY PREDICTED BY IDOCK:   -8.74 KCAL/MOL
REMARK 923 INTER-LIGAND FREE ENERGY PREDICTED BY IDOCK:   -7.19 KCAL/MOL
REMARK 924 INTRA-LIGAND FREE ENERGY PREDICTED BY IDOCK:   -1.55 KCAL/MOL
REMARK 927      BINDING AFFINITY PREDICTED BY RF-SCORE:    0.00 PKD
ROOT
HETATM    1  C   UNL     1     -11.017   6.189  68.300  1.00  0.00    -0.397 C  
HETATM    2  C   UNL     1     -11.244   6.127  69.801  1.00  0.00    -0.494 C  
ENDROOT
BRANCH   2   3
HETATM    3  C   UNL     1     -10.678   7.364  70.495  1.00  0.00    -0.247 C  
BRANCH   3   4
HETATM    4  C   UNL     1     -11.796   8.285  70.975  1.00  0.00    -0.276 C  
BRANCH   4   5
HETATM    5  C   UNL     1     -11.278   9.707  71.177  1.00  0.00    -0.454 C  
BRANCH   5   6
HETATM    6  C   UNL     1     -12.335  10.733  70.781  1.00  0.00    -0.480 C  
BRANCH   6   7
HETATM    7  C   UNL     1     -11.750  11.769  69.827  1.00  0.00    -0.408 C  
BRANCH   7   8
HETATM    8  C   UNL     1     -11.844  11.290  68.383  1.00  0.00    -0.331 C  
BRANCH   8   9
HETATM    9  C   UNL     1     -10.457  10.995  67.820  1.00  0.00    -0.232 C  
BRANCH   9  10
HETATM   10  C   UNL     1     -10.321   9.518  67.468  1.00  0.00    -0.306 C  
BRANCH  10  11
HETATM   11  C   UNL     1      -9.866   9.340  66.023  1.00  0.00    -0.363 C  
BRANCH  11  12
HETATM   12  C   UNL     1      -9.445  10.677  65.423  1.00  0.00    -0.263 C  
BRANCH  12  13
HETATM   13  C   UNL     1      -9.588  10.672  63.903  1.00  0.00    -0.356 C  
BRANCH  13  14
HETATM   14  C   UNL     1     -10.744  11.570  63.467  1.00  0.00    -0.483 C  
BRANCH  14  15
HETATM   15  C   UNL     1     -10.881  12.781  64.385  1.00  0.00    -0.395 C  
HETATM   16  C   UNL     1     -12.321  13.029  64.769  1.00  0.00    -0.436 C  
HETATM   17  O   UNL     1     -12.454  14.101  65.586  1.00  0.00    -0.457 OA 
HETATM   18  O   UNL     1     -13.277  12.364  64.405  1.00  0.00    -0.816 OA 
ENDBRANCH  14  15
ENDBRANCH  13  14
ENDBRANCH  12  13
ENDBRANCH  11  12
ENDBRANCH  10  11
ENDBRANCH   9  10
ENDBRANCH   8   9
ENDBRANCH   7   8
ENDBRANCH   6   7
ENDBRANCH   5   6
ENDBRANCH   4   5
ENDBRANCH   3   4
ENDBRANCH   2   3
TORSDOF 13
ENDMDL
MODEL       44
REMARK 921   NORMALIZED FREE ENERGY PREDICTED BY IDOCK:   -4.16 KCAL/MOL
REMARK 922        TOTAL FREE ENERGY PREDICTED BY IDOCK:   -8.74 KCAL/MOL
REMARK 923 INTER-LIGAND FREE ENERGY PREDICTED BY IDOCK:   -7.40 KCAL/MOL
REMARK 924 INTRA-LIGAND FREE ENERGY PREDICTED BY IDOCK:   -1.34 KCAL/MOL
REMARK 927      BINDING AFFINITY PREDICTED BY RF-SCORE:    0.00 PKD
ROOT
HETATM    1  C   UNL     1     -12.553   7.523  71.306  1.00  0.00    -0.345 C  
HETATM    2  C   UNL     1     -12.559   8.683  72.287  1.00  0.00    -0.457 C  
ENDROOT
BRANCH   2   3
HETATM    3  C   UNL     1     -12.719  10.017  71.561  1.00  0.00    -0.532 C  
BRANCH   3   4
HETATM    4  C   UNL     1     -11.592  10.235  70.555  1.00  0.00    -0.424 C  
BRANCH   4   5
HETATM    5  C   UNL     1     -12.017  11.221  69.470  1.00  0.00    -0.421 C  
BRANCH   5   6
HETATM    6  C   UNL     1     -11.048  11.187  68.293  1.00  0.00    -0.310 C  
BRANCH   6   7
HETATM    7  C   UNL     1     -10.152  12.422  68.297  1.00  0.00    -0.227 C  
BRANCH   7   8
HETATM    8  C   UNL     1      -9.722  12.784  66.880  1.00  0.00    -0.234 C  
BRANCH   8   9
HETATM    9  C   UNL     1      -9.972  14.262  66.601  1.00  0.00    -0.279 C  
BRANCH   9  10
HETATM   10  C   UNL     1     -11.256  14.730  67.276  1.00  0.00    -0.351 C  
BRANCH  10  11
HETATM   11  C   UNL     1     -11.040  16.053  68.006  1.00  0.00    -0.334 C  
BRANCH  11  12
HETATM   12  C   UNL     1     -10.990  15.834  69.514  1.00  0.00    -0.295 C  
BRANCH  12  13
HETATM   13  C   UNL     1     -12.115  14.912  69.977  1.00  0.00    -0.387 C  
BRANCH  13  14
HETATM   14  C   UNL     1     -12.052  14.700  71.488  1.00  0.00    -0.413 C  
BRANCH  14  15
HETATM   15  C   UNL     1     -12.244  16.014  72.240  1.00  0.00    -0.604 C  
HETATM   16  C   UNL     1     -12.318  15.796  73.734  1.00  0.00    -0.597 C  
HETATM   17  O   UNL     1     -12.487  16.956  74.411  1.00  0.00    -0.636 OA 
HETATM   18  O   UNL     1     -12.239  14.717  74.298  1.00  0.00    -0.552 OA 
ENDBRANCH  14  15
ENDBRANCH  13  14
ENDBRANCH  12  13
ENDBRANCH  11  12
ENDBRANCH  10  11
ENDBRANCH   9  10
ENDBRANCH   8   9
ENDBRANCH   7   8
ENDBRANCH   6   7
ENDBRANCH   5   6
ENDBRANCH   4   5
ENDBRANCH   3   4
ENDBRANCH   2   3
TORSDOF 13
ENDMDL
MODEL       45
REMARK 921   NORMALIZED FREE ENERGY PREDICTED BY IDOCK:   -4.16 KCAL/MOL
REMARK 922        TOTAL FREE ENERGY PREDICTED BY IDOCK:   -8.73 KCAL/MOL
REMARK 923 INTER-LIGAND FREE ENERGY PREDICTED BY IDOCK:   -6.91 KCAL/MOL
REMARK 924 INTRA-LIGAND FREE ENERGY PREDICTED BY IDOCK:   -1.82 KCAL/MOL
REMARK 927      BINDING AFFINITY PREDICTED BY RF-SCORE:    0.00 PKD
ROOT
HETATM    1  C   UNL     1     -12.702  12.950  64.916  1.00  0.00    -0.474 C  
HETATM    2  C   UNL     1     -12.204  12.388  63.596  1.00  0.00    -0.653 C  
ENDROOT
BRANCH   2   3
HETATM    3  C   UNL     1     -10.735  11.983  63.689  1.00  0.00    -0.506 C  
BRANCH   3   4
HETATM    4  C   UNL     1     -10.318  11.755  65.139  1.00  0.00    -0.323 C  
BRANCH   4   5
HETATM    5  C   UNL     1      -9.877  10.310  65.355  1.00  0.00    -0.362 C  
BRANCH   5   6
HETATM    6  C   UNL     1     -10.219   9.842  66.766  1.00  0.00    -0.300 C  
BRANCH   6   7
HETATM    7  C   UNL     1     -10.325  11.029  67.718  1.00  0.00    -0.218 C  
BRANCH   7   8
HETATM    8  C   UNL     1     -11.524  10.874  68.646  1.00  0.00    -0.380 C  
BRANCH   8   9
HETATM    9  C   UNL     1     -11.721  12.129  69.489  1.00  0.00    -0.402 C  
BRANCH   9  10
HETATM   10  C   UNL     1     -11.484  13.383  68.655  1.00  0.00    -0.345 C  
BRANCH  10  11
HETATM   11  C   UNL     1     -11.481  14.631  69.532  1.00  0.00    -0.334 C  
BRANCH  11  12
HETATM   12  C   UNL     1     -10.352  15.572  69.126  1.00  0.00    -0.237 C  
BRANCH  12  13
HETATM   13  C   UNL     1      -9.342  14.867  68.224  1.00  0.00    -0.195 C  
BRANCH  13  14
HETATM   14  C   UNL     1      -8.867  15.801  67.113  1.00  0.00    -0.224 C  
BRANCH  14  15
HETATM   15  C   UNL     1      -9.689  15.611  65.841  1.00  0.00    -0.388 C  
HETATM   16  C   UNL     1     -10.572  16.806  65.563  1.00  0.00    -0.230 C  
HETATM   17  O   UNL     1     -11.304  16.648  64.436  1.00  0.00    -1.023 OA 
HETATM   18  O   UNL     1     -10.643  17.811  66.252  1.00  0.00    -0.318 OA 
ENDBRANCH  14  15
ENDBRANCH  13  14
ENDBRANCH  12  13
ENDBRANCH  11  12
ENDBRANCH  10  11
ENDBRANCH   9  10
ENDBRANCH   8   9
ENDBRANCH   7   8
ENDBRANCH   6   7
ENDBRANCH   5   6
ENDBRANCH   4   5
ENDBRANCH   3   4
ENDBRANCH   2   3
TORSDOF 13
ENDMDL
MODEL       46
REMARK 921   NORMALIZED FREE ENERGY PREDICTED BY IDOCK:   -4.16 KCAL/MOL
REMARK 922        TOTAL FREE ENERGY PREDICTED BY IDOCK:   -8.73 KCAL/MOL
REMARK 923 INTER-LIGAND FREE ENERGY PREDICTED BY IDOCK:   -7.04 KCAL/MOL
REMARK 924 INTRA-LIGAND FREE ENERGY PREDICTED BY IDOCK:   -1.69 KCAL/MOL
REMARK 927      BINDING AFFINITY PREDICTED BY RF-SCORE:    0.00 PKD
ROOT
HETATM    1  C   UNL     1     -13.851  13.536  72.254  1.00  0.00    -0.680 C  
HETATM    2  C   UNL     1     -12.970  14.500  73.030  1.00  0.00    -0.596 C  
ENDROOT
BRANCH   2   3
HETATM    3  C   UNL     1     -12.519  15.663  72.151  1.00  0.00    -0.509 C  
BRANCH   3   4
HETATM    4  C   UNL     1     -11.605  15.182  71.027  1.00  0.00    -0.390 C  
BRANCH   4   5
HETATM    5  C   UNL     1     -12.094  15.694  69.675  1.00  0.00    -0.329 C  
BRANCH   5   6
HETATM    6  C   UNL     1     -11.482  14.888  68.534  1.00  0.00    -0.336 C  
BRANCH   6   7
HETATM    7  C   UNL     1     -11.874  13.418  68.640  1.00  0.00    -0.397 C  
BRANCH   7   8
HETATM    8  C   UNL     1     -10.801  12.525  68.029  1.00  0.00    -0.252 C  
BRANCH   8   9
HETATM    9  C   UNL     1      -9.709  13.364  67.373  1.00  0.00    -0.221 C  
BRANCH   9  10
HETATM   10  C   UNL     1      -8.500  12.503  67.028  1.00  0.00    -0.161 C  
BRANCH  10  11
HETATM   11  C   UNL     1      -8.916  11.062  66.751  1.00  0.00    -0.163 C  
BRANCH  11  12
HETATM   12  C   UNL     1      -8.793  10.743  65.265  1.00  0.00    -0.200 C  
BRANCH  12  13
HETATM   13  C   UNL     1     -10.165  10.647  64.604  1.00  0.00    -0.404 C  
BRANCH  13  14
HETATM   14  C   UNL     1     -10.598  12.006  64.059  1.00  0.00    -0.423 C  
BRANCH  14  15
HETATM   15  C   UNL     1     -12.011  12.360  64.511  1.00  0.00    -0.474 C  
HETATM   16  C   UNL     1     -12.151  13.836  64.805  1.00  0.00    -0.410 C  
HETATM   17  O   UNL     1     -13.403  14.160  65.206  1.00  0.00    -0.715 OA 
HETATM   18  O   UNL     1     -11.262  14.666  64.706  1.00  0.00    -0.379 OA 
ENDBRANCH  14  15
ENDBRANCH  13  14
ENDBRANCH  12  13
ENDBRANCH  11  12
ENDBRANCH  10  11
ENDBRANCH   9  10
ENDBRANCH   8   9
ENDBRANCH   7   8
ENDBRANCH   6   7
ENDBRANCH   5   6
ENDBRANCH   4   5
ENDBRANCH   3   4
ENDBRANCH   2   3
TORSDOF 13
ENDMDL
MODEL       47
REMARK 921   NORMALIZED FREE ENERGY PREDICTED BY IDOCK:   -4.16 KCAL/MOL
REMARK 922        TOTAL FREE ENERGY PREDICTED BY IDOCK:   -8.72 KCAL/MOL
REMARK 923 INTER-LIGAND FREE ENERGY PREDICTED BY IDOCK:   -7.01 KCAL/MOL
REMARK 924 INTRA-LIGAND FREE ENERGY PREDICTED BY IDOCK:   -1.72 KCAL/MOL
REMARK 927      BINDING AFFINITY PREDICTED BY RF-SCORE:    0.00 PKD
ROOT
HETATM    1  C   UNL     1      -7.138  18.760  68.341  1.00  0.00    -0.288 C  
HETATM    2  C   UNL     1      -8.457  19.446  68.653  1.00  0.00    -0.395 C  
ENDROOT
BRANCH   2   3
HETATM    3  C   UNL     1      -9.079  20.043  67.393  1.00  0.00    -0.460 C  
BRANCH   3   4
HETATM    4  C   UNL     1     -10.495  19.517  67.177  1.00  0.00    -0.592 C  
BRANCH   4   5
HETATM    5  C   UNL     1     -10.503  18.385  66.154  1.00  0.00    -0.422 C  
BRANCH   5   6
HETATM    6  C   UNL     1     -10.407  17.028  66.842  1.00  0.00    -0.303 C  
BRANCH   6   7
HETATM    7  C   UNL     1      -9.482  16.094  66.067  1.00  0.00    -0.374 C  
BRANCH   7   8
HETATM    8  C   UNL     1     -10.092  14.702  65.951  1.00  0.00    -0.341 C  
BRANCH   8   9
HETATM    9  C   UNL     1     -11.466  14.657  66.612  1.00  0.00    -0.363 C  
BRANCH   9  10
HETATM   10  C   UNL     1     -12.458  13.895  65.742  1.00  0.00    -0.530 C  
BRANCH  10  11
HETATM   11  C   UNL     1     -11.940  13.756  64.314  1.00  0.00    -0.481 C  
BRANCH  11  12
HETATM   12  C   UNL     1     -12.034  12.307  63.846  1.00  0.00    -0.582 C  
BRANCH  12  13
HETATM   13  C   UNL     1     -10.654  11.659  63.772  1.00  0.00    -0.473 C  
BRANCH  13  14
HETATM   14  C   UNL     1     -10.507  10.581  64.843  1.00  0.00    -0.214 C  
BRANCH  14  15
HETATM   15  C   UNL     1      -9.667  11.077  66.017  1.00  0.00    -0.265 C  
HETATM   16  C   UNL     1     -10.475  11.143  67.293  1.00  0.00    -0.226 C  
HETATM   17  O   UNL     1      -9.738  11.580  68.341  1.00  0.00    -0.191 OA 
HETATM   18  O   UNL     1     -11.653  10.847  67.402  1.00  0.00    -0.509 OA 
ENDBRANCH  14  15
ENDBRANCH  13  14
ENDBRANCH  12  13
ENDBRANCH  11  12
ENDBRANCH  10  11
ENDBRANCH   9  10
ENDBRANCH   8   9
ENDBRANCH   7   8
ENDBRANCH   6   7
ENDBRANCH   5   6
ENDBRANCH   4   5
ENDBRANCH   3   4
ENDBRANCH   2   3
TORSDOF 13
ENDMDL
MODEL       48
REMARK 921   NORMALIZED FREE ENERGY PREDICTED BY IDOCK:   -4.16 KCAL/MOL
REMARK 922        TOTAL FREE ENERGY PREDICTED BY IDOCK:   -8.72 KCAL/MOL
REMARK 923 INTER-LIGAND FREE ENERGY PREDICTED BY IDOCK:   -7.65 KCAL/MOL
REMARK 924 INTRA-LIGAND FREE ENERGY PREDICTED BY IDOCK:   -1.07 KCAL/MOL
REMARK 927      BINDING AFFINITY PREDICTED BY RF-SCORE:    0.00 PKD
ROOT
HETATM    1  C   UNL     1     -12.676  15.653  71.250  1.00  0.00    -0.537 C  
HETATM    2  C   UNL     1     -14.057  15.199  71.693  1.00  0.00    -0.645 C  
ENDROOT
BRANCH   2   3
HETATM    3  C   UNL     1     -14.023  13.767  72.221  1.00  0.00    -0.672 C  
BRANCH   3   4
HETATM    4  C   UNL     1     -12.943  12.948  71.519  1.00  0.00    -0.388 C  
BRANCH   4   5
HETATM    5  C   UNL     1     -13.143  11.456  71.774  1.00  0.00    -0.523 C  
BRANCH   5   6
HETATM    6  C   UNL     1     -12.660  10.631  70.586  1.00  0.00    -0.454 C  
BRANCH   6   7
HETATM    7  C   UNL     1     -11.541  11.356  69.845  1.00  0.00    -0.402 C  
BRANCH   7   8
HETATM    8  C   UNL     1     -11.541  10.986  68.366  1.00  0.00    -0.372 C  
BRANCH   8   9
HETATM    9  C   UNL     1     -10.680   9.752  68.118  1.00  0.00    -0.280 C  
BRANCH   9  10
HETATM   10  C   UNL     1      -9.454  10.108  67.285  1.00  0.00    -0.178 C  
BRANCH  10  11
HETATM   11  C   UNL     1      -9.385   9.255  66.021  1.00  0.00    -0.283 C  
BRANCH  11  12
HETATM   12  C   UNL     1      -9.982  10.003  64.834  1.00  0.00    -0.286 C  
BRANCH  12  13
HETATM   13  C   UNL     1      -9.552  11.467  64.829  1.00  0.00    -0.198 C  
BRANCH  13  14
HETATM   14  C   UNL     1     -10.411  12.279  63.862  1.00  0.00    -0.455 C  
BRANCH  14  15
HETATM   15  C   UNL     1     -11.825  12.470  64.403  1.00  0.00    -0.455 C  
HETATM   16  C   UNL     1     -12.107  13.918  64.728  1.00  0.00    -0.419 C  
HETATM   17  O   UNL     1     -13.360  14.098  65.208  1.00  0.00    -0.715 OA 
HETATM   18  O   UNL     1     -11.323  14.842  64.588  1.00  0.00    -0.386 OA 
ENDBRANCH  14  15
ENDBRANCH  13  14
ENDBRANCH  12  13
ENDBRANCH  11  12
ENDBRANCH  10  11
ENDBRANCH   9  10
ENDBRANCH   8   9
ENDBRANCH   7   8
ENDBRANCH   6   7
ENDBRANCH   5   6
ENDBRANCH   4   5
ENDBRANCH   3   4
ENDBRANCH   2   3
TORSDOF 13
ENDMDL
MODEL       49
REMARK 921   NORMALIZED FREE ENERGY PREDICTED BY IDOCK:   -4.15 KCAL/MOL
REMARK 922        TOTAL FREE ENERGY PREDICTED BY IDOCK:   -8.71 KCAL/MOL
REMARK 923 INTER-LIGAND FREE ENERGY PREDICTED BY IDOCK:   -7.29 KCAL/MOL
REMARK 924 INTRA-LIGAND FREE ENERGY PREDICTED BY IDOCK:   -1.42 KCAL/MOL
REMARK 927      BINDING AFFINITY PREDICTED BY RF-SCORE:    0.00 PKD
ROOT
HETATM    1  C   UNL     1     -10.039   7.842  66.723  1.00  0.00    -0.352 C  
HETATM    2  C   UNL     1     -10.998   6.905  67.437  1.00  0.00    -0.374 C  
ENDROOT
BRANCH   2   3
HETATM    3  C   UNL     1     -10.420   6.437  68.770  1.00  0.00    -0.260 C  
BRANCH   3   4
HETATM    4  C   UNL     1     -11.496   6.390  69.851  1.00  0.00    -0.483 C  
BRANCH   4   5
HETATM    5  C   UNL     1     -10.873   6.465  71.242  1.00  0.00    -0.306 C  
BRANCH   5   6
HETATM    6  C   UNL     1     -11.584   7.504  72.102  1.00  0.00    -0.340 C  
BRANCH   6   7
HETATM    7  C   UNL     1     -13.011   7.726  71.611  1.00  0.00    -0.374 C  
BRANCH   7   8
HETATM    8  C   UNL     1     -13.367   9.208  71.633  1.00  0.00    -0.444 C  
BRANCH   8   9
HETATM    9  C   UNL     1     -12.161  10.059  71.249  1.00  0.00    -0.498 C  
BRANCH   9  10
HETATM   10  C   UNL     1     -12.439  10.843  69.972  1.00  0.00    -0.332 C  
BRANCH  10  11
HETATM   11  C   UNL     1     -11.378  10.558  68.913  1.00  0.00    -0.313 C  
BRANCH  11  12
HETATM   12  C   UNL     1     -11.559  11.476  67.709  1.00  0.00    -0.338 C  
BRANCH  12  13
HETATM   13  C   UNL     1     -11.547  12.944  68.126  1.00  0.00    -0.378 C  
BRANCH  13  14
HETATM   14  C   UNL     1     -12.094  13.827  67.006  1.00  0.00    -0.436 C  
BRANCH  14  15
HETATM   15  C   UNL     1     -12.329  13.023  65.731  1.00  0.00    -0.477 C  
HETATM   16  C   UNL     1     -12.206  13.885  64.496  1.00  0.00    -0.417 C  
HETATM   17  O   UNL     1     -12.411  13.180  63.359  1.00  0.00    -0.730 OA 
HETATM   18  O   UNL     1     -11.953  15.079  64.487  1.00  0.00    -0.440 OA 
ENDBRANCH  14  15
ENDBRANCH  13  14
ENDBRANCH  12  13
ENDBRANCH  11  12
ENDBRANCH  10  11
ENDBRANCH   9  10
ENDBRANCH   8   9
ENDBRANCH   7   8
ENDBRANCH   6   7
ENDBRANCH   5   6
ENDBRANCH   4   5
ENDBRANCH   3   4
ENDBRANCH   2   3
TORSDOF 13
ENDMDL
MODEL       50
REMARK 921   NORMALIZED FREE ENERGY PREDICTED BY IDOCK:   -4.15 KCAL/MOL
REMARK 922        TOTAL FREE ENERGY PREDICTED BY IDOCK:   -8.70 KCAL/MOL
REMARK 923 INTER-LIGAND FREE ENERGY PREDICTED BY IDOCK:   -7.08 KCAL/MOL
REMARK 924 INTRA-LIGAND FREE ENERGY PREDICTED BY IDOCK:   -1.62 KCAL/MOL
REMARK 927      BINDING AFFINITY PREDICTED BY RF-SCORE:    0.00 PKD
ROOT
HETATM    1  C   UNL     1     -12.671  11.699  71.198  1.00  0.00    -0.426 C  
HETATM    2  C   UNL     1     -11.697  10.596  70.819  1.00  0.00    -0.435 C  
ENDROOT
BRANCH   2   3
HETATM    3  C   UNL     1     -10.926  10.954  69.552  1.00  0.00    -0.306 C  
BRANCH   3   4
HETATM    4  C   UNL     1     -11.596  12.104  68.806  1.00  0.00    -0.380 C  
BRANCH   4   5
HETATM    5  C   UNL     1     -11.524  11.888  67.297  1.00  0.00    -0.385 C  
BRANCH   5   6
HETATM    6  C   UNL     1     -12.281  12.983  66.552  1.00  0.00    -0.316 C  
BRANCH   6   7
HETATM    7  C   UNL     1     -12.317  12.692  65.055  1.00  0.00    -0.561 C  
BRANCH   7   8
HETATM    8  C   UNL     1     -12.076  13.963  64.250  1.00  0.00    -0.477 C  
BRANCH   8   9
HETATM    9  C   UNL     1     -10.857  14.714  64.778  1.00  0.00    -0.402 C  
BRANCH   9  10
HETATM   10  C   UNL     1     -11.129  16.212  64.834  1.00  0.00    -0.336 C  
BRANCH  10  11
HETATM   11  C   UNL     1     -10.306  16.877  65.933  1.00  0.00    -0.327 C  
BRANCH  11  12
HETATM   12  C   UNL     1     -10.204  15.968  67.153  1.00  0.00    -0.278 C  
BRANCH  12  13
HETATM   13  C   UNL     1     -10.873  16.600  68.371  1.00  0.00    -0.361 C  
BRANCH  13  14
HETATM   14  C   UNL     1     -11.811  15.604  69.048  1.00  0.00    -0.379 C  
BRANCH  14  15
HETATM   15  C   UNL     1     -11.465  15.431  70.524  1.00  0.00    -0.354 C  
HETATM   16  C   UNL     1     -12.697  15.482  71.397  1.00  0.00    -0.451 C  
HETATM   17  O   UNL     1     -12.400  15.328  72.709  1.00  0.00    -0.341 OA 
HETATM   18  O   UNL     1     -13.840  15.641  71.001  1.00  0.00    -0.567 OA 
ENDBRANCH  14  15
ENDBRANCH  13  14
ENDBRANCH  12  13
ENDBRANCH  11  12
ENDBRANCH  10  11
ENDBRANCH   9  10
ENDBRANCH   8   9
ENDBRANCH   7   8
ENDBRANCH   6   7
ENDBRANCH   5   6
ENDBRANCH   4   5
ENDBRANCH   3   4
ENDBRANCH   2   3
TORSDOF 13
ENDMDL
MODEL       51
REMARK 921   NORMALIZED FREE ENERGY PREDICTED BY IDOCK:   -4.13 KCAL/MOL
REMARK 922        TOTAL FREE ENERGY PREDICTED BY IDOCK:   -8.68 KCAL/MOL
REMARK 923 INTER-LIGAND FREE ENERGY PREDICTED BY IDOCK:   -6.95 KCAL/MOL
REMARK 924 INTRA-LIGAND FREE ENERGY PREDICTED BY IDOCK:   -1.73 KCAL/MOL
REMARK 927      BINDING AFFINITY PREDICTED BY RF-SCORE:    0.00 PKD
ROOT
HETATM    1  C   UNL     1     -12.126  11.375  69.330  1.00  0.00    -0.356 C  
HETATM    2  C   UNL     1     -11.779  10.609  70.595  1.00  0.00    -0.454 C  
ENDROOT
BRANCH   2   3
HETATM    3  C   UNL     1     -12.979  10.524  71.534  1.00  0.00    -0.565 C  
BRANCH   3   4
HETATM    4  C   UNL     1     -13.167   9.104  72.060  1.00  0.00    -0.505 C  
BRANCH   4   5
HETATM    5  C   UNL     1     -11.881   8.295  71.909  1.00  0.00    -0.380 C  
BRANCH   5   6
HETATM    6  C   UNL     1     -12.130   7.021  71.107  1.00  0.00    -0.412 C  
BRANCH   6   7
HETATM    7  C   UNL     1     -10.814   6.321  70.784  1.00  0.00    -0.339 C  
BRANCH   7   8
HETATM    8  C   UNL     1     -10.092   7.026  69.642  1.00  0.00    -0.194 C  
BRANCH   8   9
HETATM    9  C   UNL     1     -10.817   6.796  68.320  1.00  0.00    -0.290 C  
BRANCH   9  10
HETATM   10  C   UNL     1     -10.391   7.829  67.283  1.00  0.00    -0.371 C  
BRANCH  10  11
HETATM   11  C   UNL     1      -9.681   9.007  67.944  1.00  0.00    -0.185 C  
BRANCH  11  12
HETATM   12  C   UNL     1      -9.481  10.143  66.947  1.00  0.00    -0.203 C  
BRANCH  12  13
HETATM   13  C   UNL     1     -10.026   9.773  65.570  1.00  0.00    -0.329 C  
BRANCH  13  14
HETATM   14  C   UNL     1     -10.510  11.017  64.829  1.00  0.00    -0.384 C  
BRANCH  14  15
HETATM   15  C   UNL     1     -10.895  12.127  65.803  1.00  0.00    -0.319 C  
HETATM   16  C   UNL     1     -12.221  12.754  65.440  1.00  0.00    -0.478 C  
HETATM   17  O   UNL     1     -12.571  13.740  66.300  1.00  0.00    -0.416 OA 
HETATM   18  O   UNL     1     -12.919  12.437  64.492  1.00  0.00    -0.770 OA 
ENDBRANCH  14  15
ENDBRANCH  13  14
ENDBRANCH  12  13
ENDBRANCH  11  12
ENDBRANCH  10  11
ENDBRANCH   9  10
ENDBRANCH   8   9
ENDBRANCH   7   8
ENDBRANCH   6   7
ENDBRANCH   5   6
ENDBRANCH   4   5
ENDBRANCH   3   4
ENDBRANCH   2   3
TORSDOF 13
ENDMDL
MODEL       52
REMARK 921   NORMALIZED FREE ENERGY PREDICTED BY IDOCK:   -4.12 KCAL/MOL
REMARK 922        TOTAL FREE ENERGY PREDICTED BY IDOCK:   -8.66 KCAL/MOL
REMARK 923 INTER-LIGAND FREE ENERGY PREDICTED BY IDOCK:   -7.39 KCAL/MOL
REMARK 924 INTRA-LIGAND FREE ENERGY PREDICTED BY IDOCK:   -1.26 KCAL/MOL
REMARK 927      BINDING AFFINITY PREDICTED BY RF-SCORE:    0.00 PKD
ROOT
HETATM    1  C   UNL     1     -12.778   9.725  71.738  1.00  0.00    -0.519 C  
HETATM    2  C   UNL     1     -12.083   8.455  72.199  1.00  0.00    -0.435 C  
ENDROOT
BRANCH   2   3
HETATM    3  C   UNL     1     -12.463   7.268  71.316  1.00  0.00    -0.402 C  
BRANCH   3   4
HETATM    4  C   UNL     1     -11.366   6.207  71.319  1.00  0.00    -0.335 C  
BRANCH   4   5
HETATM    5  C   UNL     1     -10.877   5.928  69.900  1.00  0.00    -0.439 C  
BRANCH   5   6
HETATM    6  C   UNL     1     -11.359   7.007  68.936  1.00  0.00     0.065 C  
BRANCH   6   7
HETATM    7  C   UNL     1     -10.301   7.294  67.875  1.00  0.00    -0.253 C  
BRANCH   7   8
HETATM    8  C   UNL     1     -10.232   8.785  67.568  1.00  0.00    -0.309 C  
BRANCH   8   9
HETATM    9  C   UNL     1     -10.646   9.607  68.785  1.00  0.00    -0.242 C  
BRANCH   9  10
HETATM   10  C   UNL     1     -11.392  10.865  68.358  1.00  0.00    -0.370 C  
BRANCH  10  11
HETATM   11  C   UNL     1     -11.043  11.248  66.923  1.00  0.00    -0.339 C  
BRANCH  11  12
HETATM   12  C   UNL     1     -11.738  12.548  66.529  1.00  0.00    -0.454 C  
BRANCH  12  13
HETATM   13  C   UNL     1     -12.264  12.482  65.098  1.00  0.00    -0.509 C  
BRANCH  13  14
HETATM   14  C   UNL     1     -11.701  13.630  64.263  1.00  0.00    -0.438 C  
BRANCH  14  15
HETATM   15  C   UNL     1     -10.818  14.546  65.104  1.00  0.00    -0.407 C  
HETATM   16  C   UNL     1     -11.004  15.998  64.731  1.00  0.00    -0.356 C  
HETATM   17  O   UNL     1     -10.225  16.820  65.474  1.00  0.00    -0.567 OA 
HETATM   18  O   UNL     1     -11.757  16.418  63.868  1.00  0.00    -1.085 OA 
ENDBRANCH  14  15
ENDBRANCH  13  14
ENDBRANCH  12  13
ENDBRANCH  11  12
ENDBRANCH  10  11
ENDBRANCH   9  10
ENDBRANCH   8   9
ENDBRANCH   7   8
ENDBRANCH   6   7
ENDBRANCH   5   6
ENDBRANCH   4   5
ENDBRANCH   3   4
ENDBRANCH   2   3
TORSDOF 13
ENDMDL
MODEL       53
REMARK 921   NORMALIZED FREE ENERGY PREDICTED BY IDOCK:   -4.11 KCAL/MOL
REMARK 922        TOTAL FREE ENERGY PREDICTED BY IDOCK:   -8.63 KCAL/MOL
REMARK 923 INTER-LIGAND FREE ENERGY PREDICTED BY IDOCK:   -6.76 KCAL/MOL
REMARK 924 INTRA-LIGAND FREE ENERGY PREDICTED BY IDOCK:   -1.87 KCAL/MOL
REMARK 927      BINDING AFFINITY PREDICTED BY RF-SCORE:    0.00 PKD
ROOT
HETATM    1  C   UNL     1      -7.313  14.460  68.237  1.00  0.00    -0.122 C  
HETATM    2  C   UNL     1      -7.098  15.964  68.232  1.00  0.00    -0.119 C  
ENDROOT
BRANCH   2   3
HETATM    3  C   UNL     1      -7.237  16.536  66.823  1.00  0.00    -0.260 C  
BRANCH   3   4
HETATM    4  C   UNL     1      -6.890  18.022  66.795  1.00  0.00    -0.228 C  
BRANCH   4   5
HETATM    5  C   UNL     1      -6.843  18.594  68.209  1.00  0.00    -0.257 C  
BRANCH   5   6
HETATM    6  C   UNL     1      -7.350  20.033  68.232  1.00  0.00    -0.295 C  
BRANCH   6   7
HETATM    7  C   UNL     1      -8.361  20.266  67.114  1.00  0.00    -0.394 C  
BRANCH   7   8
HETATM    8  C   UNL     1      -9.784  20.253  67.659  1.00  0.00    -0.555 C  
BRANCH   8   9
HETATM    9  C   UNL     1     -10.548  19.035  67.149  1.00  0.00    -0.545 C  
BRANCH   9  10
HETATM   10  C   UNL     1     -10.499  17.902  68.168  1.00  0.00    -0.380 C  
BRANCH  10  11
HETATM   11  C   UNL     1     -10.642  16.546  67.484  1.00  0.00    -0.313 C  
BRANCH  11  12
HETATM   12  C   UNL     1     -11.443  15.585  68.357  1.00  0.00    -0.370 C  
BRANCH  12  13
HETATM   13  C   UNL     1     -11.828  14.326  67.586  1.00  0.00    -0.420 C  
BRANCH  13  14
HETATM   14  C   UNL     1     -11.061  14.246  66.267  1.00  0.00    -0.323 C  
BRANCH  14  15
HETATM   15  C   UNL     1     -11.604  13.131  65.378  1.00  0.00    -0.362 C  
HETATM   16  C   UNL     1     -12.253  13.679  64.128  1.00  0.00    -0.399 C  
HETATM   17  O   UNL     1     -12.736  12.697  63.331  1.00  0.00    -0.705 OA 
HETATM   18  O   UNL     1     -12.350  14.861  63.839  1.00  0.00    -0.711 OA 
ENDBRANCH  14  15
ENDBRANCH  13  14
ENDBRANCH  12  13
ENDBRANCH  11  12
ENDBRANCH  10  11
ENDBRANCH   9  10
ENDBRANCH   8   9
ENDBRANCH   7   8
ENDBRANCH   6   7
ENDBRANCH   5   6
ENDBRANCH   4   5
ENDBRANCH   3   4
ENDBRANCH   2   3
TORSDOF 13
ENDMDL
MODEL       54
REMARK 921   NORMALIZED FREE ENERGY PREDICTED BY IDOCK:   -4.10 KCAL/MOL
REMARK 922        TOTAL FREE ENERGY PREDICTED BY IDOCK:   -8.62 KCAL/MOL
REMARK 923 INTER-LIGAND FREE ENERGY PREDICTED BY IDOCK:   -7.44 KCAL/MOL
REMARK 924 INTRA-LIGAND FREE ENERGY PREDICTED BY IDOCK:   -1.18 KCAL/MOL
REMARK 927      BINDING AFFINITY PREDICTED BY RF-SCORE:    0.00 PKD
ROOT
HETATM    1  C   UNL     1     -13.612   7.505  71.662  1.00  0.00    -0.442 C  
HETATM    2  C   UNL     1     -13.043   8.643  72.492  1.00  0.00    -0.339 C  
ENDROOT
BRANCH   2   3
HETATM    3  C   UNL     1     -12.956   9.931  71.677  1.00  0.00    -0.536 C  
BRANCH   3   4
HETATM    4  C   UNL     1     -11.701   9.950  70.810  1.00  0.00    -0.424 C  
BRANCH   4   5
HETATM    5  C   UNL     1     -11.667  11.197  69.931  1.00  0.00    -0.433 C  
BRANCH   5   6
HETATM    6  C   UNL     1     -12.324  12.379  70.637  1.00  0.00    -0.367 C  
BRANCH   6   7
HETATM    7  C   UNL     1     -12.115  13.665  69.844  1.00  0.00    -0.406 C  
BRANCH   7   8
HETATM    8  C   UNL     1     -12.477  14.884  70.684  1.00  0.00    -0.411 C  
BRANCH   8   9
HETATM    9  C   UNL     1     -11.265  15.792  70.870  1.00  0.00    -0.404 C  
BRANCH   9  10
HETATM   10  C   UNL     1     -10.187  15.470  69.841  1.00  0.00    -0.305 C  
BRANCH  10  11
HETATM   11  C   UNL     1     -10.217  16.469  68.688  1.00  0.00    -0.264 C  
BRANCH  11  12
HETATM   12  C   UNL     1     -10.505  15.759  67.369  1.00  0.00    -0.297 C  
BRANCH  12  13
HETATM   13  C   UNL     1      -9.711  14.461  67.254  1.00  0.00    -0.233 C  
BRANCH  13  14
HETATM   14  C   UNL     1     -10.406  13.486  66.307  1.00  0.00    -0.293 C  
BRANCH  14  15
HETATM   15  C   UNL     1     -10.778  14.162  64.990  1.00  0.00    -0.429 C  
HETATM   16  C   UNL     1     -12.238  13.963  64.653  1.00  0.00    -0.419 C  
HETATM   17  O   UNL     1     -12.578  14.561  63.487  1.00  0.00    -0.746 OA 
HETATM   18  O   UNL     1     -13.043  13.342  65.328  1.00  0.00    -0.687 OA 
ENDBRANCH  14  15
ENDBRANCH  13  14
ENDBRANCH  12  13
ENDBRANCH  11  12
ENDBRANCH  10  11
ENDBRANCH   9  10
ENDBRANCH   8   9
ENDBRANCH   7   8
ENDBRANCH   6   7
ENDBRANCH   5   6
ENDBRANCH   4   5
ENDBRANCH   3   4
ENDBRANCH   2   3
TORSDOF 13
ENDMDL
MODEL       55
REMARK 921   NORMALIZED FREE ENERGY PREDICTED BY IDOCK:   -4.09 KCAL/MOL
REMARK 922        TOTAL FREE ENERGY PREDICTED BY IDOCK:   -8.60 KCAL/MOL
REMARK 923 INTER-LIGAND FREE ENERGY PREDICTED BY IDOCK:   -6.78 KCAL/MOL
REMARK 924 INTRA-LIGAND FREE ENERGY PREDICTED BY IDOCK:   -1.82 KCAL/MOL
REMARK 927      BINDING AFFINITY PREDICTED BY RF-SCORE:    0.00 PKD
ROOT
HETATM    1  C   UNL     1     -11.326  14.751  65.759  1.00  0.00    -0.336 C  
HETATM    2  C   UNL     1     -12.659  14.087  65.458  1.00  0.00    -0.543 C  
ENDROOT
BRANCH   2   3
HETATM    3  C   UNL     1     -12.466  12.641  65.010  1.00  0.00    -0.556 C  
BRANCH   3   4
HETATM    4  C   UNL     1     -11.888  12.575  63.599  1.00  0.00    -0.610 C  
BRANCH   4   5
HETATM    5  C   UNL     1     -10.673  11.653  63.553  1.00  0.00    -0.495 C  
BRANCH   5   6
HETATM    6  C   UNL     1      -9.999  11.570  64.919  1.00  0.00    -0.303 C  
BRANCH   6   7
HETATM    7  C   UNL     1      -9.826  10.116  65.348  1.00  0.00    -0.375 C  
BRANCH   7   8
HETATM    8  C   UNL     1     -10.378   9.897  66.751  1.00  0.00    -0.285 C  
BRANCH   8   9
HETATM    9  C   UNL     1     -10.229  11.159  67.594  1.00  0.00    -0.208 C  
BRANCH   9  10
HETATM   10  C   UNL     1     -10.597  10.884  69.048  1.00  0.00    -0.248 C  
BRANCH  10  11
HETATM   11  C   UNL     1     -11.845  11.662  69.452  1.00  0.00    -0.408 C  
BRANCH  11  12
HETATM   12  C   UNL     1     -11.777  13.095  68.936  1.00  0.00    -0.368 C  
BRANCH  12  13
HETATM   13  C   UNL     1     -12.172  14.093  70.021  1.00  0.00    -0.418 C  
BRANCH  13  14
HETATM   14  C   UNL     1     -11.902  15.524  69.562  1.00  0.00    -0.390 C  
BRANCH  14  15
HETATM   15  C   UNL     1     -10.413  15.852  69.618  1.00  0.00    -0.295 C  
HETATM   16  C   UNL     1     -10.046  16.953  68.650  1.00  0.00    -0.291 C  
HETATM   17  O   UNL     1      -8.727  17.252  68.694  1.00  0.00    -0.272 OA 
HETATM   18  O   UNL     1     -10.821  17.526  67.902  1.00  0.00    -0.374 OA 
ENDBRANCH  14  15
ENDBRANCH  13  14
ENDBRANCH  12  13
ENDBRANCH  11  12
ENDBRANCH  10  11
ENDBRANCH   9  10
ENDBRANCH   8   9
ENDBRANCH   7   8
ENDBRANCH   6   7
ENDBRANCH   5   6
ENDBRANCH   4   5
ENDBRANCH   3   4
ENDBRANCH   2   3
TORSDOF 13
ENDMDL
MODEL       56
REMARK 921   NORMALIZED FREE ENERGY PREDICTED BY IDOCK:   -4.09 KCAL/MOL
REMARK 922        TOTAL FREE ENERGY PREDICTED BY IDOCK:   -8.60 KCAL/MOL
REMARK 923 INTER-LIGAND FREE ENERGY PREDICTED BY IDOCK:   -6.99 KCAL/MOL
REMARK 924 INTRA-LIGAND FREE ENERGY PREDICTED BY IDOCK:   -1.61 KCAL/MOL
REMARK 927      BINDING AFFINITY PREDICTED BY RF-SCORE:    0.00 PKD
ROOT
HETATM    1  C   UNL     1     -13.929   7.247  71.575  1.00  0.00    -0.486 C  
HETATM    2  C   UNL     1     -14.239   8.708  71.853  1.00  0.00    -0.507 C  
ENDROOT
BRANCH   2   3
HETATM    3  C   UNL     1     -12.958   9.514  72.054  1.00  0.00    -0.514 C  
BRANCH   3   4
HETATM    4  C   UNL     1     -13.222  11.011  71.909  1.00  0.00    -0.503 C  
BRANCH   4   5
HETATM    5  C   UNL     1     -12.360  11.608  70.800  1.00  0.00    -0.454 C  
BRANCH   5   6
HETATM    6  C   UNL     1     -11.375  10.577  70.259  1.00  0.00    -0.407 C  
BRANCH   6   7
HETATM    7  C   UNL     1     -11.358  10.596  68.734  1.00  0.00    -0.339 C  
BRANCH   7   8
HETATM    8  C   UNL     1     -10.489   9.469  68.188  1.00  0.00    -0.268 C  
BRANCH   8   9
HETATM    9  C   UNL     1      -9.374  10.025  67.308  1.00  0.00    -0.170 C  
BRANCH   9  10
HETATM   10  C   UNL     1      -8.448  10.927  68.115  1.00  0.00    -0.131 C  
BRANCH  10  11
HETATM   11  C   UNL     1      -8.125  12.206  67.349  1.00  0.00    -0.171 C  
BRANCH  11  12
HETATM   12  C   UNL     1      -9.119  13.309  67.699  1.00  0.00    -0.204 C  
BRANCH  12  13
HETATM   13  C   UNL     1      -9.834  13.826  66.454  1.00  0.00    -0.305 C  
BRANCH  13  14
HETATM   14  C   UNL     1     -11.316  13.462  66.493  1.00  0.00    -0.346 C  
BRANCH  14  15
HETATM   15  C   UNL     1     -11.650  12.389  65.460  1.00  0.00    -0.432 C  
HETATM   16  C   UNL     1     -12.513  12.935  64.346  1.00  0.00    -0.375 C  
HETATM   17  O   UNL     1     -12.814  11.991  63.424  1.00  0.00    -0.760 OA 
HETATM   18  O   UNL     1     -12.911  14.085  64.256  1.00  0.00    -0.612 OA 
ENDBRANCH  14  15
ENDBRANCH  13  14
ENDBRANCH  12  13
ENDBRANCH  11  12
ENDBRANCH  10  11
ENDBRANCH   9  10
ENDBRANCH   8   9
ENDBRANCH   7   8
ENDBRANCH   6   7
ENDBRANCH   5   6
ENDBRANCH   4   5
ENDBRANCH   3   4
ENDBRANCH   2   3
TORSDOF 13
ENDMDL
MODEL       57
REMARK 921   NORMALIZED FREE ENERGY PREDICTED BY IDOCK:   -4.09 KCAL/MOL
REMARK 922        TOTAL FREE ENERGY PREDICTED BY IDOCK:   -8.60 KCAL/MOL
REMARK 923 INTER-LIGAND FREE ENERGY PREDICTED BY IDOCK:   -6.78 KCAL/MOL
REMARK 924 INTRA-LIGAND FREE ENERGY PREDICTED BY IDOCK:   -1.81 KCAL/MOL
REMARK 927      BINDING AFFINITY PREDICTED BY RF-SCORE:    0.00 PKD
ROOT
HETATM    1  C   UNL     1      -9.965  10.509  64.518  1.00  0.00    -0.413 C  
HETATM    2  C   UNL     1     -10.273  11.525  63.432  1.00  0.00    -0.462 C  
ENDROOT
BRANCH   2   3
HETATM    3  C   UNL     1     -11.755  11.892  63.426  1.00  0.00    -0.500 C  
BRANCH   3   4
HETATM    4  C   UNL     1     -11.989  13.247  64.087  1.00  0.00    -0.505 C  
BRANCH   4   5
HETATM    5  C   UNL     1     -12.655  13.078  65.450  1.00  0.00    -0.481 C  
BRANCH   5   6
HETATM    6  C   UNL     1     -11.927  13.888  66.517  1.00  0.00    -0.470 C  
BRANCH   6   7
HETATM    7  C   UNL     1     -10.565  13.273  66.826  1.00  0.00    -0.276 C  
BRANCH   7   8
HETATM    8  C   UNL     1      -9.457  14.310  66.682  1.00  0.00    -0.302 C  
BRANCH   8   9
HETATM    9  C   UNL     1      -9.884  15.644  67.287  1.00  0.00    -0.225 C  
BRANCH   9  10
HETATM   10  C   UNL     1      -9.738  15.620  68.804  1.00  0.00    -0.212 C  
BRANCH  10  11
HETATM   11  C   UNL     1     -10.640  16.663  69.457  1.00  0.00    -0.308 C  
BRANCH  11  12
HETATM   12  C   UNL     1     -11.457  16.038  70.583  1.00  0.00    -0.427 C  
BRANCH  12  13
HETATM   13  C   UNL     1     -12.414  14.976  70.049  1.00  0.00    -0.317 C  
BRANCH  13  14
HETATM   14  C   UNL     1     -12.452  13.766  70.980  1.00  0.00    -0.458 C  
BRANCH  14  15
HETATM   15  C   UNL     1     -11.871  12.528  70.304  1.00  0.00    -0.305 C  
HETATM   16  C   UNL     1     -12.404  11.255  70.919  1.00  0.00    -0.388 C  
HETATM   17  O   UNL     1     -11.895  10.150  70.324  1.00  0.00    -0.266 OA 
HETATM   18  O   UNL     1     -13.198  11.191  71.843  1.00  0.00    -0.470 OA 
ENDBRANCH  14  15
ENDBRANCH  13  14
ENDBRANCH  12  13
ENDBRANCH  11  12
ENDBRANCH  10  11
ENDBRANCH   9  10
ENDBRANCH   8   9
ENDBRANCH   7   8
ENDBRANCH   6   7
ENDBRANCH   5   6
ENDBRANCH   4   5
ENDBRANCH   3   4
ENDBRANCH   2   3
TORSDOF 13
ENDMDL
MODEL       58
REMARK 921   NORMALIZED FREE ENERGY PREDICTED BY IDOCK:   -4.08 KCAL/MOL
REMARK 922        TOTAL FREE ENERGY PREDICTED BY IDOCK:   -8.59 KCAL/MOL
REMARK 923 INTER-LIGAND FREE ENERGY PREDICTED BY IDOCK:   -7.33 KCAL/MOL
REMARK 924 INTRA-LIGAND FREE ENERGY PREDICTED BY IDOCK:   -1.26 KCAL/MOL
REMARK 927      BINDING AFFINITY PREDICTED BY RF-SCORE:    0.00 PKD
ROOT
HETATM    1  C   UNL     1     -11.328   9.528  71.333  1.00  0.00    -0.462 C  
HETATM    2  C   UNL     1     -12.369  10.625  71.184  1.00  0.00    -0.505 C  
ENDROOT
BRANCH   2   3
HETATM    3  C   UNL     1     -11.916  11.680  70.177  1.00  0.00    -0.441 C  
BRANCH   3   4
HETATM    4  C   UNL     1     -11.869  11.107  68.763  1.00  0.00    -0.388 C  
BRANCH   4   5
HETATM    5  C   UNL     1     -11.413  12.166  67.763  1.00  0.00    -0.398 C  
BRANCH   5   6
HETATM    6  C   UNL     1     -11.106  11.540  66.407  1.00  0.00    -0.328 C  
BRANCH   6   7
HETATM    7  C   UNL     1     -11.909  12.221  65.304  1.00  0.00    -0.411 C  
BRANCH   7   8
HETATM    8  C   UNL     1     -12.329  13.624  65.727  1.00  0.00    -0.524 C  
BRANCH   8   9
HETATM    9  C   UNL     1     -12.326  14.572  64.532  1.00  0.00    -0.434 C  
BRANCH   9  10
HETATM   10  C   UNL     1     -11.253  15.643  64.695  1.00  0.00    -0.380 C  
BRANCH  10  11
HETATM   11  C   UNL     1      -9.996  15.065  65.338  1.00  0.00    -0.365 C  
BRANCH  11  12
HETATM   12  C   UNL     1      -9.351  16.085  66.270  1.00  0.00    -0.356 C  
BRANCH  12  13
HETATM   13  C   UNL     1      -9.850  15.919  67.703  1.00  0.00    -0.233 C  
BRANCH  13  14
HETATM   14  C   UNL     1     -10.735  17.095  68.106  1.00  0.00    -0.366 C  
BRANCH  14  15
HETATM   15  C   UNL     1     -10.530  18.288  67.177  1.00  0.00    -0.417 C  
HETATM   16  C   UNL     1     -10.162  19.537  67.943  1.00  0.00    -0.431 C  
HETATM   17  O   UNL     1      -9.976  20.600  67.126  1.00  0.00    -0.452 OA 
HETATM   18  O   UNL     1     -10.040  19.615  69.155  1.00  0.00    -0.438 OA 
ENDBRANCH  14  15
ENDBRANCH  13  14
ENDBRANCH  12  13
ENDBRANCH  11  12
ENDBRANCH  10  11
ENDBRANCH   9  10
ENDBRANCH   8   9
ENDBRANCH   7   8
ENDBRANCH   6   7
ENDBRANCH   5   6
ENDBRANCH   4   5
ENDBRANCH   3   4
ENDBRANCH   2   3
TORSDOF 13
ENDMDL
MODEL       59
REMARK 921   NORMALIZED FREE ENERGY PREDICTED BY IDOCK:   -4.08 KCAL/MOL
REMARK 922        TOTAL FREE ENERGY PREDICTED BY IDOCK:   -8.59 KCAL/MOL
REMARK 923 INTER-LIGAND FREE ENERGY PREDICTED BY IDOCK:   -6.80 KCAL/MOL
REMARK 924 INTRA-LIGAND FREE ENERGY PREDICTED BY IDOCK:   -1.79 KCAL/MOL
REMARK 927      BINDING AFFINITY PREDICTED BY RF-SCORE:    0.00 PKD
ROOT
HETATM    1  C   UNL     1      -9.819  14.935  65.780  1.00  0.00    -0.380 C  
HETATM    2  C   UNL     1     -11.062  14.765  66.638  1.00  0.00    -0.333 C  
ENDROOT
BRANCH   2   3
HETATM    3  C   UNL     1     -12.188  14.102  65.849  1.00  0.00    -0.458 C  
BRANCH   3   4
HETATM    4  C   UNL     1     -12.155  14.523  64.383  1.00  0.00    -0.492 C  
BRANCH   4   5
HETATM    5  C   UNL     1     -12.344  13.316  63.468  1.00  0.00    -0.442 C  
BRANCH   5   6
HETATM    6  C   UNL     1     -11.813  12.046  64.124  1.00  0.00    -0.462 C  
BRANCH   6   7
HETATM    7  C   UNL     1     -10.347  11.826  63.766  1.00  0.00    -0.451 C  
BRANCH   7   8
HETATM    8  C   UNL     1      -9.597  11.179  64.925  1.00  0.00    -0.279 C  
BRANCH   8   9
HETATM    9  C   UNL     1     -10.523  10.974  66.120  1.00  0.00    -0.301 C  
BRANCH   9  10
HETATM   10  C   UNL     1      -9.730  10.962  67.421  1.00  0.00    -0.190 C  
BRANCH  10  11
HETATM   11  C   UNL     1     -10.609  10.539  68.594  1.00  0.00    -0.226 C  
BRANCH  11  12
HETATM   12  C   UNL     1     -11.799  11.481  68.742  1.00  0.00    -0.394 C  
BRANCH  12  13
HETATM   13  C   UNL     1     -12.101  11.765  70.211  1.00  0.00    -0.426 C  
BRANCH  13  14
HETATM   14  C   UNL     1     -11.918  10.504  71.052  1.00  0.00    -0.466 C  
BRANCH  14  15
HETATM   15  C   UNL     1     -13.260   9.861  71.388  1.00  0.00    -0.487 C  
HETATM   16  C   UNL     1     -13.142   8.361  71.528  1.00  0.00    -0.296 C  
HETATM   17  O   UNL     1     -14.328   7.782  71.827  1.00  0.00    -0.419 OA 
HETATM   18  O   UNL     1     -12.115   7.715  71.394  1.00  0.00    -0.298 OA 
ENDBRANCH  14  15
ENDBRANCH  13  14
ENDBRANCH  12  13
ENDBRANCH  11  12
ENDBRANCH  10  11
ENDBRANCH   9  10
ENDBRANCH   8   9
ENDBRANCH   7   8
ENDBRANCH   6   7
ENDBRANCH   5   6
ENDBRANCH   4   5
ENDBRANCH   3   4
ENDBRANCH   2   3
TORSDOF 13
ENDMDL
MODEL       60
REMARK 921   NORMALIZED FREE ENERGY PREDICTED BY IDOCK:   -4.08 KCAL/MOL
REMARK 922        TOTAL FREE ENERGY PREDICTED BY IDOCK:   -8.59 KCAL/MOL
REMARK 923 INTER-LIGAND FREE ENERGY PREDICTED BY IDOCK:   -7.28 KCAL/MOL
REMARK 924 INTRA-LIGAND FREE ENERGY PREDICTED BY IDOCK:   -1.31 KCAL/MOL
REMARK 927      BINDING AFFINITY PREDICTED BY RF-SCORE:    0.00 PKD
ROOT
HETATM    1  C   UNL     1     -13.096  11.367  71.745  1.00  0.00    -0.523 C  
HETATM    2  C   UNL     1     -13.269   9.968  71.179  1.00  0.00    -0.441 C  
ENDROOT
BRANCH   2   3
HETATM    3  C   UNL     1     -13.086   8.909  72.263  1.00  0.00    -0.491 C  
BRANCH   3   4
HETATM    4  C   UNL     1     -11.887   8.014  71.962  1.00  0.00    -0.376 C  
BRANCH   4   5
HETATM    5  C   UNL     1     -12.322   6.761  71.208  1.00  0.00    -0.395 C  
BRANCH   5   6
HETATM    6  C   UNL     1     -11.362   6.452  70.063  1.00  0.00    -0.496 C  
BRANCH   6   7
HETATM    7  C   UNL     1     -10.556   7.692  69.686  1.00  0.00    -0.243 C  
BRANCH   7   8
HETATM    8  C   UNL     1     -10.148   7.647  68.219  1.00  0.00    -0.214 C  
BRANCH   8   9
HETATM    9  C   UNL     1     -10.596   8.912  67.494  1.00  0.00    -0.307 C  
BRANCH   9  10
HETATM   10  C   UNL     1     -10.733  10.073  68.472  1.00  0.00    -0.264 C  
BRANCH  10  11
HETATM   11  C   UNL     1     -11.176  11.344  67.753  1.00  0.00    -0.346 C  
BRANCH  11  12
HETATM   12  C   UNL     1     -11.654  12.390  68.754  1.00  0.00    -0.373 C  
BRANCH  12  13
HETATM   13  C   UNL     1     -11.999  13.705  68.059  1.00  0.00    -0.385 C  
BRANCH  13  14
HETATM   14  C   UNL     1     -11.281  13.809  66.715  1.00  0.00    -0.327 C  
BRANCH  14  15
HETATM   15  C   UNL     1     -12.273  13.991  65.570  1.00  0.00    -0.455 C  
HETATM   16  C   UNL     1     -11.672  13.591  64.242  1.00  0.00    -0.416 C  
HETATM   17  O   UNL     1     -12.545  13.748  63.220  1.00  0.00    -0.830 OA 
HETATM   18  O   UNL     1     -10.538  13.174  64.074  1.00  0.00    -0.402 OA 
ENDBRANCH  14  15
ENDBRANCH  13  14
ENDBRANCH  12  13
ENDBRANCH  11  12
ENDBRANCH  10  11
ENDBRANCH   9  10
ENDBRANCH   8   9
ENDBRANCH   7   8
ENDBRANCH   6   7
ENDBRANCH   5   6
ENDBRANCH   4   5
ENDBRANCH   3   4
ENDBRANCH   2   3
TORSDOF 13
ENDMDL
MODEL       61
REMARK 921   NORMALIZED FREE ENERGY PREDICTED BY IDOCK:   -4.07 KCAL/MOL
REMARK 922        TOTAL FREE ENERGY PREDICTED BY IDOCK:   -8.57 KCAL/MOL
REMARK 923 INTER-LIGAND FREE ENERGY PREDICTED BY IDOCK:   -6.81 KCAL/MOL
REMARK 924 INTRA-LIGAND FREE ENERGY PREDICTED BY IDOCK:   -1.76 KCAL/MOL
REMARK 927      BINDING AFFINITY PREDICTED BY RF-SCORE:    0.00 PKD
ROOT
HETATM    1  C   UNL     1      -9.463   7.577  69.154  1.00  0.00    -0.150 C  
HETATM    2  C   UNL     1     -10.727   7.214  69.913  1.00  0.00    -0.258 C  
ENDROOT
BRANCH   2   3
HETATM    3  C   UNL     1     -10.518   7.334  71.421  1.00  0.00    -0.219 C  
BRANCH   3   4
HETATM    4  C   UNL     1     -10.869   8.734  71.916  1.00  0.00    -0.431 C  
BRANCH   4   5
HETATM    5  C   UNL     1     -12.374   8.874  72.125  1.00  0.00    -0.449 C  
BRANCH   5   6
HETATM    6  C   UNL     1     -12.860  10.250  71.680  1.00  0.00    -0.568 C  
BRANCH   6   7
HETATM    7  C   UNL     1     -11.816  10.934  70.804  1.00  0.00    -0.424 C  
BRANCH   7   8
HETATM    8  C   UNL     1     -12.368  11.197  69.408  1.00  0.00    -0.224 C  
BRANCH   8   9
HETATM    9  C   UNL     1     -11.263  11.096  68.361  1.00  0.00    -0.325 C  
BRANCH   9  10
HETATM   10  C   UNL     1     -11.463  12.134  67.263  1.00  0.00    -0.413 C  
BRANCH  10  11
HETATM   11  C   UNL     1     -10.832  13.468  67.651  1.00  0.00    -0.273 C  
BRANCH  11  12
HETATM   12  C   UNL     1     -11.862  14.590  67.583  1.00  0.00    -0.395 C  
BRANCH  12  13
HETATM   13  C   UNL     1     -11.754  15.514  68.793  1.00  0.00    -0.372 C  
BRANCH  13  14
HETATM   14  C   UNL     1     -11.645  14.703  70.083  1.00  0.00    -0.336 C  
BRANCH  14  15
HETATM   15  C   UNL     1     -12.958  14.719  70.860  1.00  0.00    -0.422 C  
HETATM   16  C   UNL     1     -12.920  15.711  71.999  1.00  0.00    -0.452 C  
HETATM   17  O   UNL     1     -14.082  15.733  72.694  1.00  0.00    -0.578 OA 
HETATM   18  O   UNL     1     -11.973  16.423  72.288  1.00  0.00    -0.524 OA 
ENDBRANCH  14  15
ENDBRANCH  13  14
ENDBRANCH  12  13
ENDBRANCH  11  12
ENDBRANCH  10  11
ENDBRANCH   9  10
ENDBRANCH   8   9
ENDBRANCH   7   8
ENDBRANCH   6   7
ENDBRANCH   5   6
ENDBRANCH   4   5
ENDBRANCH   3   4
ENDBRANCH   2   3
TORSDOF 13
ENDMDL
MODEL       62
REMARK 921   NORMALIZED FREE ENERGY PREDICTED BY IDOCK:   -4.06 KCAL/MOL
REMARK 922        TOTAL FREE ENERGY PREDICTED BY IDOCK:   -8.56 KCAL/MOL
REMARK 923 INTER-LIGAND FREE ENERGY PREDICTED BY IDOCK:   -6.86 KCAL/MOL
REMARK 924 INTRA-LIGAND FREE ENERGY PREDICTED BY IDOCK:   -1.70 KCAL/MOL
REMARK 927      BINDING AFFINITY PREDICTED BY RF-SCORE:    0.00 PKD
ROOT
HETATM    1  C   UNL     1     -10.433   6.432  69.949  1.00  0.00    -0.265 C  
HETATM    2  C   UNL     1     -11.848   6.698  70.434  1.00  0.00    -0.407 C  
ENDROOT
BRANCH   2   3
HETATM    3  C   UNL     1     -11.898   6.799  71.956  1.00  0.00    -0.351 C  
BRANCH   3   4
HETATM    4  C   UNL     1     -11.784   8.250  72.416  1.00  0.00    -0.463 C  
BRANCH   4   5
HETATM    5  C   UNL     1     -13.138   8.950  72.344  1.00  0.00    -0.476 C  
BRANCH   5   6
HETATM    6  C   UNL     1     -13.022  10.290  71.624  1.00  0.00    -0.570 C  
BRANCH   6   7
HETATM    7  C   UNL     1     -11.697  10.386  70.875  1.00  0.00    -0.455 C  
BRANCH   7   8
HETATM    8  C   UNL     1     -11.931  10.651  69.392  1.00  0.00    -0.298 C  
BRANCH   8   9
HETATM    9  C   UNL     1     -10.759  10.142  68.560  1.00  0.00    -0.264 C  
BRANCH   9  10
HETATM   10  C   UNL     1     -10.909  10.560  67.102  1.00  0.00    -0.319 C  
BRANCH  10  11
HETATM   11  C   UNL     1     -10.569  12.036  66.919  1.00  0.00    -0.260 C  
BRANCH  11  12
HETATM   12  C   UNL     1     -11.736  12.781  66.278  1.00  0.00    -0.460 C  
BRANCH  12  13
HETATM   13  C   UNL     1     -12.124  14.009  67.096  1.00  0.00    -0.436 C  
BRANCH  13  14
HETATM   14  C   UNL     1     -11.325  14.067  68.396  1.00  0.00    -0.321 C  
BRANCH  14  15
HETATM   15  C   UNL     1     -12.242  14.232  69.603  1.00  0.00    -0.371 C  
HETATM   16  C   UNL     1     -12.023  15.558  70.294  1.00  0.00    -0.374 C  
HETATM   17  O   UNL     1     -12.834  15.715  71.367  1.00  0.00    -0.439 OA 
HETATM   18  O   UNL     1     -11.218  16.410  69.954  1.00  0.00    -0.332 OA 
ENDBRANCH  14  15
ENDBRANCH  13  14
ENDBRANCH  12  13
ENDBRANCH  11  12
ENDBRANCH  10  11
ENDBRANCH   9  10
ENDBRANCH   8   9
ENDBRANCH   7   8
ENDBRANCH   6   7
ENDBRANCH   5   6
ENDBRANCH   4   5
ENDBRANCH   3   4
ENDBRANCH   2   3
TORSDOF 13
ENDMDL
MODEL       63
REMARK 921   NORMALIZED FREE ENERGY PREDICTED BY IDOCK:   -4.06 KCAL/MOL
REMARK 922        TOTAL FREE ENERGY PREDICTED BY IDOCK:   -8.56 KCAL/MOL
REMARK 923 INTER-LIGAND FREE ENERGY PREDICTED BY IDOCK:   -6.96 KCAL/MOL
REMARK 924 INTRA-LIGAND FREE ENERGY PREDICTED BY IDOCK:   -1.60 KCAL/MOL
REMARK 927      BINDING AFFINITY PREDICTED BY RF-SCORE:    0.00 PKD
ROOT
HETATM    1  C   UNL     1     -10.631  18.816  66.653  1.00  0.00    -0.446 C  
HETATM    2  C   UNL     1      -9.929  20.115  66.296  1.00  0.00    -0.557 C  
ENDROOT
BRANCH   2   3
HETATM    3  C   UNL     1      -8.747  20.377  67.226  1.00  0.00    -0.429 C  
BRANCH   3   4
HETATM    4  C   UNL     1      -8.719  19.374  68.376  1.00  0.00    -0.397 C  
BRANCH   4   5
HETATM    5  C   UNL     1      -7.299  18.873  68.624  1.00  0.00    -0.343 C  
BRANCH   5   6
HETATM    6  C   UNL     1      -7.264  17.351  68.706  1.00  0.00    -0.249 C  
BRANCH   6   7
HETATM    7  C   UNL     1      -7.571  16.731  67.346  1.00  0.00    -0.188 C  
BRANCH   7   8
HETATM    8  C   UNL     1      -8.701  15.713  67.457  1.00  0.00    -0.189 C  
BRANCH   8   9
HETATM    9  C   UNL     1      -9.305  15.728  68.857  1.00  0.00    -0.228 C  
BRANCH   9  10
HETATM   10  C   UNL     1     -10.811  15.954  68.792  1.00  0.00    -0.284 C  
BRANCH  10  11
HETATM   11  C   UNL     1     -11.552  14.964  69.686  1.00  0.00    -0.337 C  
BRANCH  11  12
HETATM   12  C   UNL     1     -11.805  13.656  68.945  1.00  0.00    -0.402 C  
BRANCH  12  13
HETATM   13  C   UNL     1     -12.155  13.907  67.480  1.00  0.00    -0.366 C  
BRANCH  13  14
HETATM   14  C   UNL     1     -11.615  12.785  66.596  1.00  0.00    -0.430 C  
BRANCH  14  15
HETATM   15  C   UNL     1     -12.400  12.682  65.291  1.00  0.00    -0.528 C  
HETATM   16  C   UNL     1     -11.942  13.710  64.283  1.00  0.00    -0.445 C  
HETATM   17  O   UNL     1     -12.631  13.626  63.120  1.00  0.00    -0.792 OA 
HETATM   18  O   UNL     1     -11.060  14.534  64.460  1.00  0.00    -0.349 OA 
ENDBRANCH  14  15
ENDBRANCH  13  14
ENDBRANCH  12  13
ENDBRANCH  11  12
ENDBRANCH  10  11
ENDBRANCH   9  10
ENDBRANCH   8   9
ENDBRANCH   7   8
ENDBRANCH   6   7
ENDBRANCH   5   6
ENDBRANCH   4   5
ENDBRANCH   3   4
ENDBRANCH   2   3
TORSDOF 13
ENDMDL
MODEL       64
REMARK 921   NORMALIZED FREE ENERGY PREDICTED BY IDOCK:   -4.05 KCAL/MOL
REMARK 922        TOTAL FREE ENERGY PREDICTED BY IDOCK:   -8.54 KCAL/MOL
REMARK 923 INTER-LIGAND FREE ENERGY PREDICTED BY IDOCK:   -7.41 KCAL/MOL
REMARK 924 INTRA-LIGAND FREE ENERGY PREDICTED BY IDOCK:   -1.13 KCAL/MOL
REMARK 927      BINDING AFFINITY PREDICTED BY RF-SCORE:    0.00 PKD
ROOT
HETATM    1  C   UNL     1     -12.156  15.770  72.415  1.00  0.00    -0.588 C  
HETATM    2  C   UNL     1     -13.556  15.367  71.985  1.00  0.00    -0.588 C  
ENDROOT
BRANCH   2   3
HETATM    3  C   UNL     1     -13.853  13.919  72.365  1.00  0.00    -0.668 C  
BRANCH   3   4
HETATM    4  C   UNL     1     -13.045  12.948  71.508  1.00  0.00    -0.390 C  
BRANCH   4   5
HETATM    5  C   UNL     1     -13.119  11.533  72.075  1.00  0.00    -0.430 C  
BRANCH   5   6
HETATM    6  C   UNL     1     -12.789  10.499  71.004  1.00  0.00    -0.502 C  
BRANCH   6   7
HETATM    7  C   UNL     1     -11.472   9.796  71.320  1.00  0.00    -0.457 C  
BRANCH   7   8
HETATM    8  C   UNL     1     -11.725   8.439  71.966  1.00  0.00    -0.417 C  
BRANCH   8   9
HETATM    9  C   UNL     1     -10.988   7.336  71.212  1.00  0.00    -0.264 C  
BRANCH   9  10
HETATM   10  C   UNL     1     -11.866   6.757  70.109  1.00  0.00    -0.321 C  
BRANCH  10  11
HETATM   11  C   UNL     1     -11.028   6.342  68.904  1.00  0.00    -0.435 C  
BRANCH  11  12
HETATM   12  C   UNL     1     -10.051   7.448  68.521  1.00  0.00    -0.187 C  
BRANCH  12  13
HETATM   13  C   UNL     1     -10.552   8.234  67.312  1.00  0.00    -0.335 C  
BRANCH  13  14
HETATM   14  C   UNL     1     -10.592   9.729  67.620  1.00  0.00    -0.333 C  
BRANCH  14  15
HETATM   15  C   UNL     1     -10.279  10.559  66.378  1.00  0.00    -0.296 C  
HETATM   16  C   UNL     1     -11.200  11.750  66.256  1.00  0.00    -0.312 C  
HETATM   17  O   UNL     1     -10.929  12.494  65.157  1.00  0.00    -0.283 OA 
HETATM   18  O   UNL     1     -12.094  12.038  67.035  1.00  0.00    -0.603 OA 
ENDBRANCH  14  15
ENDBRANCH  13  14
ENDBRANCH  12  13
ENDBRANCH  11  12
ENDBRANCH  10  11
ENDBRANCH   9  10
ENDBRANCH   8   9
ENDBRANCH   7   8
ENDBRANCH   6   7
ENDBRANCH   5   6
ENDBRANCH   4   5
ENDBRANCH   3   4
ENDBRANCH   2   3
TORSDOF 13
ENDMDL
MODEL       65
REMARK 921   NORMALIZED FREE ENERGY PREDICTED BY IDOCK:   -4.04 KCAL/MOL
REMARK 922        TOTAL FREE ENERGY PREDICTED BY IDOCK:   -8.53 KCAL/MOL
REMARK 923 INTER-LIGAND FREE ENERGY PREDICTED BY IDOCK:   -6.22 KCAL/MOL
REMARK 924 INTRA-LIGAND FREE ENERGY PREDICTED BY IDOCK:   -2.30 KCAL/MOL
REMARK 927      BINDING AFFINITY PREDICTED BY RF-SCORE:    0.00 PKD
ROOT
HETATM    1  C   UNL     1      -7.261  12.516  67.395  1.00  0.00    -0.146 C  
HETATM    2  C   UNL     1      -8.445  11.910  68.129  1.00  0.00    -0.163 C  
ENDROOT
BRANCH   2   3
HETATM    3  C   UNL     1      -8.662  10.456  67.717  1.00  0.00    -0.122 C  
BRANCH   3   4
HETATM    4  C   UNL     1     -10.081  10.237  67.200  1.00  0.00    -0.259 C  
BRANCH   4   5
HETATM    5  C   UNL     1     -10.061   9.616  65.806  1.00  0.00    -0.274 C  
BRANCH   5   6
HETATM    6  C   UNL     1      -9.224  10.455  64.847  1.00  0.00    -0.263 C  
BRANCH   6   7
HETATM    7  C   UNL     1     -10.025  10.808  63.598  1.00  0.00    -0.405 C  
BRANCH   7   8
HETATM    8  C   UNL     1     -10.551  12.237  63.677  1.00  0.00    -0.501 C  
BRANCH   8   9
HETATM    9  C   UNL     1     -12.056  12.245  63.926  1.00  0.00    -0.598 C  
BRANCH   9  10
HETATM   10  C   UNL     1     -12.373  12.814  65.304  1.00  0.00    -0.546 C  
BRANCH  10  11
HETATM   11  C   UNL     1     -11.162  13.535  65.890  1.00  0.00    -0.310 C  
BRANCH  11  12
HETATM   12  C   UNL     1     -11.428  13.947  67.334  1.00  0.00    -0.374 C  
BRANCH  12  13
HETATM   13  C   UNL     1     -12.128  12.833  68.107  1.00  0.00    -0.158 C  
BRANCH  13  14
HETATM   14  C   UNL     1     -11.734  12.870  69.582  1.00  0.00    -0.367 C  
BRANCH  14  15
HETATM   15  C   UNL     1     -12.018  11.536  70.265  1.00  0.00    -0.455 C  
HETATM   16  C   UNL     1     -12.896  11.708  71.483  1.00  0.00    -0.364 C  
HETATM   17  O   UNL     1     -13.156  10.529  72.096  1.00  0.00    -0.459 OA 
HETATM   18  O   UNL     1     -13.336  12.769  71.896  1.00  0.00    -0.463 OA 
ENDBRANCH  14  15
ENDBRANCH  13  14
ENDBRANCH  12  13
ENDBRANCH  11  12
ENDBRANCH  10  11
ENDBRANCH   9  10
ENDBRANCH   8   9
ENDBRANCH   7   8
ENDBRANCH   6   7
ENDBRANCH   5   6
ENDBRANCH   4   5
ENDBRANCH   3   4
ENDBRANCH   2   3
TORSDOF 13
ENDMDL
MODEL       66
REMARK 921   NORMALIZED FREE ENERGY PREDICTED BY IDOCK:   -4.04 KCAL/MOL
REMARK 922        TOTAL FREE ENERGY PREDICTED BY IDOCK:   -8.52 KCAL/MOL
REMARK 923 INTER-LIGAND FREE ENERGY PREDICTED BY IDOCK:   -7.48 KCAL/MOL
REMARK 924 INTRA-LIGAND FREE ENERGY PREDICTED BY IDOCK:   -1.05 KCAL/MOL
REMARK 927      BINDING AFFINITY PREDICTED BY RF-SCORE:    0.00 PKD
ROOT
HETATM    1  C   UNL     1     -12.653  12.168  63.603  1.00  0.00    -0.616 C  
HETATM    2  C   UNL     1     -11.194  12.591  63.589  1.00  0.00    -0.545 C  
ENDROOT
BRANCH   2   3
HETATM    3  C   UNL     1     -10.606  12.586  64.998  1.00  0.00    -0.329 C  
BRANCH   3   4
HETATM    4  C   UNL     1     -11.667  12.234  66.036  1.00  0.00    -0.451 C  
BRANCH   4   5
HETATM    5  C   UNL     1     -11.026  11.643  67.289  1.00  0.00    -0.318 C  
BRANCH   5   6
HETATM    6  C   UNL     1     -11.877  11.927  68.522  1.00  0.00    -0.357 C  
BRANCH   6   7
HETATM    7  C   UNL     1     -11.702  10.826  69.564  1.00  0.00    -0.384 C  
BRANCH   7   8
HETATM    8  C   UNL     1     -12.425  11.184  70.857  1.00  0.00    -0.509 C  
BRANCH   8   9
HETATM    9  C   UNL     1     -12.647  12.689  70.953  1.00  0.00    -0.338 C  
BRANCH   9  10
HETATM   10  C   UNL     1     -13.448  13.039  72.202  1.00  0.00    -0.638 C  
BRANCH  10  11
HETATM   11  C   UNL     1     -13.342  14.527  72.521  1.00  0.00    -0.565 C  
BRANCH  11  12
HETATM   12  C   UNL     1     -11.898  15.002  72.401  1.00  0.00    -0.432 C  
BRANCH  12  13
HETATM   13  C   UNL     1     -11.772  16.137  71.389  1.00  0.00    -0.506 C  
BRANCH  13  14
HETATM   14  C   UNL     1     -10.881  15.722  70.220  1.00  0.00    -0.363 C  
BRANCH  14  15
HETATM   15  C   UNL     1     -10.899  16.769  69.111  1.00  0.00    -0.287 C  
HETATM   16  C   UNL     1     -10.429  16.195  67.794  1.00  0.00    -0.295 C  
HETATM   17  O   UNL     1     -10.442  17.116  66.802  1.00  0.00    -0.315 OA 
HETATM   18  O   UNL     1     -10.071  15.043  67.610  1.00  0.00    -0.229 OA 
ENDBRANCH  14  15
ENDBRANCH  13  14
ENDBRANCH  12  13
ENDBRANCH  11  12
ENDBRANCH  10  11
ENDBRANCH   9  10
ENDBRANCH   8   9
ENDBRANCH   7   8
ENDBRANCH   6   7
ENDBRANCH   5   6
ENDBRANCH   4   5
ENDBRANCH   3   4
ENDBRANCH   2   3
TORSDOF 13
ENDMDL
MODEL       67
REMARK 921   NORMALIZED FREE ENERGY PREDICTED BY IDOCK:   -4.04 KCAL/MOL
REMARK 922        TOTAL FREE ENERGY PREDICTED BY IDOCK:   -8.52 KCAL/MOL
REMARK 923 INTER-LIGAND FREE ENERGY PREDICTED BY IDOCK:   -6.43 KCAL/MOL
REMARK 924 INTRA-LIGAND FREE ENERGY PREDICTED BY IDOCK:   -2.09 KCAL/MOL
REMARK 927      BINDING AFFINITY PREDICTED BY RF-SCORE:    0.00 PKD
ROOT
HETATM    1  C   UNL     1     -12.640  12.010  63.483  1.00  0.00    -0.625 C  
HETATM    2  C   UNL     1     -11.383  12.810  63.783  1.00  0.00    -0.520 C  
ENDROOT
BRANCH   2   3
HETATM    3  C   UNL     1     -11.723  14.136  64.459  1.00  0.00    -0.426 C  
BRANCH   3   4
HETATM    4  C   UNL     1     -12.659  13.925  65.645  1.00  0.00    -0.553 C  
BRANCH   4   5
HETATM    5  C   UNL     1     -11.865  13.711  66.931  1.00  0.00    -0.451 C  
BRANCH   5   6
HETATM    6  C   UNL     1     -11.902  12.247  67.357  1.00  0.00    -0.327 C  
BRANCH   6   7
HETATM    7  C   UNL     1     -10.510  11.763  67.750  1.00  0.00    -0.219 C  
BRANCH   7   8
HETATM    8  C   UNL     1      -9.435  12.540  67.000  1.00  0.00    -0.217 C  
BRANCH   8   9
HETATM    9  C   UNL     1      -8.219  12.777  67.890  1.00  0.00    -0.168 C  
BRANCH   9  10
HETATM   10  C   UNL     1      -8.149  14.234  68.332  1.00  0.00    -0.142 C  
BRANCH  10  11
HETATM   11  C   UNL     1      -7.238  15.042  67.413  1.00  0.00    -0.224 C  
BRANCH  11  12
HETATM   12  C   UNL     1      -7.881  16.377  67.055  1.00  0.00    -0.247 C  
BRANCH  12  13
HETATM   13  C   UNL     1      -8.994  16.198  66.026  1.00  0.00    -0.334 C  
BRANCH  13  14
HETATM   14  C   UNL     1     -10.242  16.974  66.440  1.00  0.00    -0.330 C  
BRANCH  14  15
HETATM   15  C   UNL     1     -10.084  17.574  67.834  1.00  0.00    -0.330 C  
HETATM   16  C   UNL     1     -10.294  19.070  67.825  1.00  0.00    -0.417 C  
HETATM   17  O   UNL     1     -10.158  19.612  69.058  1.00  0.00    -0.445 OA 
HETATM   18  O   UNL     1     -10.555  19.744  66.842  1.00  0.00    -0.458 OA 
ENDBRANCH  14  15
ENDBRANCH  13  14
ENDBRANCH  12  13
ENDBRANCH  11  12
ENDBRANCH  10  11
ENDBRANCH   9  10
ENDBRANCH   8   9
ENDBRANCH   7   8
ENDBRANCH   6   7
ENDBRANCH   5   6
ENDBRANCH   4   5
ENDBRANCH   3   4
ENDBRANCH   2   3
TORSDOF 13
ENDMDL
MODEL       68
REMARK 921   NORMALIZED FREE ENERGY PREDICTED BY IDOCK:   -4.04 KCAL/MOL
REMARK 922        TOTAL FREE ENERGY PREDICTED BY IDOCK:   -8.51 KCAL/MOL
REMARK 923 INTER-LIGAND FREE ENERGY PREDICTED BY IDOCK:   -7.31 KCAL/MOL
REMARK 924 INTRA-LIGAND FREE ENERGY PREDICTED BY IDOCK:   -1.21 KCAL/MOL
REMARK 927      BINDING AFFINITY PREDICTED BY RF-SCORE:    0.00 PKD
ROOT
HETATM    1  C   UNL     1     -10.650   5.810  67.267  1.00  0.00    -0.353 C  
HETATM    2  C   UNL     1     -11.085   6.741  68.386  1.00  0.00    -0.214 C  
ENDROOT
BRANCH   2   3
HETATM    3  C   UNL     1     -11.014   6.044  69.742  1.00  0.00    -0.471 C  
BRANCH   3   4
HETATM    4  C   UNL     1     -11.946   6.708  70.752  1.00  0.00    -0.412 C  
BRANCH   4   5
HETATM    5  C   UNL     1     -11.169   7.182  71.977  1.00  0.00    -0.286 C  
BRANCH   5   6
HETATM    6  C   UNL     1     -11.115   8.705  72.033  1.00  0.00    -0.437 C  
BRANCH   6   7
HETATM    7  C   UNL     1     -12.450   9.308  71.606  1.00  0.00    -0.448 C  
BRANCH   7   8
HETATM    8  C   UNL     1     -12.237  10.609  70.841  1.00  0.00    -0.497 C  
BRANCH   8   9
HETATM    9  C   UNL     1     -11.206  10.421  69.733  1.00  0.00    -0.353 C  
BRANCH   9  10
HETATM   10  C   UNL     1     -10.773  11.767  69.164  1.00  0.00    -0.169 C  
BRANCH  10  11
HETATM   11  C   UNL     1     -11.829  12.325  68.215  1.00  0.00    -0.367 C  
BRANCH  11  12
HETATM   12  C   UNL     1     -12.035  13.817  68.455  1.00  0.00    -0.395 C  
BRANCH  12  13
HETATM   13  C   UNL     1     -11.492  14.238  69.817  1.00  0.00    -0.317 C  
BRANCH  13  14
HETATM   14  C   UNL     1     -12.325  15.376  70.402  1.00  0.00    -0.443 C  
BRANCH  14  15
HETATM   15  C   UNL     1     -11.751  15.857  71.731  1.00  0.00    -0.575 C  
HETATM   16  C   UNL     1     -12.816  15.951  72.799  1.00  0.00    -0.478 C  
HETATM   17  O   UNL     1     -12.316  16.376  73.983  1.00  0.00    -0.527 OA 
HETATM   18  O   UNL     1     -13.997  15.684  72.647  1.00  0.00    -0.566 OA 
ENDBRANCH  14  15
ENDBRANCH  13  14
ENDBRANCH  12  13
ENDBRANCH  11  12
ENDBRANCH  10  11
ENDBRANCH   9  10
ENDBRANCH   8   9
ENDBRANCH   7   8
ENDBRANCH   6   7
ENDBRANCH   5   6
ENDBRANCH   4   5
ENDBRANCH   3   4
ENDBRANCH   2   3
TORSDOF 13
ENDMDL
MODEL       69
REMARK 921   NORMALIZED FREE ENERGY PREDICTED BY IDOCK:   -4.04 KCAL/MOL
REMARK 922        TOTAL FREE ENERGY PREDICTED BY IDOCK:   -8.51 KCAL/MOL
REMARK 923 INTER-LIGAND FREE ENERGY PREDICTED BY IDOCK:   -6.87 KCAL/MOL
REMARK 924 INTRA-LIGAND FREE ENERGY PREDICTED BY IDOCK:   -1.64 KCAL/MOL
REMARK 927      BINDING AFFINITY PREDICTED BY RF-SCORE:    0.00 PKD
ROOT
HETATM    1  C   UNL     1     -12.297  12.504  63.639  1.00  0.00    -0.618 C  
HETATM    2  C   UNL     1     -10.814  12.737  63.874  1.00  0.00    -0.447 C  
ENDROOT
BRANCH   2   3
HETATM    3  C   UNL     1      -9.985  11.553  63.382  1.00  0.00    -0.445 C  
BRANCH   3   4
HETATM    4  C   UNL     1      -9.959  10.433  64.418  1.00  0.00    -0.388 C  
BRANCH   4   5
HETATM    5  C   UNL     1      -9.285  10.900  65.705  1.00  0.00    -0.224 C  
BRANCH   5   6
HETATM    6  C   UNL     1     -10.038  10.391  66.930  1.00  0.00    -0.269 C  
BRANCH   6   7
HETATM    7  C   UNL     1     -11.212  11.307  67.261  1.00  0.00    -0.364 C  
BRANCH   7   8
HETATM    8  C   UNL     1     -10.733  12.733  67.506  1.00  0.00    -0.247 C  
BRANCH   8   9
HETATM    9  C   UNL     1     -11.879  13.725  67.332  1.00  0.00    -0.431 C  
BRANCH   9  10
HETATM   10  C   UNL     1     -12.115  14.508  68.618  1.00  0.00    -0.253 C  
BRANCH  10  11
HETATM   11  C   UNL     1     -11.684  13.700  69.838  1.00  0.00    -0.346 C  
BRANCH  11  12
HETATM   12  C   UNL     1     -12.711  13.826  70.958  1.00  0.00    -0.416 C  
BRANCH  12  13
HETATM   13  C   UNL     1     -12.913  12.495  71.676  1.00  0.00    -0.405 C  
BRANCH  13  14
HETATM   14  C   UNL     1     -12.326  11.346  70.859  1.00  0.00    -0.483 C  
BRANCH  14  15
HETATM   15  C   UNL     1     -12.906  10.004  71.293  1.00  0.00    -0.500 C  
HETATM   16  C   UNL     1     -11.826   9.050  71.749  1.00  0.00    -0.372 C  
HETATM   17  O   UNL     1     -12.331   7.856  72.138  1.00  0.00    -0.308 OA 
HETATM   18  O   UNL     1     -10.630   9.293  71.775  1.00  0.00    -0.355 OA 
ENDBRANCH  14  15
ENDBRANCH  13  14
ENDBRANCH  12  13
ENDBRANCH  11  12
ENDBRANCH  10  11
ENDBRANCH   9  10
ENDBRANCH   8   9
ENDBRANCH   7   8
ENDBRANCH   6   7
ENDBRANCH   5   6
ENDBRANCH   4   5
ENDBRANCH   3   4
ENDBRANCH   2   3
TORSDOF 13
ENDMDL
MODEL       70
REMARK 921   NORMALIZED FREE ENERGY PREDICTED BY IDOCK:   -4.03 KCAL/MOL
REMARK 922        TOTAL FREE ENERGY PREDICTED BY IDOCK:   -8.50 KCAL/MOL
REMARK 923 INTER-LIGAND FREE ENERGY PREDICTED BY IDOCK:   -6.74 KCAL/MOL
REMARK 924 INTRA-LIGAND FREE ENERGY PREDICTED BY IDOCK:   -1.76 KCAL/MOL
REMARK 927      BINDING AFFINITY PREDICTED BY RF-SCORE:    0.00 PKD
ROOT
HETATM    1  C   UNL     1     -11.805  11.315  68.690  1.00  0.00    -0.369 C  
HETATM    2  C   UNL     1     -11.103  10.325  67.776  1.00  0.00    -0.335 C  
ENDROOT
BRANCH   2   3
HETATM    3  C   UNL     1     -10.120  11.035  66.848  1.00  0.00    -0.248 C  
BRANCH   3   4
HETATM    4  C   UNL     1     -10.214  10.490  65.426  1.00  0.00    -0.340 C  
BRANCH   4   5
HETATM    5  C   UNL     1      -9.795  11.549  64.411  1.00  0.00    -0.277 C  
BRANCH   5   6
HETATM    6  C   UNL     1     -10.768  11.595  63.237  1.00  0.00    -0.404 C  
BRANCH   6   7
HETATM    7  C   UNL     1     -12.140  12.083  63.693  1.00  0.00    -0.627 C  
BRANCH   7   8
HETATM    8  C   UNL     1     -12.083  13.547  64.113  1.00  0.00    -0.488 C  
BRANCH   8   9
HETATM    9  C   UNL     1     -12.591  13.720  65.540  1.00  0.00    -0.551 C  
BRANCH   9  10
HETATM   10  C   UNL     1     -11.571  14.469  66.389  1.00  0.00    -0.370 C  
BRANCH  10  11
HETATM   11  C   UNL     1     -10.436  15.014  65.527  1.00  0.00    -0.385 C  
BRANCH  11  12
HETATM   12  C   UNL     1      -9.790  16.226  66.191  1.00  0.00    -0.358 C  
BRANCH  12  13
HETATM   13  C   UNL     1     -10.688  16.803  67.282  1.00  0.00    -0.213 C  
BRANCH  13  14
HETATM   14  C   UNL     1     -10.563  18.324  67.334  1.00  0.00    -0.425 C  
BRANCH  14  15
HETATM   15  C   UNL     1      -9.730  18.771  68.532  1.00  0.00    -0.426 C  
HETATM   16  C   UNL     1      -8.329  19.163  68.124  1.00  0.00    -0.316 C  
HETATM   17  O   UNL     1      -7.583  19.562  69.180  1.00  0.00    -0.361 OA 
HETATM   18  O   UNL     1      -7.888  19.134  66.986  1.00  0.00    -0.243 OA 
ENDBRANCH  14  15
ENDBRANCH  13  14
ENDBRANCH  12  13
ENDBRANCH  11  12
ENDBRANCH  10  11
ENDBRANCH   9  10
ENDBRANCH   8   9
ENDBRANCH   7   8
ENDBRANCH   6   7
ENDBRANCH   5   6
ENDBRANCH   4   5
ENDBRANCH   3   4
ENDBRANCH   2   3
TORSDOF 13
ENDMDL
MODEL       71
REMARK 921   NORMALIZED FREE ENERGY PREDICTED BY IDOCK:   -4.02 KCAL/MOL
REMARK 922        TOTAL FREE ENERGY PREDICTED BY IDOCK:   -8.48 KCAL/MOL
REMARK 923 INTER-LIGAND FREE ENERGY PREDICTED BY IDOCK:   -7.27 KCAL/MOL
REMARK 924 INTRA-LIGAND FREE ENERGY PREDICTED BY IDOCK:   -1.22 KCAL/MOL
REMARK 927      BINDING AFFINITY PREDICTED BY RF-SCORE:    0.00 PKD
ROOT
HETATM    1  C   UNL     1     -13.528  12.817  72.185  1.00  0.00    -0.591 C  
HETATM    2  C   UNL     1     -13.918  14.285  72.146  1.00  0.00    -0.618 C  
ENDROOT
BRANCH   2   3
HETATM    3  C   UNL     1     -13.282  15.054  73.301  1.00  0.00    -0.537 C  
BRANCH   3   4
HETATM    4  C   UNL     1     -11.964  15.697  72.874  1.00  0.00    -0.588 C  
BRANCH   4   5
HETATM    5  C   UNL     1     -11.988  16.047  71.389  1.00  0.00    -0.507 C  
BRANCH   5   6
HETATM    6  C   UNL     1     -10.795  15.431  70.665  1.00  0.00    -0.318 C  
BRANCH   6   7
HETATM    7  C   UNL     1     -10.858  15.732  69.171  1.00  0.00    -0.254 C  
BRANCH   7   8
HETATM    8  C   UNL     1     -12.070  15.063  68.533  1.00  0.00    -0.177 C  
BRANCH   8   9
HETATM    9  C   UNL     1     -11.638  13.923  67.616  1.00  0.00    -0.381 C  
BRANCH   9  10
HETATM   10  C   UNL     1     -10.595  14.403  66.613  1.00  0.00    -0.282 C  
BRANCH  10  11
HETATM   11  C   UNL     1     -11.259  14.929  65.344  1.00  0.00    -0.359 C  
BRANCH  11  12
HETATM   12  C   UNL     1     -12.361  13.982  64.880  1.00  0.00    -0.447 C  
BRANCH  12  13
HETATM   13  C   UNL     1     -12.070  13.435  63.486  1.00  0.00    -0.497 C  
BRANCH  13  14
HETATM   14  C   UNL     1     -12.032  11.909  63.502  1.00  0.00    -0.567 C  
BRANCH  14  15
HETATM   15  C   UNL     1     -11.054  11.390  64.552  1.00  0.00    -0.302 C  
HETATM   16  C   UNL     1      -9.670  11.194  63.977  1.00  0.00    -0.283 C  
HETATM   17  O   UNL     1      -8.794  10.736  64.902  1.00  0.00    -0.192 OA 
HETATM   18  O   UNL     1      -9.345  11.413  62.821  1.00  0.00    -0.369 OA 
ENDBRANCH  14  15
ENDBRANCH  13  14
ENDBRANCH  12  13
ENDBRANCH  11  12
ENDBRANCH  10  11
ENDBRANCH   9  10
ENDBRANCH   8   9
ENDBRANCH   7   8
ENDBRANCH   6   7
ENDBRANCH   5   6
ENDBRANCH   4   5
ENDBRANCH   3   4
ENDBRANCH   2   3
TORSDOF 13
ENDMDL
MODEL       72
REMARK 921   NORMALIZED FREE ENERGY PREDICTED BY IDOCK:   -4.02 KCAL/MOL
REMARK 922        TOTAL FREE ENERGY PREDICTED BY IDOCK:   -8.48 KCAL/MOL
REMARK 923 INTER-LIGAND FREE ENERGY PREDICTED BY IDOCK:   -6.83 KCAL/MOL
REMARK 924 INTRA-LIGAND FREE ENERGY PREDICTED BY IDOCK:   -1.65 KCAL/MOL
REMARK 927      BINDING AFFINITY PREDICTED BY RF-SCORE:    0.00 PKD
ROOT
HETATM    1  C   UNL     1      -6.734  17.533  68.904  1.00  0.00    -0.239 C  
HETATM    2  C   UNL     1      -7.245  18.959  68.795  1.00  0.00    -0.351 C  
ENDROOT
BRANCH   2   3
HETATM    3  C   UNL     1      -7.486  19.348  67.338  1.00  0.00    -0.259 C  
BRANCH   3   4
HETATM    4  C   UNL     1      -8.587  20.399  67.224  1.00  0.00    -0.414 C  
BRANCH   4   5
HETATM    5  C   UNL     1      -9.673  19.943  66.253  1.00  0.00    -0.551 C  
BRANCH   5   6
HETATM    6  C   UNL     1     -10.572  18.891  66.895  1.00  0.00    -0.495 C  
BRANCH   6   7
HETATM    7  C   UNL     1     -10.252  17.503  66.349  1.00  0.00    -0.354 C  
BRANCH   7   8
HETATM    8  C   UNL     1     -10.042  16.509  67.485  1.00  0.00    -0.267 C  
BRANCH   8   9
HETATM    9  C   UNL     1     -10.475  17.112  68.817  1.00  0.00    -0.351 C  
BRANCH   9  10
HETATM   10  C   UNL     1     -11.071  16.043  69.726  1.00  0.00    -0.337 C  
BRANCH  10  11
HETATM   11  C   UNL     1     -12.035  15.146  68.956  1.00  0.00    -0.295 C  
BRANCH  11  12
HETATM   12  C   UNL     1     -11.941  13.706  69.448  1.00  0.00    -0.394 C  
BRANCH  12  13
HETATM   13  C   UNL     1     -11.065  12.862  68.526  1.00  0.00    -0.299 C  
BRANCH  13  14
HETATM   14  C   UNL     1     -11.849  12.425  67.290  1.00  0.00    -0.357 C  
BRANCH  14  15
HETATM   15  C   UNL     1     -10.999  12.536  66.027  1.00  0.00    -0.318 C  
HETATM   16  C   UNL     1     -11.849  12.772  64.800  1.00  0.00    -0.374 C  
HETATM   17  O   UNL     1     -11.103  12.873  63.675  1.00  0.00    -0.419 OA 
HETATM   18  O   UNL     1     -13.066  12.863  64.788  1.00  0.00    -0.754 OA 
ENDBRANCH  14  15
ENDBRANCH  13  14
ENDBRANCH  12  13
ENDBRANCH  11  12
ENDBRANCH  10  11
ENDBRANCH   9  10
ENDBRANCH   8   9
ENDBRANCH   7   8
ENDBRANCH   6   7
ENDBRANCH   5   6
ENDBRANCH   4   5
ENDBRANCH   3   4
ENDBRANCH   2   3
TORSDOF 13
ENDMDL
MODEL       73
REMARK 921   NORMALIZED FREE ENERGY PREDICTED BY IDOCK:   -4.01 KCAL/MOL
REMARK 922        TOTAL FREE ENERGY PREDICTED BY IDOCK:   -8.46 KCAL/MOL
REMARK 923 INTER-LIGAND FREE ENERGY PREDICTED BY IDOCK:   -7.26 KCAL/MOL
REMARK 924 INTRA-LIGAND FREE ENERGY PREDICTED BY IDOCK:   -1.21 KCAL/MOL
REMARK 927      BINDING AFFINITY PREDICTED BY RF-SCORE:    0.00 PKD
ROOT
HETATM    1  C   UNL     1      -8.819  19.230  66.235  1.00  0.00    -0.341 C  
HETATM    2  C   UNL     1      -9.950  20.034  66.854  1.00  0.00    -0.584 C  
ENDROOT
BRANCH   2   3
HETATM    3  C   UNL     1     -10.678  19.225  67.925  1.00  0.00    -0.417 C  
BRANCH   3   4
HETATM    4  C   UNL     1      -9.872  17.993  68.327  1.00  0.00    -0.357 C  
BRANCH   4   5
HETATM    5  C   UNL     1     -10.790  16.795  68.557  1.00  0.00    -0.345 C  
BRANCH   5   6
HETATM    6  C   UNL     1     -10.426  16.069  69.847  1.00  0.00    -0.287 C  
BRANCH   6   7
HETATM    7  C   UNL     1     -11.647  15.931  70.752  1.00  0.00    -0.441 C  
BRANCH   7   8
HETATM    8  C   UNL     1     -11.977  14.463  70.995  1.00  0.00    -0.389 C  
BRANCH   8   9
HETATM    9  C   UNL     1     -12.450  13.795  69.709  1.00  0.00    -0.216 C  
BRANCH   9  10
HETATM   10  C   UNL     1     -11.707  12.484  69.476  1.00  0.00    -0.375 C  
BRANCH  10  11
HETATM   11  C   UNL     1     -10.822  12.570  68.236  1.00  0.00    -0.258 C  
BRANCH  11  12
HETATM   12  C   UNL     1     -11.464  11.835  67.064  1.00  0.00    -0.368 C  
BRANCH  12  13
HETATM   13  C   UNL     1     -10.671  12.046  65.777  1.00  0.00    -0.319 C  
BRANCH  13  14
HETATM   14  C   UNL     1     -10.395  13.531  65.551  1.00  0.00    -0.309 C  
BRANCH  14  15
HETATM   15  C   UNL     1     -11.480  14.171  64.691  1.00  0.00    -0.392 C  
HETATM   16  C   UNL     1     -11.299  15.668  64.586  1.00  0.00    -0.349 C  
HETATM   17  O   UNL     1     -12.257  16.245  63.823  1.00  0.00    -0.923 OA 
HETATM   18  O   UNL     1     -10.408  16.313  65.114  1.00  0.00    -0.587 OA 
ENDBRANCH  14  15
ENDBRANCH  13  14
ENDBRANCH  12  13
ENDBRANCH  11  12
ENDBRANCH  10  11
ENDBRANCH   9  10
ENDBRANCH   8   9
ENDBRANCH   7   8
ENDBRANCH   6   7
ENDBRANCH   5   6
ENDBRANCH   4   5
ENDBRANCH   3   4
ENDBRANCH   2   3
TORSDOF 13
ENDMDL
MODEL       74
REMARK 921   NORMALIZED FREE ENERGY PREDICTED BY IDOCK:   -4.01 KCAL/MOL
REMARK 922        TOTAL FREE ENERGY PREDICTED BY IDOCK:   -8.46 KCAL/MOL
REMARK 923 INTER-LIGAND FREE ENERGY PREDICTED BY IDOCK:   -6.63 KCAL/MOL
REMARK 924 INTRA-LIGAND FREE ENERGY PREDICTED BY IDOCK:   -1.83 KCAL/MOL
REMARK 927      BINDING AFFINITY PREDICTED BY RF-SCORE:    0.00 PKD
ROOT
HETATM    1  C   UNL     1     -10.639  19.578  65.877  1.00  0.00    -0.572 C  
HETATM    2  C   UNL     1     -10.849  19.149  67.319  1.00  0.00    -0.529 C  
ENDROOT
BRANCH   2   3
HETATM    3  C   UNL     1      -9.725  19.663  68.215  1.00  0.00    -0.500 C  
BRANCH   3   4
HETATM    4  C   UNL     1      -8.509  20.076  67.391  1.00  0.00    -0.391 C  
BRANCH   4   5
HETATM    5  C   UNL     1      -7.315  19.177  67.698  1.00  0.00    -0.253 C  
BRANCH   5   6
HETATM    6  C   UNL     1      -7.101  18.157  66.585  1.00  0.00    -0.243 C  
BRANCH   6   7
HETATM    7  C   UNL     1      -7.101  16.738  67.145  1.00  0.00    -0.222 C  
BRANCH   7   8
HETATM    8  C   UNL     1      -8.519  16.183  67.214  1.00  0.00    -0.203 C  
BRANCH   8   9
HETATM    9  C   UNL     1      -9.162  16.173  65.831  1.00  0.00    -0.296 C  
BRANCH   9  10
HETATM   10  C   UNL     1     -10.664  15.936  65.937  1.00  0.00    -0.303 C  
BRANCH  10  11
HETATM   11  C   UNL     1     -11.307  15.875  64.555  1.00  0.00    -0.316 C  
BRANCH  11  12
HETATM   12  C   UNL     1     -12.043  14.553  64.361  1.00  0.00    -0.492 C  
BRANCH  12  13
HETATM   13  C   UNL     1     -12.444  13.942  65.701  1.00  0.00    -0.538 C  
BRANCH  13  14
HETATM   14  C   UNL     1     -11.962  12.497  65.800  1.00  0.00    -0.482 C  
BRANCH  14  15
HETATM   15  C   UNL     1     -10.798  12.367  66.778  1.00  0.00    -0.283 C  
HETATM   16  C   UNL     1     -11.208  11.650  68.043  1.00  0.00    -0.263 C  
HETATM   17  O   UNL     1     -10.181  11.528  68.917  1.00  0.00    -0.206 OA 
HETATM   18  O   UNL     1     -12.324  11.218  68.283  1.00  0.00    -0.542 OA 
ENDBRANCH  14  15
ENDBRANCH  13  14
ENDBRANCH  12  13
ENDBRANCH  11  12
ENDBRANCH  10  11
ENDBRANCH   9  10
ENDBRANCH   8   9
ENDBRANCH   7   8
ENDBRANCH   6   7
ENDBRANCH   5   6
ENDBRANCH   4   5
ENDBRANCH   3   4
ENDBRANCH   2   3
TORSDOF 13
ENDMDL
MODEL       75
REMARK 921   NORMALIZED FREE ENERGY PREDICTED BY IDOCK:   -4.00 KCAL/MOL
REMARK 922        TOTAL FREE ENERGY PREDICTED BY IDOCK:   -8.46 KCAL/MOL
REMARK 923 INTER-LIGAND FREE ENERGY PREDICTED BY IDOCK:   -6.41 KCAL/MOL
REMARK 924 INTRA-LIGAND FREE ENERGY PREDICTED BY IDOCK:   -2.05 KCAL/MOL
REMARK 927      BINDING AFFINITY PREDICTED BY RF-SCORE:    0.00 PKD
ROOT
HETATM    1  C   UNL     1     -12.100  13.165  63.370  1.00  0.00    -0.558 C  
HETATM    2  C   UNL     1     -11.873  11.818  64.035  1.00  0.00    -0.402 C  
ENDROOT
BRANCH   2   3
HETATM    3  C   UNL     1     -10.422  11.368  63.886  1.00  0.00    -0.444 C  
BRANCH   3   4
HETATM    4  C   UNL     1     -10.025  10.410  65.006  1.00  0.00    -0.399 C  
BRANCH   4   5
HETATM    5  C   UNL     1      -9.063  11.085  65.981  1.00  0.00    -0.212 C  
BRANCH   5   6
HETATM    6  C   UNL     1      -9.560  10.952  67.417  1.00  0.00    -0.181 C  
BRANCH   6   7
HETATM    7  C   UNL     1     -11.000  10.448  67.445  1.00  0.00    -0.335 C  
BRANCH   7   8
HETATM    8  C   UNL     1     -11.884  11.379  68.265  1.00  0.00    -0.320 C  
BRANCH   8   9
HETATM    9  C   UNL     1     -11.085  12.575  68.773  1.00  0.00    -0.314 C  
BRANCH   9  10
HETATM   10  C   UNL     1     -11.788  13.881  68.423  1.00  0.00    -0.409 C  
BRANCH  10  11
HETATM   11  C   UNL     1     -11.809  14.104  66.914  1.00  0.00    -0.458 C  
BRANCH  11  12
HETATM   12  C   UNL     1     -10.414  14.445  66.400  1.00  0.00    -0.295 C  
BRANCH  12  13
HETATM   13  C   UNL     1     -10.427  15.728  65.575  1.00  0.00    -0.425 C  
BRANCH  13  14
HETATM   14  C   UNL     1      -9.556  16.798  66.228  1.00  0.00    -0.313 C  
BRANCH  14  15
HETATM   15  C   UNL     1     -10.407  17.901  66.851  1.00  0.00    -0.358 C  
HETATM   16  C   UNL     1      -9.556  19.036  67.371  1.00  0.00    -0.306 C  
HETATM   17  O   UNL     1     -10.302  20.021  67.925  1.00  0.00    -0.406 OA 
HETATM   18  O   UNL     1      -8.338  19.092  67.317  1.00  0.00    -0.271 OA 
ENDBRANCH  14  15
ENDBRANCH  13  14
ENDBRANCH  12  13
ENDBRANCH  11  12
ENDBRANCH  10  11
ENDBRANCH   9  10
ENDBRANCH   8   9
ENDBRANCH   7   8
ENDBRANCH   6   7
ENDBRANCH   5   6
ENDBRANCH   4   5
ENDBRANCH   3   4
ENDBRANCH   2   3
TORSDOF 13
ENDMDL
MODEL       76
REMARK 921   NORMALIZED FREE ENERGY PREDICTED BY IDOCK:   -4.00 KCAL/MOL
REMARK 922        TOTAL FREE ENERGY PREDICTED BY IDOCK:   -8.44 KCAL/MOL
REMARK 923 INTER-LIGAND FREE ENERGY PREDICTED BY IDOCK:   -6.50 KCAL/MOL
REMARK 924 INTRA-LIGAND FREE ENERGY PREDICTED BY IDOCK:   -1.94 KCAL/MOL
REMARK 927      BINDING AFFINITY PREDICTED BY RF-SCORE:    0.00 PKD
ROOT
HETATM    1  C   UNL     1     -11.545  10.810  68.336  1.00  0.00    -0.311 C  
HETATM    2  C   UNL     1     -10.054  10.952  68.081  1.00  0.00    -0.190 C  
ENDROOT
BRANCH   2   3
HETATM    3  C   UNL     1      -9.493   9.711  67.391  1.00  0.00    -0.170 C  
BRANCH   3   4
HETATM    4  C   UNL     1      -9.986   9.612  65.950  1.00  0.00    -0.351 C  
BRANCH   4   5
HETATM    5  C   UNL     1      -9.308  10.660  65.071  1.00  0.00    -0.259 C  
BRANCH   5   6
HETATM    6  C   UNL     1      -9.983  10.746  63.706  1.00  0.00    -0.411 C  
BRANCH   6   7
HETATM    7  C   UNL     1     -10.589  12.129  63.491  1.00  0.00    -0.501 C  
BRANCH   7   8
HETATM    8  C   UNL     1     -12.086  12.115  63.776  1.00  0.00    -0.620 C  
BRANCH   8   9
HETATM    9  C   UNL     1     -12.376  12.661  65.171  1.00  0.00    -0.547 C  
BRANCH   9  10
HETATM   10  C   UNL     1     -12.660  14.157  65.116  1.00  0.00    -0.426 C  
BRANCH  10  11
HETATM   11  C   UNL     1     -11.485  14.958  65.671  1.00  0.00    -0.290 C  
BRANCH  11  12
HETATM   12  C   UNL     1     -10.585  14.071  66.524  1.00  0.00    -0.279 C  
BRANCH  12  13
HETATM   13  C   UNL     1     -10.342  14.689  67.899  1.00  0.00    -0.237 C  
BRANCH  13  14
HETATM   14  C   UNL     1     -11.667  14.989  68.596  1.00  0.00    -0.363 C  
BRANCH  14  15
HETATM   15  C   UNL     1     -11.900  14.045  69.772  1.00  0.00    -0.385 C  
HETATM   16  C   UNL     1     -12.939  14.588  70.726  1.00  0.00    -0.343 C  
HETATM   17  O   UNL     1     -13.154  13.756  71.773  1.00  0.00    -0.342 OA 
HETATM   18  O   UNL     1     -13.532  15.646  70.601  1.00  0.00    -0.476 OA 
ENDBRANCH  14  15
ENDBRANCH  13  14
ENDBRANCH  12  13
ENDBRANCH  11  12
ENDBRANCH  10  11
ENDBRANCH   9  10
ENDBRANCH   8   9
ENDBRANCH   7   8
ENDBRANCH   6   7
ENDBRANCH   5   6
ENDBRANCH   4   5
ENDBRANCH   3   4
ENDBRANCH   2   3
TORSDOF 13
ENDMDL
MODEL       77
REMARK 921   NORMALIZED FREE ENERGY PREDICTED BY IDOCK:   -3.99 KCAL/MOL
REMARK 922        TOTAL FREE ENERGY PREDICTED BY IDOCK:   -8.43 KCAL/MOL
REMARK 923 INTER-LIGAND FREE ENERGY PREDICTED BY IDOCK:   -6.90 KCAL/MOL
REMARK 924 INTRA-LIGAND FREE ENERGY PREDICTED BY IDOCK:   -1.53 KCAL/MOL
REMARK 927      BINDING AFFINITY PREDICTED BY RF-SCORE:    0.00 PKD
ROOT
HETATM    1  C   UNL     1     -13.075  11.315  71.819  1.00  0.00    -0.527 C  
HETATM    2  C   UNL     1     -13.205  10.162  70.838  1.00  0.00    -0.360 C  
ENDROOT
BRANCH   2   3
HETATM    3  C   UNL     1     -13.223   8.820  71.565  1.00  0.00    -0.356 C  
BRANCH   3   4
HETATM    4  C   UNL     1     -11.960   8.629  72.399  1.00  0.00    -0.410 C  
BRANCH   4   5
HETATM    5  C   UNL     1     -11.294   7.294  72.077  1.00  0.00    -0.295 C  
BRANCH   5   6
HETATM    6  C   UNL     1      -9.807   7.481  71.794  1.00  0.00    -0.192 C  
BRANCH   6   7
HETATM    7  C   UNL     1      -9.466   8.962  71.659  1.00  0.00    -0.351 C  
BRANCH   7   8
HETATM    8  C   UNL     1      -8.903   9.264  70.275  1.00  0.00    -0.254 C  
BRANCH   8   9
HETATM    9  C   UNL     1     -10.011   9.715  69.329  1.00  0.00    -0.197 C  
BRANCH   9  10
HETATM   10  C   UNL     1     -10.373   8.602  68.352  1.00  0.00    -0.239 C  
BRANCH  10  11
HETATM   11  C   UNL     1     -10.492   9.141  66.929  1.00  0.00    -0.287 C  
BRANCH  11  12
HETATM   12  C   UNL     1     -10.364  10.660  66.916  1.00  0.00    -0.288 C  
BRANCH  12  13
HETATM   13  C   UNL     1      -9.719  11.151  65.623  1.00  0.00    -0.267 C  
BRANCH  13  14
HETATM   14  C   UNL     1     -10.658  10.937  64.438  1.00  0.00    -0.343 C  
BRANCH  14  15
HETATM   15  C   UNL     1     -10.902  12.240  63.682  1.00  0.00    -0.522 C  
HETATM   16  C   UNL     1     -12.304  12.759  63.902  1.00  0.00    -0.426 C  
HETATM   17  O   UNL     1     -12.530  13.916  63.237  1.00  0.00    -0.817 OA 
HETATM   18  O   UNL     1     -13.159  12.224  64.590  1.00  0.00    -0.770 OA 
ENDBRANCH  14  15
ENDBRANCH  13  14
ENDBRANCH  12  13
ENDBRANCH  11  12
ENDBRANCH  10  11
ENDBRANCH   9  10
ENDBRANCH   8   9
ENDBRANCH   7   8
ENDBRANCH   6   7
ENDBRANCH   5   6
ENDBRANCH   4   5
ENDBRANCH   3   4
ENDBRANCH   2   3
TORSDOF 13
ENDMDL
MODEL       78
REMARK 921   NORMALIZED FREE ENERGY PREDICTED BY IDOCK:   -3.99 KCAL/MOL
REMARK 922        TOTAL FREE ENERGY PREDICTED BY IDOCK:   -8.43 KCAL/MOL
REMARK 923 INTER-LIGAND FREE ENERGY PREDICTED BY IDOCK:   -6.43 KCAL/MOL
REMARK 924 INTRA-LIGAND FREE ENERGY PREDICTED BY IDOCK:   -2.00 KCAL/MOL
REMARK 927      BINDING AFFINITY PREDICTED BY RF-SCORE:    0.00 PKD
ROOT
HETATM    1  C   UNL     1      -7.910   8.009  70.297  1.00  0.00    -0.088 C  
HETATM    2  C   UNL     1      -8.672   9.322  70.347  1.00  0.00    -0.263 C  
ENDROOT
BRANCH   2   3
HETATM    3  C   UNL     1     -10.026   9.148  71.032  1.00  0.00    -0.367 C  
BRANCH   3   4
HETATM    4  C   UNL     1     -10.128   7.784  71.708  1.00  0.00    -0.223 C  
BRANCH   4   5
HETATM    5  C   UNL     1     -11.524   7.193  71.529  1.00  0.00    -0.298 C  
BRANCH   5   6
HETATM    6  C   UNL     1     -11.776   6.823  70.071  1.00  0.00    -0.330 C  
BRANCH   6   7
HETATM    7  C   UNL     1     -10.757   5.795  69.591  1.00  0.00    -0.416 C  
BRANCH   7   8
HETATM    8  C   UNL     1     -10.374   6.048  68.138  1.00  0.00    -0.251 C  
BRANCH   8   9
HETATM    9  C   UNL     1     -10.775   7.457  67.712  1.00  0.00    -0.249 C  
BRANCH   9  10
HETATM   10  C   UNL     1      -9.679   8.099  66.870  1.00  0.00    -0.291 C  
BRANCH  10  11
HETATM   11  C   UNL     1     -10.135   9.442  66.309  1.00  0.00    -0.328 C  
BRANCH  11  12
HETATM   12  C   UNL     1     -10.718  10.317  67.414  1.00  0.00    -0.339 C  
BRANCH  12  13
HETATM   13  C   UNL     1     -10.490  11.798  67.125  1.00  0.00    -0.250 C  
BRANCH  13  14
HETATM   14  C   UNL     1     -11.822  12.524  66.947  1.00  0.00    -0.404 C  
BRANCH  14  15
HETATM   15  C   UNL     1     -11.716  13.628  65.900  1.00  0.00    -0.378 C  
HETATM   16  C   UNL     1     -12.514  13.300  64.660  1.00  0.00    -0.349 C  
HETATM   17  O   UNL     1     -12.427  14.275  63.724  1.00  0.00    -0.810 OA 
HETATM   18  O   UNL     1     -13.171  12.286  64.486  1.00  0.00    -0.799 OA 
ENDBRANCH  14  15
ENDBRANCH  13  14
ENDBRANCH  12  13
ENDBRANCH  11  12
ENDBRANCH  10  11
ENDBRANCH   9  10
ENDBRANCH   8   9
ENDBRANCH   7   8
ENDBRANCH   6   7
ENDBRANCH   5   6
ENDBRANCH   4   5
ENDBRANCH   3   4
ENDBRANCH   2   3
TORSDOF 13
ENDMDL
MODEL       79
REMARK 921   NORMALIZED FREE ENERGY PREDICTED BY IDOCK:   -3.99 KCAL/MOL
REMARK 922        TOTAL FREE ENERGY PREDICTED BY IDOCK:   -8.42 KCAL/MOL
REMARK 923 INTER-LIGAND FREE ENERGY PREDICTED BY IDOCK:   -7.25 KCAL/MOL
REMARK 924 INTRA-LIGAND FREE ENERGY PREDICTED BY IDOCK:   -1.17 KCAL/MOL
REMARK 927      BINDING AFFINITY PREDICTED BY RF-SCORE:    0.00 PKD
ROOT
HETATM    1  C   UNL     1     -10.420   8.027  67.884  1.00  0.00    -0.259 C  
HETATM    2  C   UNL     1     -10.093   6.780  68.686  1.00  0.00    -0.163 C  
ENDROOT
BRANCH   2   3
HETATM    3  C   UNL     1     -11.340   6.218  69.364  1.00  0.00    -0.448 C  
BRANCH   3   4
HETATM    4  C   UNL     1     -11.210   6.268  70.884  1.00  0.00    -0.386 C  
BRANCH   4   5
HETATM    5  C   UNL     1     -12.355   7.066  71.500  1.00  0.00    -0.420 C  
BRANCH   5   6
HETATM    6  C   UNL     1     -11.823   8.216  72.349  1.00  0.00    -0.448 C  
BRANCH   6   7
HETATM    7  C   UNL     1     -11.298   9.342  71.464  1.00  0.00    -0.455 C  
BRANCH   7   8
HETATM    8  C   UNL     1     -12.403  10.342  71.148  1.00  0.00    -0.505 C  
BRANCH   8   9
HETATM    9  C   UNL     1     -11.820  11.625  70.564  1.00  0.00    -0.328 C  
BRANCH   9  10
HETATM   10  C   UNL     1     -10.752  11.308  69.524  1.00  0.00    -0.147 C  
BRANCH  10  11
HETATM   11  C   UNL     1     -10.551  12.482  68.571  1.00  0.00    -0.262 C  
BRANCH  11  12
HETATM   12  C   UNL     1     -11.674  13.501  68.727  1.00  0.00    -0.373 C  
BRANCH  12  13
HETATM   13  C   UNL     1     -11.467  14.699  67.805  1.00  0.00    -0.359 C  
BRANCH  13  14
HETATM   14  C   UNL     1     -10.782  14.271  66.510  1.00  0.00    -0.297 C  
BRANCH  14  15
HETATM   15  C   UNL     1     -11.519  14.811  65.288  1.00  0.00    -0.352 C  
HETATM   16  C   UNL     1     -11.043  16.196  64.916  1.00  0.00    -0.325 C  
HETATM   17  O   UNL     1     -11.690  16.683  63.831  1.00  0.00    -1.153 OA 
HETATM   18  O   UNL     1     -10.180  16.830  65.501  1.00  0.00    -0.567 OA 
ENDBRANCH  14  15
ENDBRANCH  13  14
ENDBRANCH  12  13
ENDBRANCH  11  12
ENDBRANCH  10  11
ENDBRANCH   9  10
ENDBRANCH   8   9
ENDBRANCH   7   8
ENDBRANCH   6   7
ENDBRANCH   5   6
ENDBRANCH   4   5
ENDBRANCH   3   4
ENDBRANCH   2   3
TORSDOF 13
ENDMDL
MODEL       80
REMARK 921   NORMALIZED FREE ENERGY PREDICTED BY IDOCK:   -3.98 KCAL/MOL
REMARK 922        TOTAL FREE ENERGY PREDICTED BY IDOCK:   -8.41 KCAL/MOL
REMARK 923 INTER-LIGAND FREE ENERGY PREDICTED BY IDOCK:   -6.69 KCAL/MOL
REMARK 924 INTRA-LIGAND FREE ENERGY PREDICTED BY IDOCK:   -1.72 KCAL/MOL
REMARK 927      BINDING AFFINITY PREDICTED BY RF-SCORE:    0.00 PKD
ROOT
HETATM    1  C   UNL     1      -6.457  18.165  66.322  1.00  0.00    -0.255 C  
HETATM    2  C   UNL     1      -6.874  19.507  65.747  1.00  0.00    -0.298 C  
ENDROOT
BRANCH   2   3
HETATM    3  C   UNL     1      -7.070  20.543  66.852  1.00  0.00    -0.344 C  
BRANCH   3   4
HETATM    4  C   UNL     1      -8.274  20.197  67.723  1.00  0.00    -0.302 C  
BRANCH   4   5
HETATM    5  C   UNL     1      -9.578  20.433  66.966  1.00  0.00    -0.571 C  
BRANCH   5   6
HETATM    6  C   UNL     1     -10.575  19.311  67.235  1.00  0.00    -0.590 C  
BRANCH   6   7
HETATM    7  C   UNL     1     -10.288  18.108  66.341  1.00  0.00    -0.404 C  
BRANCH   7   8
HETATM    8  C   UNL     1     -10.352  16.812  67.140  1.00  0.00    -0.297 C  
BRANCH   8   9
HETATM    9  C   UNL     1      -9.419  16.874  68.345  1.00  0.00    -0.258 C  
BRANCH   9  10
HETATM   10  C   UNL     1      -8.409  15.733  68.306  1.00  0.00    -0.163 C  
BRANCH  10  11
HETATM   11  C   UNL     1      -8.669  14.813  67.117  1.00  0.00    -0.241 C  
BRANCH  11  12
HETATM   12  C   UNL     1      -8.622  13.351  67.547  1.00  0.00    -0.200 C  
BRANCH  12  13
HETATM   13  C   UNL     1      -9.607  12.506  66.744  1.00  0.00    -0.231 C  
BRANCH  13  14
HETATM   14  C   UNL     1     -10.416  13.381  65.790  1.00  0.00    -0.291 C  
BRANCH  14  15
HETATM   15  C   UNL     1     -11.079  12.546  64.699  1.00  0.00    -0.343 C  
HETATM   16  C   UNL     1     -12.538  12.902  64.532  1.00  0.00    -0.350 C  
HETATM   17  O   UNL     1     -13.135  12.167  63.565  1.00  0.00    -0.785 OA 
HETATM   18  O   UNL     1     -13.140  13.745  65.176  1.00  0.00    -0.762 OA 
ENDBRANCH  14  15
ENDBRANCH  13  14
ENDBRANCH  12  13
ENDBRANCH  11  12
ENDBRANCH  10  11
ENDBRANCH   9  10
ENDBRANCH   8   9
ENDBRANCH   7   8
ENDBRANCH   6   7
ENDBRANCH   5   6
ENDBRANCH   4   5
ENDBRANCH   3   4
ENDBRANCH   2   3
TORSDOF 13
ENDMDL
MODEL       81
REMARK 921   NORMALIZED FREE ENERGY PREDICTED BY IDOCK:   -3.98 KCAL/MOL
REMARK 922        TOTAL FREE ENERGY PREDICTED BY IDOCK:   -8.41 KCAL/MOL
REMARK 923 INTER-LIGAND FREE ENERGY PREDICTED BY IDOCK:   -6.92 KCAL/MOL
REMARK 924 INTRA-LIGAND FREE ENERGY PREDICTED BY IDOCK:   -1.49 KCAL/MOL
REMARK 927      BINDING AFFINITY PREDICTED BY RF-SCORE:    0.00 PKD
ROOT
HETATM    1  C   UNL     1     -12.466  15.436  74.428  1.00  0.00    -0.717 C  
HETATM    2  C   UNL     1     -12.482  16.035  73.032  1.00  0.00    -0.614 C  
ENDROOT
BRANCH   2   3
HETATM    3  C   UNL     1     -12.208  14.969  71.973  1.00  0.00    -0.436 C  
BRANCH   3   4
HETATM    4  C   UNL     1     -12.369  15.538  70.566  1.00  0.00    -0.461 C  
BRANCH   4   5
HETATM    5  C   UNL     1     -12.271  14.431  69.519  1.00  0.00    -0.325 C  
BRANCH   5   6
HETATM    6  C   UNL     1     -10.827  14.230  69.072  1.00  0.00    -0.274 C  
BRANCH   6   7
HETATM    7  C   UNL     1      -9.976  15.443  69.434  1.00  0.00    -0.272 C  
BRANCH   7   8
HETATM    8  C   UNL     1      -8.782  15.567  68.496  1.00  0.00    -0.184 C  
BRANCH   8   9
HETATM    9  C   UNL     1      -8.916  16.803  67.611  1.00  0.00    -0.210 C  
BRANCH   9  10
HETATM   10  C   UNL     1      -9.004  16.408  66.142  1.00  0.00    -0.367 C  
BRANCH  10  11
HETATM   11  C   UNL     1     -10.453  16.177  65.724  1.00  0.00    -0.384 C  
BRANCH  11  12
HETATM   12  C   UNL     1     -10.633  14.772  65.158  1.00  0.00    -0.439 C  
BRANCH  12  13
HETATM   13  C   UNL     1     -12.094  14.337  65.213  1.00  0.00    -0.400 C  
BRANCH  13  14
HETATM   14  C   UNL     1     -12.214  12.917  65.763  1.00  0.00    -0.498 C  
BRANCH  14  15
HETATM   15  C   UNL     1     -10.840  12.301  66.010  1.00  0.00    -0.310 C  
HETATM   16  C   UNL     1     -10.871  11.302  67.143  1.00  0.00    -0.270 C  
HETATM   17  O   UNL     1      -9.656  10.749  67.369  1.00  0.00    -0.158 OA 
HETATM   18  O   UNL     1     -11.856  11.005  67.800  1.00  0.00    -0.605 OA 
ENDBRANCH  14  15
ENDBRANCH  13  14
ENDBRANCH  12  13
ENDBRANCH  11  12
ENDBRANCH  10  11
ENDBRANCH   9  10
ENDBRANCH   8   9
ENDBRANCH   7   8
ENDBRANCH   6   7
ENDBRANCH   5   6
ENDBRANCH   4   5
ENDBRANCH   3   4
ENDBRANCH   2   3
TORSDOF 13
ENDMDL
MODEL       82
REMARK 921   NORMALIZED FREE ENERGY PREDICTED BY IDOCK:   -3.98 KCAL/MOL
REMARK 922        TOTAL FREE ENERGY PREDICTED BY IDOCK:   -8.41 KCAL/MOL
REMARK 923 INTER-LIGAND FREE ENERGY PREDICTED BY IDOCK:   -7.28 KCAL/MOL
REMARK 924 INTRA-LIGAND FREE ENERGY PREDICTED BY IDOCK:   -1.13 KCAL/MOL
REMARK 927      BINDING AFFINITY PREDICTED BY RF-SCORE:    0.00 PKD
ROOT
HETATM    1  C   UNL     1     -11.111   6.321  69.177  1.00  0.00    -0.457 C  
HETATM    2  C   UNL     1     -11.219   6.456  70.686  1.00  0.00    -0.400 C  
ENDROOT
BRANCH   2   3
HETATM    3  C   UNL     1     -12.531   7.126  71.087  1.00  0.00    -0.400 C  
BRANCH   3   4
HETATM    4  C   UNL     1     -12.295   8.228  72.116  1.00  0.00    -0.410 C  
BRANCH   4   5
HETATM    5  C   UNL     1     -11.644   9.446  71.466  1.00  0.00    -0.467 C  
BRANCH   5   6
HETATM    6  C   UNL     1     -12.620  10.616  71.400  1.00  0.00    -0.526 C  
BRANCH   6   7
HETATM    7  C   UNL     1     -12.088  11.711  70.482  1.00  0.00    -0.458 C  
BRANCH   7   8
HETATM    8  C   UNL     1     -11.561  11.118  69.180  1.00  0.00    -0.393 C  
BRANCH   8   9
HETATM    9  C   UNL     1     -10.449  11.988  68.601  1.00  0.00    -0.238 C  
BRANCH   9  10
HETATM   10  C   UNL     1     -10.935  13.417  68.393  1.00  0.00    -0.291 C  
BRANCH  10  11
HETATM   11  C   UNL     1     -11.935  13.493  67.243  1.00  0.00    -0.408 C  
BRANCH  11  12
HETATM   12  C   UNL     1     -11.550  14.600  66.267  1.00  0.00    -0.344 C  
BRANCH  12  13
HETATM   13  C   UNL     1     -11.939  14.238  64.837  1.00  0.00    -0.430 C  
BRANCH  13  14
HETATM   14  C   UNL     1     -12.377  12.777  64.751  1.00  0.00    -0.540 C  
BRANCH  14  15
HETATM   15  C   UNL     1     -11.638  12.042  63.638  1.00  0.00    -0.578 C  
HETATM   16  C   UNL     1     -10.536  11.164  64.184  1.00  0.00    -0.368 C  
HETATM   17  O   UNL     1      -9.875  10.505  63.204  1.00  0.00    -0.319 OA 
HETATM   18  O   UNL     1     -10.247  11.040  65.363  1.00  0.00    -0.251 OA 
ENDBRANCH  14  15
ENDBRANCH  13  14
ENDBRANCH  12  13
ENDBRANCH  11  12
ENDBRANCH  10  11
ENDBRANCH   9  10
ENDBRANCH   8   9
ENDBRANCH   7   8
ENDBRANCH   6   7
ENDBRANCH   5   6
ENDBRANCH   4   5
ENDBRANCH   3   4
ENDBRANCH   2   3
TORSDOF 13
ENDMDL
MODEL       83
REMARK 921   NORMALIZED FREE ENERGY PREDICTED BY IDOCK:   -3.97 KCAL/MOL
REMARK 922        TOTAL FREE ENERGY PREDICTED BY IDOCK:   -8.40 KCAL/MOL
REMARK 923 INTER-LIGAND FREE ENERGY PREDICTED BY IDOCK:   -6.13 KCAL/MOL
REMARK 924 INTRA-LIGAND FREE ENERGY PREDICTED BY IDOCK:   -2.27 KCAL/MOL
REMARK 927      BINDING AFFINITY PREDICTED BY RF-SCORE:    0.00 PKD
ROOT
HETATM    1  C   UNL     1     -14.173   7.655  71.596  1.00  0.00    -0.578 C  
HETATM    2  C   UNL     1     -13.282   8.748  72.162  1.00  0.00    -0.456 C  
ENDROOT
BRANCH   2   3
HETATM    3  C   UNL     1     -13.095   9.882  71.158  1.00  0.00    -0.453 C  
BRANCH   3   4
HETATM    4  C   UNL     1     -11.617  10.113  70.856  1.00  0.00    -0.459 C  
BRANCH   4   5
HETATM    5  C   UNL     1     -10.741   9.205  71.715  1.00  0.00    -0.405 C  
BRANCH   5   6
HETATM    6  C   UNL     1      -9.380   8.985  71.062  1.00  0.00    -0.339 C  
BRANCH   6   7
HETATM    7  C   UNL     1      -9.009   7.506  71.073  1.00  0.00    -0.147 C  
BRANCH   7   8
HETATM    8  C   UNL     1     -10.180   6.657  71.556  1.00  0.00    -0.218 C  
BRANCH   8   9
HETATM    9  C   UNL     1     -10.565   5.621  70.506  1.00  0.00    -0.354 C  
BRANCH   9  10
HETATM   10  C   UNL     1     -11.375   6.263  69.386  1.00  0.00    -0.448 C  
BRANCH  10  11
HETATM   11  C   UNL     1     -10.753   5.968  68.024  1.00  0.00    -0.359 C  
BRANCH  11  12
HETATM   12  C   UNL     1     -10.910   7.164  67.091  1.00  0.00    -0.403 C  
BRANCH  12  13
HETATM   13  C   UNL     1     -10.069   8.347  67.562  1.00  0.00    -0.279 C  
BRANCH  13  14
HETATM   14  C   UNL     1     -10.219   9.530  66.607  1.00  0.00    -0.310 C  
BRANCH  14  15
HETATM   15  C   UNL     1     -11.004  10.667  67.254  1.00  0.00    -0.348 C  
HETATM   16  C   UNL     1     -10.091  11.759  67.761  1.00  0.00    -0.188 C  
HETATM   17  O   UNL     1     -10.778  12.774  68.335  1.00  0.00    -0.235 OA 
HETATM   18  O   UNL     1      -8.873  11.759  67.681  1.00  0.00    -0.152 OA 
ENDBRANCH  14  15
ENDBRANCH  13  14
ENDBRANCH  12  13
ENDBRANCH  11  12
ENDBRANCH  10  11
ENDBRANCH   9  10
ENDBRANCH   8   9
ENDBRANCH   7   8
ENDBRANCH   6   7
ENDBRANCH   5   6
ENDBRANCH   4   5
ENDBRANCH   3   4
ENDBRANCH   2   3
TORSDOF 13
ENDMDL
MODEL       84
REMARK 921   NORMALIZED FREE ENERGY PREDICTED BY IDOCK:   -3.96 KCAL/MOL
REMARK 922        TOTAL FREE ENERGY PREDICTED BY IDOCK:   -8.38 KCAL/MOL
REMARK 923 INTER-LIGAND FREE ENERGY PREDICTED BY IDOCK:   -6.70 KCAL/MOL
REMARK 924 INTRA-LIGAND FREE ENERGY PREDICTED BY IDOCK:   -1.68 KCAL/MOL
REMARK 927      BINDING AFFINITY PREDICTED BY RF-SCORE:    0.00 PKD
ROOT
HETATM    1  C   UNL     1      -9.767   7.933  67.327  1.00  0.00    -0.230 C  
HETATM    2  C   UNL     1     -10.845   7.053  67.936  1.00  0.00    -0.252 C  
ENDROOT
BRANCH   2   3
HETATM    3  C   UNL     1     -10.420   6.528  69.305  1.00  0.00    -0.259 C  
BRANCH   3   4
HETATM    4  C   UNL     1     -11.152   7.259  70.426  1.00  0.00    -0.291 C  
BRANCH   4   5
HETATM    5  C   UNL     1     -10.180   8.095  71.255  1.00  0.00    -0.240 C  
BRANCH   5   6
HETATM    6  C   UNL     1     -10.134   9.534  70.752  1.00  0.00    -0.352 C  
BRANCH   6   7
HETATM    7  C   UNL     1     -11.536  10.131  70.695  1.00  0.00    -0.429 C  
BRANCH   7   8
HETATM    8  C   UNL     1     -11.805  10.753  69.329  1.00  0.00    -0.359 C  
BRANCH   8   9
HETATM    9  C   UNL     1     -11.713  12.274  69.401  1.00  0.00    -0.392 C  
BRANCH   9  10
HETATM   10  C   UNL     1     -10.920  12.823  68.221  1.00  0.00    -0.278 C  
BRANCH  10  11
HETATM   11  C   UNL     1     -10.120  11.718  67.538  1.00  0.00    -0.207 C  
BRANCH  11  12
HETATM   12  C   UNL     1      -9.436  12.246  66.281  1.00  0.00    -0.234 C  
BRANCH  12  13
HETATM   13  C   UNL     1      -9.212  11.132  65.262  1.00  0.00    -0.218 C  
BRANCH  13  14
HETATM   14  C   UNL     1     -10.441  10.960  64.373  1.00  0.00    -0.403 C  
BRANCH  14  15
HETATM   15  C   UNL     1     -10.747  12.237  63.596  1.00  0.00    -0.513 C  
HETATM   16  C   UNL     1     -12.131  12.760  63.903  1.00  0.00    -0.486 C  
HETATM   17  O   UNL     1     -12.411  13.894  63.219  1.00  0.00    -0.817 OA 
HETATM   18  O   UNL     1     -12.930  12.246  64.669  1.00  0.00    -0.741 OA 
ENDBRANCH  14  15
ENDBRANCH  13  14
ENDBRANCH  12  13
ENDBRANCH  11  12
ENDBRANCH  10  11
ENDBRANCH   9  10
ENDBRANCH   8   9
ENDBRANCH   7   8
ENDBRANCH   6   7
ENDBRANCH   5   6
ENDBRANCH   4   5
ENDBRANCH   3   4
ENDBRANCH   2   3
TORSDOF 13
ENDMDL
MODEL       85
REMARK 921   NORMALIZED FREE ENERGY PREDICTED BY IDOCK:   -3.96 KCAL/MOL
REMARK 922        TOTAL FREE ENERGY PREDICTED BY IDOCK:   -8.38 KCAL/MOL
REMARK 923 INTER-LIGAND FREE ENERGY PREDICTED BY IDOCK:   -7.01 KCAL/MOL
REMARK 924 INTRA-LIGAND FREE ENERGY PREDICTED BY IDOCK:   -1.37 KCAL/MOL
REMARK 927      BINDING AFFINITY PREDICTED BY RF-SCORE:    0.00 PKD
ROOT
HETATM    1  C   UNL     1     -12.241  12.710  63.447  1.00  0.00    -0.610 C  
HETATM    2  C   UNL     1     -12.502  12.674  64.943  1.00  0.00    -0.564 C  
ENDROOT
BRANCH   2   3
HETATM    3  C   UNL     1     -11.321  12.063  65.694  1.00  0.00    -0.381 C  
BRANCH   3   4
HETATM    4  C   UNL     1     -11.347  12.452  67.169  1.00  0.00    -0.390 C  
BRANCH   4   5
HETATM    5  C   UNL     1     -10.556  11.451  68.008  1.00  0.00    -0.224 C  
BRANCH   5   6
HETATM    6  C   UNL     1     -11.109  10.040  67.837  1.00  0.00    -0.260 C  
BRANCH   6   7
HETATM    7  C   UNL     1     -10.384   9.062  68.755  1.00  0.00    -0.236 C  
BRANCH   7   8
HETATM    8  C   UNL     1     -10.400   7.655  68.169  1.00  0.00    -0.250 C  
BRANCH   8   9
HETATM    9  C   UNL     1     -10.905   6.648  69.197  1.00  0.00    -0.329 C  
BRANCH   9  10
HETATM   10  C   UNL     1     -10.821   7.225  70.605  1.00  0.00    -0.261 C  
BRANCH  10  11
HETATM   11  C   UNL     1     -11.986   6.744  71.465  1.00  0.00    -0.396 C  
BRANCH  11  12
HETATM   12  C   UNL     1     -12.923   7.900  71.798  1.00  0.00    -0.351 C  
BRANCH  12  13
HETATM   13  C   UNL     1     -12.170   9.227  71.841  1.00  0.00    -0.448 C  
BRANCH  13  14
HETATM   14  C   UNL     1     -13.147  10.400  71.879  1.00  0.00    -0.563 C  
BRANCH  14  15
HETATM   15  C   UNL     1     -12.627  11.581  71.064  1.00  0.00    -0.457 C  
HETATM   16  C   UNL     1     -13.155  12.896  71.587  1.00  0.00    -0.335 C  
HETATM   17  O   UNL     1     -12.698  13.950  70.871  1.00  0.00    -0.333 OA 
HETATM   18  O   UNL     1     -13.906  13.031  72.539  1.00  0.00    -0.625 OA 
ENDBRANCH  14  15
ENDBRANCH  13  14
ENDBRANCH  12  13
ENDBRANCH  11  12
ENDBRANCH  10  11
ENDBRANCH   9  10
ENDBRANCH   8   9
ENDBRANCH   7   8
ENDBRANCH   6   7
ENDBRANCH   5   6
ENDBRANCH   4   5
ENDBRANCH   3   4
ENDBRANCH   2   3
TORSDOF 13
ENDMDL
MODEL       86
REMARK 921   NORMALIZED FREE ENERGY PREDICTED BY IDOCK:   -3.96 KCAL/MOL
REMARK 922        TOTAL FREE ENERGY PREDICTED BY IDOCK:   -8.37 KCAL/MOL
REMARK 923 INTER-LIGAND FREE ENERGY PREDICTED BY IDOCK:   -6.88 KCAL/MOL
REMARK 924 INTRA-LIGAND FREE ENERGY PREDICTED BY IDOCK:   -1.49 KCAL/MOL
REMARK 927      BINDING AFFINITY PREDICTED BY RF-SCORE:    0.00 PKD
ROOT
HETATM    1  C   UNL     1      -8.736   8.247  71.870  1.00  0.00    -0.230 C  
HETATM    2  C   UNL     1      -9.202   8.282  73.315  1.00  0.00    -0.263 C  
ENDROOT
BRANCH   2   3
HETATM    3  C   UNL     1     -10.037   7.050  73.655  1.00  0.00    -0.376 C  
BRANCH   3   4
HETATM    4  C   UNL     1     -10.417   6.278  72.395  1.00  0.00    -0.223 C  
BRANCH   4   5
HETATM    5  C   UNL     1     -11.930   6.094  72.307  1.00  0.00    -0.285 C  
BRANCH   5   6
HETATM    6  C   UNL     1     -12.510   6.899  71.149  1.00  0.00    -0.398 C  
BRANCH   6   7
HETATM    7  C   UNL     1     -13.645   7.797  71.632  1.00  0.00    -0.416 C  
BRANCH   7   8
HETATM    8  C   UNL     1     -13.105   9.135  72.124  1.00  0.00    -0.516 C  
BRANCH   8   9
HETATM    9  C   UNL     1     -12.901  10.097  70.959  1.00  0.00    -0.474 C  
BRANCH   9  10
HETATM   10  C   UNL     1     -11.416  10.327  70.702  1.00  0.00    -0.435 C  
BRANCH  10  11
HETATM   11  C   UNL     1     -11.054   9.999  69.256  1.00  0.00    -0.248 C  
BRANCH  11  12
HETATM   12  C   UNL     1     -10.300  11.159  68.615  1.00  0.00    -0.219 C  
BRANCH  12  13
HETATM   13  C   UNL     1     -10.888  11.516  67.252  1.00  0.00    -0.301 C  
BRANCH  13  14
HETATM   14  C   UNL     1     -12.007  12.544  67.400  1.00  0.00    -0.283 C  
BRANCH  14  15
HETATM   15  C   UNL     1     -11.783  13.743  66.483  1.00  0.00    -0.412 C  
HETATM   16  C   UNL     1     -12.471  13.562  65.150  1.00  0.00    -0.451 C  
HETATM   17  O   UNL     1     -12.279  14.622  64.329  1.00  0.00    -0.495 OA 
HETATM   18  O   UNL     1     -13.129  12.590  64.817  1.00  0.00    -0.853 OA 
ENDBRANCH  14  15
ENDBRANCH  13  14
ENDBRANCH  12  13
ENDBRANCH  11  12
ENDBRANCH  10  11
ENDBRANCH   9  10
ENDBRANCH   8   9
ENDBRANCH   7   8
ENDBRANCH   6   7
ENDBRANCH   5   6
ENDBRANCH   4   5
ENDBRANCH   3   4
ENDBRANCH   2   3
TORSDOF 13
ENDMDL
MODEL       87
REMARK 921   NORMALIZED FREE ENERGY PREDICTED BY IDOCK:   -3.94 KCAL/MOL
REMARK 922        TOTAL FREE ENERGY PREDICTED BY IDOCK:   -8.34 KCAL/MOL
REMARK 923 INTER-LIGAND FREE ENERGY PREDICTED BY IDOCK:   -6.84 KCAL/MOL
REMARK 924 INTRA-LIGAND FREE ENERGY PREDICTED BY IDOCK:   -1.50 KCAL/MOL
REMARK 927      BINDING AFFINITY PREDICTED BY RF-SCORE:    0.00 PKD
ROOT
HETATM    1  C   UNL     1     -13.382  13.023  71.948  1.00  0.00    -0.539 C  
HETATM    2  C   UNL     1     -13.805  14.417  72.377  1.00  0.00    -0.595 C  
ENDROOT
BRANCH   2   3
HETATM    3  C   UNL     1     -13.346  15.467  71.368  1.00  0.00    -0.601 C  
BRANCH   3   4
HETATM    4  C   UNL     1     -11.940  15.164  70.860  1.00  0.00    -0.378 C  
BRANCH   4   5
HETATM    5  C   UNL     1     -11.885  15.243  69.337  1.00  0.00    -0.367 C  
BRANCH   5   6
HETATM    6  C   UNL     1     -11.863  13.849  68.719  1.00  0.00    -0.396 C  
BRANCH   6   7
HETATM    7  C   UNL     1     -11.937  13.932  67.198  1.00  0.00    -0.455 C  
BRANCH   7   8
HETATM    8  C   UNL     1     -10.714  14.646  66.634  1.00  0.00    -0.305 C  
BRANCH   8   9
HETATM    9  C   UNL     1      -9.518  13.702  66.572  1.00  0.00    -0.270 C  
BRANCH   9  10
HETATM   10  C   UNL     1      -8.292  14.342  67.212  1.00  0.00    -0.222 C  
BRANCH  10  11
HETATM   11  C   UNL     1      -8.608  15.747  67.717  1.00  0.00    -0.164 C  
BRANCH  11  12
HETATM   12  C   UNL     1      -7.349  16.608  67.736  1.00  0.00    -0.163 C  
BRANCH  12  13
HETATM   13  C   UNL     1      -7.672  18.051  68.113  1.00  0.00    -0.274 C  
BRANCH  13  14
HETATM   14  C   UNL     1      -9.172  18.226  68.341  1.00  0.00    -0.332 C  
BRANCH  14  15
HETATM   15  C   UNL     1      -9.693  19.484  67.652  1.00  0.00    -0.450 C  
HETATM   16  C   UNL     1     -10.166  19.196  66.246  1.00  0.00    -0.452 C  
HETATM   17  O   UNL     1     -10.632  20.306  65.627  1.00  0.00    -0.331 OA 
HETATM   18  O   UNL     1     -10.144  18.105  65.700  1.00  0.00    -0.544 OA 
ENDBRANCH  14  15
ENDBRANCH  13  14
ENDBRANCH  12  13
ENDBRANCH  11  12
ENDBRANCH  10  11
ENDBRANCH   9  10
ENDBRANCH   8   9
ENDBRANCH   7   8
ENDBRANCH   6   7
ENDBRANCH   5   6
ENDBRANCH   4   5
ENDBRANCH   3   4
ENDBRANCH   2   3
TORSDOF 13
ENDMDL
MODEL       88
REMARK 921   NORMALIZED FREE ENERGY PREDICTED BY IDOCK:   -3.93 KCAL/MOL
REMARK 922        TOTAL FREE ENERGY PREDICTED BY IDOCK:   -8.33 KCAL/MOL
REMARK 923 INTER-LIGAND FREE ENERGY PREDICTED BY IDOCK:   -7.12 KCAL/MOL
REMARK 924 INTRA-LIGAND FREE ENERGY PREDICTED BY IDOCK:   -1.20 KCAL/MOL
REMARK 927      BINDING AFFINITY PREDICTED BY RF-SCORE:    0.00 PKD
ROOT
HETATM    1  C   UNL     1     -10.923   4.876  73.641  1.00  0.00    -0.387 C  
HETATM    2  C   UNL     1     -10.547   4.522  72.213  1.00  0.00    -0.173 C  
ENDROOT
BRANCH   2   3
HETATM    3  C   UNL     1     -10.159   5.768  71.421  1.00  0.00    -0.249 C  
BRANCH   3   4
HETATM    4  C   UNL     1     -11.257   6.160  70.436  1.00  0.00    -0.423 C  
BRANCH   4   5
HETATM    5  C   UNL     1     -12.102   7.302  70.993  1.00  0.00    -0.361 C  
BRANCH   5   6
HETATM    6  C   UNL     1     -11.275   8.195  71.912  1.00  0.00    -0.351 C  
BRANCH   6   7
HETATM    7  C   UNL     1     -11.106   9.584  71.306  1.00  0.00    -0.449 C  
BRANCH   7   8
HETATM    8  C   UNL     1      -9.947   9.606  70.316  1.00  0.00    -0.326 C  
BRANCH   8   9
HETATM    9  C   UNL     1     -10.412  10.109  68.953  1.00  0.00    -0.230 C  
BRANCH   9  10
HETATM   10  C   UNL     1     -11.708  10.900  69.082  1.00  0.00    -0.397 C  
BRANCH  10  11
HETATM   11  C   UNL     1     -11.671  12.158  68.220  1.00  0.00    -0.401 C  
BRANCH  11  12
HETATM   12  C   UNL     1     -11.164  11.835  66.818  1.00  0.00    -0.388 C  
BRANCH  12  13
HETATM   13  C   UNL     1     -10.077  12.814  66.384  1.00  0.00    -0.266 C  
BRANCH  13  14
HETATM   14  C   UNL     1     -10.541  14.256  66.577  1.00  0.00    -0.286 C  
BRANCH  14  15
HETATM   15  C   UNL     1     -11.348  14.744  65.377  1.00  0.00    -0.356 C  
HETATM   16  C   UNL     1     -10.883  16.103  64.908  1.00  0.00    -0.334 C  
HETATM   17  O   UNL     1     -11.592  16.544  63.842  1.00  0.00    -1.175 OA 
HETATM   18  O   UNL     1      -9.980  16.755  65.406  1.00  0.00    -0.572 OA 
ENDBRANCH  14  15
ENDBRANCH  13  14
ENDBRANCH  12  13
ENDBRANCH  11  12
ENDBRANCH  10  11
ENDBRANCH   9  10
ENDBRANCH   8   9
ENDBRANCH   7   8
ENDBRANCH   6   7
ENDBRANCH   5   6
ENDBRANCH   4   5
ENDBRANCH   3   4
ENDBRANCH   2   3
TORSDOF 13
ENDMDL
MODEL       89
REMARK 921   NORMALIZED FREE ENERGY PREDICTED BY IDOCK:   -3.93 KCAL/MOL
REMARK 922        TOTAL FREE ENERGY PREDICTED BY IDOCK:   -8.32 KCAL/MOL
REMARK 923 INTER-LIGAND FREE ENERGY PREDICTED BY IDOCK:   -6.48 KCAL/MOL
REMARK 924 INTRA-LIGAND FREE ENERGY PREDICTED BY IDOCK:   -1.84 KCAL/MOL
REMARK 927      BINDING AFFINITY PREDICTED BY RF-SCORE:    0.00 PKD
ROOT
HETATM    1  C   UNL     1      -9.223   9.314  65.743  1.00  0.00    -0.283 C  
HETATM    2  C   UNL     1      -9.531  10.057  64.454  1.00  0.00    -0.349 C  
ENDROOT
BRANCH   2   3
HETATM    3  C   UNL     1     -10.678  11.046  64.649  1.00  0.00    -0.318 C  
BRANCH   3   4
HETATM    4  C   UNL     1     -11.027  11.749  63.340  1.00  0.00    -0.458 C  
BRANCH   4   5
HETATM    5  C   UNL     1     -12.135  12.776  63.555  1.00  0.00    -0.642 C  
BRANCH   5   6
HETATM    6  C   UNL     1     -12.586  12.795  65.012  1.00  0.00    -0.538 C  
BRANCH   6   7
HETATM    7  C   UNL     1     -12.312  14.155  65.644  1.00  0.00    -0.473 C  
BRANCH   7   8
HETATM    8  C   UNL     1     -11.217  14.896  64.884  1.00  0.00    -0.415 C  
BRANCH   8   9
HETATM    9  C   UNL     1      -9.898  14.843  65.647  1.00  0.00    -0.372 C  
BRANCH   9  10
HETATM   10  C   UNL     1     -10.011  13.922  66.857  1.00  0.00    -0.264 C  
BRANCH  10  11
HETATM   11  C   UNL     1      -8.794  13.007  66.963  1.00  0.00    -0.213 C  
BRANCH  11  12
HETATM   12  C   UNL     1      -8.970  12.009  68.103  1.00  0.00    -0.190 C  
BRANCH  12  13
HETATM   13  C   UNL     1     -10.445  11.794  68.428  1.00  0.00    -0.231 C  
BRANCH  13  14
HETATM   14  C   UNL     1     -10.616  10.656  69.432  1.00  0.00    -0.270 C  
BRANCH  14  15
HETATM   15  C   UNL     1     -12.024  10.644  70.021  1.00  0.00    -0.408 C  
HETATM   16  C   UNL     1     -12.130   9.696  71.193  1.00  0.00    -0.362 C  
HETATM   17  O   UNL     1     -13.375   9.679  71.724  1.00  0.00    -0.381 OA 
HETATM   18  O   UNL     1     -11.223   9.010  71.635  1.00  0.00    -0.312 OA 
ENDBRANCH  14  15
ENDBRANCH  13  14
ENDBRANCH  12  13
ENDBRANCH  11  12
ENDBRANCH  10  11
ENDBRANCH   9  10
ENDBRANCH   8   9
ENDBRANCH   7   8
ENDBRANCH   6   7
ENDBRANCH   5   6
ENDBRANCH   4   5
ENDBRANCH   3   4
ENDBRANCH   2   3
TORSDOF 13
ENDMDL
MODEL       90
REMARK 921   NORMALIZED FREE ENERGY PREDICTED BY IDOCK:   -3.92 KCAL/MOL
REMARK 922        TOTAL FREE ENERGY PREDICTED BY IDOCK:   -8.31 KCAL/MOL
REMARK 923 INTER-LIGAND FREE ENERGY PREDICTED BY IDOCK:   -6.31 KCAL/MOL
REMARK 924 INTRA-LIGAND FREE ENERGY PREDICTED BY IDOCK:   -2.00 KCAL/MOL
REMARK 927      BINDING AFFINITY PREDICTED BY RF-SCORE:    0.00 PKD
ROOT
HETATM    1  C   UNL     1     -12.671  10.213  71.161  1.00  0.00    -0.494 C  
HETATM    2  C   UNL     1     -12.813  11.708  71.389  1.00  0.00    -0.461 C  
ENDROOT
BRANCH   2   3
HETATM    3  C   UNL     1     -12.078  12.501  70.311  1.00  0.00    -0.373 C  
BRANCH   3   4
HETATM    4  C   UNL     1     -12.323  13.999  70.467  1.00  0.00    -0.437 C  
BRANCH   4   5
HETATM    5  C   UNL     1     -11.196  14.804  69.825  1.00  0.00    -0.306 C  
BRANCH   5   6
HETATM    6  C   UNL     1     -11.735  15.719  68.731  1.00  0.00    -0.387 C  
BRANCH   6   7
HETATM    7  C   UNL     1     -10.645  16.664  68.233  1.00  0.00    -0.338 C  
BRANCH   7   8
HETATM    8  C   UNL     1      -9.262  16.135  68.597  1.00  0.00    -0.220 C  
BRANCH   8   9
HETATM    9  C   UNL     1      -8.353  16.114  67.373  1.00  0.00    -0.191 C  
BRANCH   9  10
HETATM   10  C   UNL     1      -7.477  14.866  67.374  1.00  0.00    -0.228 C  
BRANCH  10  11
HETATM   11  C   UNL     1      -8.169  13.712  68.092  1.00  0.00    -0.158 C  
BRANCH  11  12
HETATM   12  C   UNL     1      -8.456  12.570  67.123  1.00  0.00    -0.186 C  
BRANCH  12  13
HETATM   13  C   UNL     1      -9.953  12.289  67.026  1.00  0.00    -0.220 C  
BRANCH  13  14
HETATM   14  C   UNL     1     -10.639  13.321  66.134  1.00  0.00    -0.293 C  
BRANCH  14  15
HETATM   15  C   UNL     1     -12.078  12.918  65.825  1.00  0.00    -0.513 C  
HETATM   16  C   UNL     1     -12.218  12.380  64.420  1.00  0.00    -0.437 C  
HETATM   17  O   UNL     1     -13.492  12.018  64.137  1.00  0.00    -0.672 OA 
HETATM   18  O   UNL     1     -11.313  12.272  63.609  1.00  0.00    -0.399 OA 
ENDBRANCH  14  15
ENDBRANCH  13  14
ENDBRANCH  12  13
ENDBRANCH  11  12
ENDBRANCH  10  11
ENDBRANCH   9  10
ENDBRANCH   8   9
ENDBRANCH   7   8
ENDBRANCH   6   7
ENDBRANCH   5   6
ENDBRANCH   4   5
ENDBRANCH   3   4
ENDBRANCH   2   3
TORSDOF 13
ENDMDL
MODEL       91
REMARK 921   NORMALIZED FREE ENERGY PREDICTED BY IDOCK:   -3.92 KCAL/MOL
REMARK 922        TOTAL FREE ENERGY PREDICTED BY IDOCK:   -8.30 KCAL/MOL
REMARK 923 INTER-LIGAND FREE ENERGY PREDICTED BY IDOCK:   -6.95 KCAL/MOL
REMARK 924 INTRA-LIGAND FREE ENERGY PREDICTED BY IDOCK:   -1.35 KCAL/MOL
REMARK 927      BINDING AFFINITY PREDICTED BY RF-SCORE:    0.00 PKD
ROOT
HETATM    1  C   UNL     1     -10.538  19.477  66.892  1.00  0.00    -0.602 C  
HETATM    2  C   UNL     1     -10.194  18.017  66.653  1.00  0.00    -0.375 C  
ENDROOT
BRANCH   2   3
HETATM    3  C   UNL     1     -10.589  17.156  67.851  1.00  0.00    -0.376 C  
BRANCH   3   4
HETATM    4  C   UNL     1     -10.114  15.716  67.673  1.00  0.00    -0.248 C  
BRANCH   4   5
HETATM    5  C   UNL     1     -10.707  15.101  66.409  1.00  0.00    -0.317 C  
BRANCH   5   6
HETATM    6  C   UNL     1     -11.834  14.132  66.751  1.00  0.00    -0.449 C  
BRANCH   6   7
HETATM    7  C   UNL     1     -12.760  13.937  65.555  1.00  0.00    -0.536 C  
BRANCH   7   8
HETATM    8  C   UNL     1     -11.978  14.001  64.248  1.00  0.00    -0.463 C  
BRANCH   8   9
HETATM    9  C   UNL     1     -11.795  12.606  63.660  1.00  0.00    -0.606 C  
BRANCH   9  10
HETATM   10  C   UNL     1     -10.349  12.147  63.799  1.00  0.00    -0.465 C  
BRANCH  10  11
HETATM   11  C   UNL     1     -10.232  11.002  64.800  1.00  0.00    -0.381 C  
BRANCH  11  12
HETATM   12  C   UNL     1      -9.546  11.472  66.078  1.00  0.00    -0.251 C  
BRANCH  12  13
HETATM   13  C   UNL     1      -9.139  10.291  66.955  1.00  0.00    -0.154 C  
BRANCH  13  14
HETATM   14  C   UNL     1     -10.372   9.563  67.486  1.00  0.00    -0.306 C  
BRANCH  14  15
HETATM   15  C   UNL     1     -10.529   9.763  68.990  1.00  0.00    -0.229 C  
HETATM   16  C   UNL     1     -11.590  10.790  69.310  1.00  0.00    -0.305 C  
HETATM   17  O   UNL     1     -11.737  10.973  70.643  1.00  0.00    -0.329 OA 
HETATM   18  O   UNL     1     -12.254  11.402  68.490  1.00  0.00    -0.557 OA 
ENDBRANCH  14  15
ENDBRANCH  13  14
ENDBRANCH  12  13
ENDBRANCH  11  12
ENDBRANCH  10  11
ENDBRANCH   9  10
ENDBRANCH   8   9
ENDBRANCH   7   8
ENDBRANCH   6   7
ENDBRANCH   5   6
ENDBRANCH   4   5
ENDBRANCH   3   4
ENDBRANCH   2   3
TORSDOF 13
ENDMDL
MODEL       92
REMARK 921   NORMALIZED FREE ENERGY PREDICTED BY IDOCK:   -3.92 KCAL/MOL
REMARK 922        TOTAL FREE ENERGY PREDICTED BY IDOCK:   -8.30 KCAL/MOL
REMARK 923 INTER-LIGAND FREE ENERGY PREDICTED BY IDOCK:   -7.11 KCAL/MOL
REMARK 924 INTRA-LIGAND FREE ENERGY PREDICTED BY IDOCK:   -1.19 KCAL/MOL
REMARK 927      BINDING AFFINITY PREDICTED BY RF-SCORE:    0.00 PKD
ROOT
HETATM    1  C   UNL     1     -10.433  11.231  65.361  1.00  0.00    -0.326 C  
HETATM    2  C   UNL     1     -11.214  11.901  66.479  1.00  0.00    -0.383 C  
ENDROOT
BRANCH   2   3
HETATM    3  C   UNL     1     -11.299  13.410  66.265  1.00  0.00    -0.329 C  
BRANCH   3   4
HETATM    4  C   UNL     1     -12.036  14.089  67.416  1.00  0.00    -0.439 C  
BRANCH   4   5
HETATM    5  C   UNL     1     -11.188  15.206  68.019  1.00  0.00    -0.329 C  
BRANCH   5   6
HETATM    6  C   UNL     1     -10.905  14.939  69.494  1.00  0.00    -0.272 C  
BRANCH   6   7
HETATM    7  C   UNL     1     -11.146  16.196  70.325  1.00  0.00    -0.375 C  
BRANCH   7   8
HETATM    8  C   UNL     1     -12.051  15.894  71.513  1.00  0.00    -0.533 C  
BRANCH   8   9
HETATM    9  C   UNL     1     -13.067  14.813  71.158  1.00  0.00    -0.443 C  
BRANCH   9  10
HETATM   10  C   UNL     1     -13.405  13.968  72.380  1.00  0.00    -0.617 C  
BRANCH  10  11
HETATM   11  C   UNL     1     -13.357  12.480  72.046  1.00  0.00    -0.528 C  
BRANCH  11  12
HETATM   12  C   UNL     1     -12.421  12.222  70.870  1.00  0.00    -0.371 C  
BRANCH  12  13
HETATM   13  C   UNL     1     -12.345  10.734  70.539  1.00  0.00    -0.458 C  
BRANCH  13  14
HETATM   14  C   UNL     1     -12.995   9.902  71.642  1.00  0.00    -0.536 C  
BRANCH  14  15
HETATM   15  C   UNL     1     -13.079   8.430  71.249  1.00  0.00    -0.163 C  
HETATM   16  C   UNL     1     -12.137   7.579  72.069  1.00  0.00    -0.291 C  
HETATM   17  O   UNL     1     -12.206   6.270  71.729  1.00  0.00    -0.312 OA 
HETATM   18  O   UNL     1     -11.389   7.988  72.942  1.00  0.00    -0.408 OA 
ENDBRANCH  14  15
ENDBRANCH  13  14
ENDBRANCH  12  13
ENDBRANCH  11  12
ENDBRANCH  10  11
ENDBRANCH   9  10
ENDBRANCH   8   9
ENDBRANCH   7   8
ENDBRANCH   6   7
ENDBRANCH   5   6
ENDBRANCH   4   5
ENDBRANCH   3   4
ENDBRANCH   2   3
TORSDOF 13
ENDMDL
MODEL       93
REMARK 921   NORMALIZED FREE ENERGY PREDICTED BY IDOCK:   -3.91 KCAL/MOL
REMARK 922        TOTAL FREE ENERGY PREDICTED BY IDOCK:   -8.28 KCAL/MOL
REMARK 923 INTER-LIGAND FREE ENERGY PREDICTED BY IDOCK:   -6.44 KCAL/MOL
REMARK 924 INTRA-LIGAND FREE ENERGY PREDICTED BY IDOCK:   -1.84 KCAL/MOL
REMARK 927      BINDING AFFINITY PREDICTED BY RF-SCORE:    0.00 PKD
ROOT
HETATM    1  C   UNL     1      -8.023  12.194  67.195  1.00  0.00    -0.170 C  
HETATM    2  C   UNL     1      -7.947  10.979  66.286  1.00  0.00    -0.148 C  
ENDROOT
BRANCH   2   3
HETATM    3  C   UNL     1      -9.188  10.873  65.403  1.00  0.00    -0.231 C  
BRANCH   3   4
HETATM    4  C   UNL     1     -10.257  10.005  66.059  1.00  0.00    -0.277 C  
BRANCH   4   5
HETATM    5  C   UNL     1      -9.628   8.799  66.751  1.00  0.00    -0.267 C  
BRANCH   5   6
HETATM    6  C   UNL     1     -10.340   8.490  68.064  1.00  0.00    -0.272 C  
BRANCH   6   7
HETATM    7  C   UNL     1      -9.659   9.204  69.228  1.00  0.00    -0.159 C  
BRANCH   7   8
HETATM    8  C   UNL     1     -10.689   9.874  70.129  1.00  0.00    -0.361 C  
BRANCH   8   9
HETATM    9  C   UNL     1     -11.466  10.940  69.363  1.00  0.00    -0.373 C  
BRANCH   9  10
HETATM   10  C   UNL     1     -12.143  11.910  70.325  1.00  0.00    -0.409 C  
BRANCH  10  11
HETATM   11  C   UNL     1     -11.934  13.354  69.882  1.00  0.00    -0.408 C  
BRANCH  11  12
HETATM   12  C   UNL     1     -11.158  13.408  68.570  1.00  0.00    -0.299 C  
BRANCH  12  13
HETATM   13  C   UNL     1     -12.010  13.994  67.447  1.00  0.00    -0.439 C  
BRANCH  13  14
HETATM   14  C   UNL     1     -11.432  13.624  66.083  1.00  0.00    -0.342 C  
BRANCH  14  15
HETATM   15  C   UNL     1     -12.008  14.507  64.980  1.00  0.00    -0.399 C  
HETATM   16  C   UNL     1     -11.185  15.759  64.780  1.00  0.00    -0.366 C  
HETATM   17  O   UNL     1     -11.688  16.548  63.801  1.00  0.00    -1.086 OA 
HETATM   18  O   UNL     1     -10.182  16.056  65.407  1.00  0.00    -0.437 OA 
ENDBRANCH  14  15
ENDBRANCH  13  14
ENDBRANCH  12  13
ENDBRANCH  11  12
ENDBRANCH  10  11
ENDBRANCH   9  10
ENDBRANCH   8   9
ENDBRANCH   7   8
ENDBRANCH   6   7
ENDBRANCH   5   6
ENDBRANCH   4   5
ENDBRANCH   3   4
ENDBRANCH   2   3
TORSDOF 13
ENDMDL
MODEL       94
REMARK 921   NORMALIZED FREE ENERGY PREDICTED BY IDOCK:   -3.90 KCAL/MOL
REMARK 922        TOTAL FREE ENERGY PREDICTED BY IDOCK:   -8.27 KCAL/MOL
REMARK 923 INTER-LIGAND FREE ENERGY PREDICTED BY IDOCK:   -6.75 KCAL/MOL
REMARK 924 INTRA-LIGAND FREE ENERGY PREDICTED BY IDOCK:   -1.52 KCAL/MOL
REMARK 927      BINDING AFFINITY PREDICTED BY RF-SCORE:    0.00 PKD
ROOT
HETATM    1  C   UNL     1     -12.303  12.379  63.341  1.00  0.00    -0.603 C  
HETATM    2  C   UNL     1     -10.840  12.429  63.746  1.00  0.00    -0.500 C  
ENDROOT
BRANCH   2   3
HETATM    3  C   UNL     1     -10.593  13.519  64.786  1.00  0.00    -0.429 C  
BRANCH   3   4
HETATM    4  C   UNL     1     -10.325  12.916  66.162  1.00  0.00    -0.286 C  
BRANCH   4   5
HETATM    5  C   UNL     1     -11.634  12.584  66.873  1.00  0.00    -0.436 C  
BRANCH   5   6
HETATM    6  C   UNL     1     -11.416  11.530  67.953  1.00  0.00    -0.372 C  
BRANCH   6   7
HETATM    7  C   UNL     1     -11.113  12.188  69.296  1.00  0.00    -0.229 C  
BRANCH   7   8
HETATM    8  C   UNL     1     -12.240  11.935  70.290  1.00  0.00    -0.353 C  
BRANCH   8   9
HETATM    9  C   UNL     1     -12.582  13.209  71.054  1.00  0.00    -0.397 C  
BRANCH   9  10
HETATM   10  C   UNL     1     -12.525  14.423  70.134  1.00  0.00    -0.395 C  
BRANCH  10  11
HETATM   11  C   UNL     1     -11.731  15.558  70.773  1.00  0.00    -0.397 C  
BRANCH  11  12
HETATM   12  C   UNL     1     -10.437  15.808  70.006  1.00  0.00    -0.313 C  
BRANCH  12  13
HETATM   13  C   UNL     1     -10.670  15.759  68.498  1.00  0.00    -0.274 C  
BRANCH  13  14
HETATM   14  C   UNL     1     -10.678  17.167  67.907  1.00  0.00    -0.355 C  
BRANCH  14  15
HETATM   15  C   UNL     1      -9.274  17.762  67.874  1.00  0.00    -0.265 C  
HETATM   16  C   UNL     1      -9.211  19.084  68.603  1.00  0.00    -0.368 C  
HETATM   17  O   UNL     1      -7.967  19.620  68.581  1.00  0.00    -0.343 OA 
HETATM   18  O   UNL     1     -10.148  19.634  69.157  1.00  0.00    -0.438 OA 
ENDBRANCH  14  15
ENDBRANCH  13  14
ENDBRANCH  12  13
ENDBRANCH  11  12
ENDBRANCH  10  11
ENDBRANCH   9  10
ENDBRANCH   8   9
ENDBRANCH   7   8
ENDBRANCH   6   7
ENDBRANCH   5   6
ENDBRANCH   4   5
ENDBRANCH   3   4
ENDBRANCH   2   3
TORSDOF 13
ENDMDL
MODEL       95
REMARK 921   NORMALIZED FREE ENERGY PREDICTED BY IDOCK:   -3.90 KCAL/MOL
REMARK 922        TOTAL FREE ENERGY PREDICTED BY IDOCK:   -8.27 KCAL/MOL
REMARK 923 INTER-LIGAND FREE ENERGY PREDICTED BY IDOCK:   -6.38 KCAL/MOL
REMARK 924 INTRA-LIGAND FREE ENERGY PREDICTED BY IDOCK:   -1.89 KCAL/MOL
REMARK 927      BINDING AFFINITY PREDICTED BY RF-SCORE:    0.00 PKD
ROOT
HETATM    1  C   UNL     1     -12.501  11.868  63.388  1.00  0.00    -0.582 C  
HETATM    2  C   UNL     1     -11.019  12.199  63.426  1.00  0.00    -0.480 C  
ENDROOT
BRANCH   2   3
HETATM    3  C   UNL     1     -10.193  10.979  63.828  1.00  0.00    -0.425 C  
BRANCH   3   4
HETATM    4  C   UNL     1      -9.491  11.205  65.164  1.00  0.00    -0.257 C  
BRANCH   4   5
HETATM    5  C   UNL     1     -10.249  10.518  66.297  1.00  0.00    -0.296 C  
BRANCH   5   6
HETATM    6  C   UNL     1     -10.347  11.428  67.517  1.00  0.00    -0.224 C  
BRANCH   6   7
HETATM    7  C   UNL     1     -11.733  12.059  67.609  1.00  0.00    -0.365 C  
BRANCH   7   8
HETATM    8  C   UNL     1     -11.645  13.577  67.509  1.00  0.00    -0.385 C  
BRANCH   8   9
HETATM    9  C   UNL     1     -12.313  14.074  66.231  1.00  0.00    -0.482 C  
BRANCH   9  10
HETATM   10  C   UNL     1     -11.405  15.051  65.493  1.00  0.00    -0.312 C  
BRANCH  10  11
HETATM   11  C   UNL     1      -9.937  14.781  65.810  1.00  0.00    -0.375 C  
BRANCH  11  12
HETATM   12  C   UNL     1      -9.235  16.065  66.239  1.00  0.00    -0.368 C  
BRANCH  12  13
HETATM   13  C   UNL     1     -10.214  17.044  66.881  1.00  0.00    -0.305 C  
BRANCH  13  14
HETATM   14  C   UNL     1      -9.739  18.483  66.694  1.00  0.00    -0.353 C  
BRANCH  14  15
HETATM   15  C   UNL     1      -9.277  19.090  68.015  1.00  0.00    -0.355 C  
HETATM   16  C   UNL     1      -7.782  18.964  68.195  1.00  0.00    -0.287 C  
HETATM   17  O   UNL     1      -7.362  19.502  69.364  1.00  0.00    -0.332 OA 
HETATM   18  O   UNL     1      -7.014  18.446  67.401  1.00  0.00    -0.200 OA 
ENDBRANCH  14  15
ENDBRANCH  13  14
ENDBRANCH  12  13
ENDBRANCH  11  12
ENDBRANCH  10  11
ENDBRANCH   9  10
ENDBRANCH   8   9
ENDBRANCH   7   8
ENDBRANCH   6   7
ENDBRANCH   5   6
ENDBRANCH   4   5
ENDBRANCH   3   4
ENDBRANCH   2   3
TORSDOF 13
ENDMDL
MODEL       96
REMARK 921   NORMALIZED FREE ENERGY PREDICTED BY IDOCK:   -3.90 KCAL/MOL
REMARK 922        TOTAL FREE ENERGY PREDICTED BY IDOCK:   -8.27 KCAL/MOL
REMARK 923 INTER-LIGAND FREE ENERGY PREDICTED BY IDOCK:   -7.30 KCAL/MOL
REMARK 924 INTRA-LIGAND FREE ENERGY PREDICTED BY IDOCK:   -0.97 KCAL/MOL
REMARK 927      BINDING AFFINITY PREDICTED BY RF-SCORE:    0.00 PKD
ROOT
HETATM    1  C   UNL     1     -11.288   8.022  72.681  1.00  0.00    -0.469 C  
HETATM    2  C   UNL     1     -12.162   8.539  71.551  1.00  0.00    -0.355 C  
ENDROOT
BRANCH   2   3
HETATM    3  C   UNL     1     -13.082   9.657  72.033  1.00  0.00    -0.537 C  
BRANCH   3   4
HETATM    4  C   UNL     1     -12.742  10.981  71.355  1.00  0.00    -0.534 C  
BRANCH   4   5
HETATM    5  C   UNL     1     -11.637  10.792  70.320  1.00  0.00    -0.427 C  
BRANCH   5   6
HETATM    6  C   UNL     1     -12.047  11.377  68.972  1.00  0.00    -0.316 C  
BRANCH   6   7
HETATM    7  C   UNL     1     -11.271  10.716  67.838  1.00  0.00    -0.376 C  
BRANCH   7   8
HETATM    8  C   UNL     1     -10.973  11.718  66.729  1.00  0.00    -0.336 C  
BRANCH   8   9
HETATM    9  C   UNL     1     -11.909  12.918  66.820  1.00  0.00    -0.452 C  
BRANCH   9  10
HETATM   10  C   UNL     1     -12.146  13.524  65.442  1.00  0.00    -0.447 C  
BRANCH  10  11
HETATM   11  C   UNL     1     -10.855  14.100  64.868  1.00  0.00    -0.423 C  
BRANCH  11  12
HETATM   12  C   UNL     1     -10.865  15.624  64.944  1.00  0.00    -0.438 C  
BRANCH  12  13
HETATM   13  C   UNL     1      -9.902  16.131  66.014  1.00  0.00    -0.375 C  
BRANCH  13  14
HETATM   14  C   UNL     1     -10.658  16.496  67.290  1.00  0.00    -0.285 C  
BRANCH  14  15
HETATM   15  C   UNL     1      -9.803  17.361  68.211  1.00  0.00    -0.310 C  
HETATM   16  C   UNL     1     -10.155  18.826  68.086  1.00  0.00    -0.379 C  
HETATM   17  O   UNL     1      -9.403  19.602  68.901  1.00  0.00    -0.358 OA 
HETATM   18  O   UNL     1     -11.009  19.290  67.348  1.00  0.00    -0.484 OA 
ENDBRANCH  14  15
ENDBRANCH  13  14
ENDBRANCH  12  13
ENDBRANCH  11  12
ENDBRANCH  10  11
ENDBRANCH   9  10
ENDBRANCH   8   9
ENDBRANCH   7   8
ENDBRANCH   6   7
ENDBRANCH   5   6
ENDBRANCH   4   5
ENDBRANCH   3   4
ENDBRANCH   2   3
TORSDOF 13
ENDMDL
MODEL       97
REMARK 921   NORMALIZED FREE ENERGY PREDICTED BY IDOCK:   -3.90 KCAL/MOL
REMARK 922        TOTAL FREE ENERGY PREDICTED BY IDOCK:   -8.27 KCAL/MOL
REMARK 923 INTER-LIGAND FREE ENERGY PREDICTED BY IDOCK:   -6.77 KCAL/MOL
REMARK 924 INTRA-LIGAND FREE ENERGY PREDICTED BY IDOCK:   -1.50 KCAL/MOL
REMARK 927      BINDING AFFINITY PREDICTED BY RF-SCORE:    0.00 PKD
ROOT
HETATM    1  C   UNL     1     -13.808  13.582  72.555  1.00  0.00    -0.624 C  
HETATM    2  C   UNL     1     -12.770  13.891  71.489  1.00  0.00    -0.440 C  
ENDROOT
BRANCH   2   3
HETATM    3  C   UNL     1     -12.455  12.654  70.653  1.00  0.00    -0.323 C  
BRANCH   3   4
HETATM    4  C   UNL     1     -11.858  13.040  69.302  1.00  0.00    -0.370 C  
BRANCH   4   5
HETATM    5  C   UNL     1     -11.857  14.555  69.123  1.00  0.00    -0.354 C  
BRANCH   5   6
HETATM    6  C   UNL     1     -10.523  15.037  68.561  1.00  0.00    -0.232 C  
BRANCH   6   7
HETATM    7  C   UNL     1     -10.683  16.392  67.880  1.00  0.00    -0.332 C  
BRANCH   7   8
HETATM    8  C   UNL     1     -10.085  16.368  66.478  1.00  0.00    -0.304 C  
BRANCH   8   9
HETATM    9  C   UNL     1     -10.243  14.988  65.847  1.00  0.00    -0.335 C  
BRANCH   9  10
HETATM   10  C   UNL     1     -11.459  14.951  64.928  1.00  0.00    -0.407 C  
BRANCH  10  11
HETATM   11  C   UNL     1     -12.552  14.056  65.502  1.00  0.00    -0.543 C  
BRANCH  11  12
HETATM   12  C   UNL     1     -12.522  12.681  64.843  1.00  0.00    -0.564 C  
BRANCH  12  13
HETATM   13  C   UNL     1     -11.891  12.745  63.455  1.00  0.00    -0.618 C  
BRANCH  13  14
HETATM   14  C   UNL     1     -10.845  11.645  63.286  1.00  0.00    -0.380 C  
BRANCH  14  15
HETATM   15  C   UNL     1     -10.058  11.426  64.575  1.00  0.00    -0.337 C  
HETATM   16  C   UNL     1      -9.127  10.242  64.466  1.00  0.00    -0.234 C  
HETATM   17  O   UNL     1      -8.423  10.040  65.605  1.00  0.00    -0.138 OA 
HETATM   18  O   UNL     1      -8.999   9.528  63.485  1.00  0.00    -0.233 OA 
ENDBRANCH  14  15
ENDBRANCH  13  14
ENDBRANCH  12  13
ENDBRANCH  11  12
ENDBRANCH  10  11
ENDBRANCH   9  10
ENDBRANCH   8   9
ENDBRANCH   7   8
ENDBRANCH   6   7
ENDBRANCH   5   6
ENDBRANCH   4   5
ENDBRANCH   3   4
ENDBRANCH   2   3
TORSDOF 13
ENDMDL
MODEL       98
REMARK 921   NORMALIZED FREE ENERGY PREDICTED BY IDOCK:   -3.89 KCAL/MOL
REMARK 922        TOTAL FREE ENERGY PREDICTED BY IDOCK:   -8.26 KCAL/MOL
REMARK 923 INTER-LIGAND FREE ENERGY PREDICTED BY IDOCK:   -6.51 KCAL/MOL
REMARK 924 INTRA-LIGAND FREE ENERGY PREDICTED BY IDOCK:   -1.75 KCAL/MOL
REMARK 927      BINDING AFFINITY PREDICTED BY RF-SCORE:    0.00 PKD
ROOT
HETATM    1  C   UNL     1     -13.031  11.453  71.690  1.00  0.00    -0.523 C  
HETATM    2  C   UNL     1     -12.691  10.033  71.268  1.00  0.00    -0.500 C  
ENDROOT
BRANCH   2   3
HETATM    3  C   UNL     1     -11.534  10.017  70.271  1.00  0.00    -0.372 C  
BRANCH   3   4
HETATM    4  C   UNL     1     -11.797  10.970  69.109  1.00  0.00    -0.407 C  
BRANCH   4   5
HETATM    5  C   UNL     1     -10.600  11.014  68.163  1.00  0.00    -0.226 C  
BRANCH   5   6
HETATM    6  C   UNL     1     -10.844  10.145  66.934  1.00  0.00    -0.176 C  
BRANCH   6   7
HETATM    7  C   UNL     1      -9.623  10.148  66.020  1.00  0.00    -0.265 C  
BRANCH   7   8
HETATM    8  C   UNL     1     -10.040  10.268  64.559  1.00  0.00    -0.286 C  
BRANCH   8   9
HETATM    9  C   UNL     1     -10.267  11.728  64.180  1.00  0.00    -0.363 C  
BRANCH   9  10
HETATM   10  C   UNL     1     -11.668  11.926  63.612  1.00  0.00    -0.572 C  
BRANCH  10  11
HETATM   11  C   UNL     1     -12.506  12.818  64.523  1.00  0.00    -0.501 C  
BRANCH  11  12
HETATM   12  C   UNL     1     -11.621  13.531  65.540  1.00  0.00    -0.337 C  
BRANCH  12  13
HETATM   13  C   UNL     1     -12.407  13.898  66.796  1.00  0.00    -0.370 C  
BRANCH  13  14
HETATM   14  C   UNL     1     -11.580  14.804  67.705  1.00  0.00    -0.378 C  
BRANCH  14  15
HETATM   15  C   UNL     1     -11.994  14.651  69.166  1.00  0.00    -0.329 C  
HETATM   16  C   UNL     1     -11.002  15.305  70.099  1.00  0.00    -0.291 C  
HETATM   17  O   UNL     1     -11.362  15.177  71.398  1.00  0.00    -0.351 OA 
HETATM   18  O   UNL     1      -9.986  15.888  69.758  1.00  0.00    -0.267 OA 
ENDBRANCH  14  15
ENDBRANCH  13  14
ENDBRANCH  12  13
ENDBRANCH  11  12
ENDBRANCH  10  11
ENDBRANCH   9  10
ENDBRANCH   8   9
ENDBRANCH   7   8
ENDBRANCH   6   7
ENDBRANCH   5   6
ENDBRANCH   4   5
ENDBRANCH   3   4
ENDBRANCH   2   3
TORSDOF 13
ENDMDL
MODEL       99
REMARK 921   NORMALIZED FREE ENERGY PREDICTED BY IDOCK:   -3.89 KCAL/MOL
REMARK 922        TOTAL FREE ENERGY PREDICTED BY IDOCK:   -8.25 KCAL/MOL
REMARK 923 INTER-LIGAND FREE ENERGY PREDICTED BY IDOCK:   -6.56 KCAL/MOL
REMARK 924 INTRA-LIGAND FREE ENERGY PREDICTED BY IDOCK:   -1.69 KCAL/MOL
REMARK 927      BINDING AFFINITY PREDICTED BY RF-SCORE:    0.00 PKD
ROOT
HETATM    1  C   UNL     1     -11.982  13.626  68.473  1.00  0.00    -0.396 C  
HETATM    2  C   UNL     1     -11.362  12.378  67.867  1.00  0.00    -0.344 C  
ENDROOT
BRANCH   2   3
HETATM    3  C   UNL     1     -10.860  11.430  68.953  1.00  0.00    -0.259 C  
BRANCH   3   4
HETATM    4  C   UNL     1      -9.378  11.114  68.766  1.00  0.00    -0.156 C  
BRANCH   4   5
HETATM    5  C   UNL     1      -8.656  12.279  68.093  1.00  0.00    -0.181 C  
BRANCH   5   6
HETATM    6  C   UNL     1      -7.466  11.785  67.278  1.00  0.00    -0.151 C  
BRANCH   6   7
HETATM    7  C   UNL     1      -7.596  10.294  66.983  1.00  0.00    -0.099 C  
BRANCH   7   8
HETATM    8  C   UNL     1      -7.878  10.057  65.503  1.00  0.00    -0.134 C  
BRANCH   8   9
HETATM    9  C   UNL     1      -9.379  10.058  65.232  1.00  0.00    -0.294 C  
BRANCH   9  10
HETATM   10  C   UNL     1      -9.657  10.093  63.734  1.00  0.00    -0.285 C  
BRANCH  10  11
HETATM   11  C   UNL     1     -10.159  11.468  63.303  1.00  0.00    -0.439 C  
BRANCH  11  12
HETATM   12  C   UNL     1     -11.367  11.885  64.136  1.00  0.00    -0.455 C  
BRANCH  12  13
HETATM   13  C   UNL     1     -12.125  13.033  63.475  1.00  0.00    -0.617 C  
BRANCH  13  14
HETATM   14  C   UNL     1     -12.294  14.198  64.447  1.00  0.00    -0.410 C  
BRANCH  14  15
HETATM   15  C   UNL     1     -10.960  14.597  65.071  1.00  0.00    -0.415 C  
HETATM   16  C   UNL     1     -10.679  16.071  64.893  1.00  0.00    -0.316 C  
HETATM   17  O   UNL     1      -9.498  16.435  65.445  1.00  0.00    -0.410 OA 
HETATM   18  O   UNL     1     -11.406  16.868  64.324  1.00  0.00    -1.202 OA 
ENDBRANCH  14  15
ENDBRANCH  13  14
ENDBRANCH  12  13
ENDBRANCH  11  12
ENDBRANCH  10  11
ENDBRANCH   9  10
ENDBRANCH   8   9
ENDBRANCH   7   8
ENDBRANCH   6   7
ENDBRANCH   5   6
ENDBRANCH   4   5
ENDBRANCH   3   4
ENDBRANCH   2   3
TORSDOF 13
ENDMDL
MODEL      100
REMARK 921   NORMALIZED FREE ENERGY PREDICTED BY IDOCK:   -3.89 KCAL/MOL
REMARK 922        TOTAL FREE ENERGY PREDICTED BY IDOCK:   -8.25 KCAL/MOL
REMARK 923 INTER-LIGAND FREE ENERGY PREDICTED BY IDOCK:   -6.62 KCAL/MOL
REMARK 924 INTRA-LIGAND FREE ENERGY PREDICTED BY IDOCK:   -1.63 KCAL/MOL
REMARK 927      BINDING AFFINITY PREDICTED BY RF-SCORE:    0.00 PKD
ROOT
HETATM    1  C   UNL     1     -12.636  11.202  71.079  1.00  0.00    -0.503 C  
HETATM    2  C   UNL     1     -11.510  10.836  70.128  1.00  0.00    -0.415 C  
ENDROOT
BRANCH   2   3
HETATM    3  C   UNL     1     -11.799  11.336  68.714  1.00  0.00    -0.396 C  
BRANCH   3   4
HETATM    4  C   UNL     1     -11.040  12.627  68.421  1.00  0.00    -0.297 C  
BRANCH   4   5
HETATM    5  C   UNL     1     -11.947  13.646  67.738  1.00  0.00    -0.387 C  
BRANCH   5   6
HETATM    6  C   UNL     1     -11.498  13.899  66.303  1.00  0.00    -0.347 C  
BRANCH   6   7
HETATM    7  C   UNL     1     -12.660  13.713  65.333  1.00  0.00    -0.533 C  
BRANCH   7   8
HETATM    8  C   UNL     1     -12.151  13.413  63.928  1.00  0.00    -0.514 C  
BRANCH   8   9
HETATM    9  C   UNL     1     -12.036  11.909  63.704  1.00  0.00    -0.580 C  
BRANCH   9  10
HETATM   10  C   UNL     1     -10.574  11.486  63.616  1.00  0.00    -0.491 C  
BRANCH  10  11
HETATM   11  C   UNL     1     -10.273  10.353  64.592  1.00  0.00    -0.305 C  
BRANCH  11  12
HETATM   12  C   UNL     1      -9.250  10.798  65.632  1.00  0.00    -0.226 C  
BRANCH  12  13
HETATM   13  C   UNL     1      -8.728   9.611  66.437  1.00  0.00    -0.148 C  
BRANCH  13  14
HETATM   14  C   UNL     1      -9.643   8.400  66.268  1.00  0.00    -0.286 C  
BRANCH  14  15
HETATM   15  C   UNL     1     -10.150   7.896  67.615  1.00  0.00    -0.262 C  
HETATM   16  C   UNL     1     -10.787   6.531  67.497  1.00  0.00    -0.352 C  
HETATM   17  O   UNL     1     -11.239   6.074  68.689  1.00  0.00    -0.307 OA 
HETATM   18  O   UNL     1     -10.898   5.887  66.467  1.00  0.00    -0.269 OA 
ENDBRANCH  14  15
ENDBRANCH  13  14
ENDBRANCH  12  13
ENDBRANCH  11  12
ENDBRANCH  10  11
ENDBRANCH   9  10
ENDBRANCH   8   9
ENDBRANCH   7   8
ENDBRANCH   6   7
ENDBRANCH   5   6
ENDBRANCH   4   5
ENDBRANCH   3   4
ENDBRANCH   2   3
TORSDOF 13
ENDMDL
MODEL      101
REMARK 921   NORMALIZED FREE ENERGY PREDICTED BY IDOCK:   -3.89 KCAL/MOL
REMARK 922        TOTAL FREE ENERGY PREDICTED BY IDOCK:   -8.25 KCAL/MOL
REMARK 923 INTER-LIGAND FREE ENERGY PREDICTED BY IDOCK:   -7.27 KCAL/MOL
REMARK 924 INTRA-LIGAND FREE ENERGY PREDICTED BY IDOCK:   -0.98 KCAL/MOL
REMARK 927      BINDING AFFINITY PREDICTED BY RF-SCORE:    0.00 PKD
ROOT
HETATM    1  C   UNL     1     -10.425   5.484  69.417  1.00  0.00    -0.360 C  
HETATM    2  C   UNL     1     -11.239   6.410  70.304  1.00  0.00    -0.445 C  
ENDROOT
BRANCH   2   3
HETATM    3  C   UNL     1     -10.349   7.458  70.968  1.00  0.00    -0.201 C  
BRANCH   3   4
HETATM    4  C   UNL     1     -11.017   8.039  72.211  1.00  0.00    -0.377 C  
BRANCH   4   5
HETATM    5  C   UNL     1     -12.528   8.141  72.019  1.00  0.00    -0.375 C  
BRANCH   5   6
HETATM    6  C   UNL     1     -12.995   9.588  72.130  1.00  0.00    -0.497 C  
BRANCH   6   7
HETATM    7  C   UNL     1     -13.104  10.227  70.749  1.00  0.00    -0.360 C  
BRANCH   7   8
HETATM    8  C   UNL     1     -11.795  10.905  70.361  1.00  0.00    -0.449 C  
BRANCH   8   9
HETATM    9  C   UNL     1     -12.008  12.397  70.128  1.00  0.00    -0.376 C  
BRANCH   9  10
HETATM   10  C   UNL     1     -11.892  12.734  68.646  1.00  0.00    -0.341 C  
BRANCH  10  11
HETATM   11  C   UNL     1     -11.218  14.087  68.443  1.00  0.00    -0.292 C  
BRANCH  11  12
HETATM   12  C   UNL     1      -9.763  13.906  68.022  1.00  0.00    -0.226 C  
BRANCH  12  13
HETATM   13  C   UNL     1      -9.470  14.641  66.717  1.00  0.00    -0.275 C  
BRANCH  13  14
HETATM   14  C   UNL     1     -10.744  15.262  66.149  1.00  0.00    -0.322 C  
BRANCH  14  15
HETATM   15  C   UNL     1     -10.990  14.807  64.714  1.00  0.00    -0.393 C  
HETATM   16  C   UNL     1     -12.348  14.162  64.558  1.00  0.00    -0.392 C  
HETATM   17  O   UNL     1     -12.577  13.756  63.287  1.00  0.00    -0.830 OA 
HETATM   18  O   UNL     1     -13.166  14.007  65.449  1.00  0.00    -0.761 OA 
ENDBRANCH  14  15
ENDBRANCH  13  14
ENDBRANCH  12  13
ENDBRANCH  11  12
ENDBRANCH  10  11
ENDBRANCH   9  10
ENDBRANCH   8   9
ENDBRANCH   7   8
ENDBRANCH   6   7
ENDBRANCH   5   6
ENDBRANCH   4   5
ENDBRANCH   3   4
ENDBRANCH   2   3
TORSDOF 13
ENDMDL
MODEL      102
REMARK 921   NORMALIZED FREE ENERGY PREDICTED BY IDOCK:   -3.88 KCAL/MOL
REMARK 922        TOTAL FREE ENERGY PREDICTED BY IDOCK:   -8.24 KCAL/MOL
REMARK 923 INTER-LIGAND FREE ENERGY PREDICTED BY IDOCK:   -6.32 KCAL/MOL
REMARK 924 INTRA-LIGAND FREE ENERGY PREDICTED BY IDOCK:   -1.92 KCAL/MOL
REMARK 927      BINDING AFFINITY PREDICTED BY RF-SCORE:    0.00 PKD
ROOT
HETATM    1  C   UNL     1     -12.330  14.954  74.064  1.00  0.00    -0.536 C  
HETATM    2  C   UNL     1     -12.560  16.175  73.190  1.00  0.00    -0.599 C  
ENDROOT
BRANCH   2   3
HETATM    3  C   UNL     1     -12.908  15.771  71.760  1.00  0.00    -0.517 C  
BRANCH   3   4
HETATM    4  C   UNL     1     -11.680  15.243  71.023  1.00  0.00    -0.394 C  
BRANCH   4   5
HETATM    5  C   UNL     1     -12.017  13.971  70.250  1.00  0.00    -0.409 C  
BRANCH   5   6
HETATM    6  C   UNL     1     -13.190  13.238  70.892  1.00  0.00     0.030 C  
BRANCH   6   7
HETATM    7  C   UNL     1     -12.694  12.106  71.787  1.00  0.00    -0.265 C  
BRANCH   7   8
HETATM    8  C   UNL     1     -13.148  10.753  71.252  1.00  0.00    -0.427 C  
BRANCH   8   9
HETATM    9  C   UNL     1     -12.090   9.686  71.512  1.00  0.00    -0.482 C  
BRANCH   9  10
HETATM   10  C   UNL     1     -11.373   9.310  70.221  1.00  0.00    -0.238 C  
BRANCH  10  11
HETATM   11  C   UNL     1     -10.050  10.059  70.093  1.00  0.00    -0.266 C  
BRANCH  11  12
HETATM   12  C   UNL     1     -10.092  11.029  68.917  1.00  0.00    -0.212 C  
BRANCH  12  13
HETATM   13  C   UNL     1     -11.368  10.851  68.098  1.00  0.00    -0.383 C  
BRANCH  13  14
HETATM   14  C   UNL     1     -11.232  11.524  66.734  1.00  0.00    -0.350 C  
BRANCH  14  15
HETATM   15  C   UNL     1     -11.886  12.902  66.729  1.00  0.00    -0.452 C  
HETATM   16  C   UNL     1     -10.867  14.004  66.548  1.00  0.00    -0.300 C  
HETATM   17  O   UNL     1     -11.439  15.231  66.541  1.00  0.00    -0.242 OA 
HETATM   18  O   UNL     1      -9.665  13.843  66.422  1.00  0.00    -0.282 OA 
ENDBRANCH  14  15
ENDBRANCH  13  14
ENDBRANCH  12  13
ENDBRANCH  11  12
ENDBRANCH  10  11
ENDBRANCH   9  10
ENDBRANCH   8   9
ENDBRANCH   7   8
ENDBRANCH   6   7
ENDBRANCH   5   6
ENDBRANCH   4   5
ENDBRANCH   3   4
ENDBRANCH   2   3
TORSDOF 13
ENDMDL
MODEL      103
REMARK 921   NORMALIZED FREE ENERGY PREDICTED BY IDOCK:   -3.88 KCAL/MOL
REMARK 922        TOTAL FREE ENERGY PREDICTED BY IDOCK:   -8.23 KCAL/MOL
REMARK 923 INTER-LIGAND FREE ENERGY PREDICTED BY IDOCK:   -6.58 KCAL/MOL
REMARK 924 INTRA-LIGAND FREE ENERGY PREDICTED BY IDOCK:   -1.65 KCAL/MOL
REMARK 927      BINDING AFFINITY PREDICTED BY RF-SCORE:    0.00 PKD
ROOT
HETATM    1  C   UNL     1     -10.328  19.091  67.715  1.00  0.00    -0.498 C  
HETATM    2  C   UNL     1      -8.953  18.593  67.303  1.00  0.00    -0.283 C  
ENDROOT
BRANCH   2   3
HETATM    3  C   UNL     1      -9.025  17.173  66.748  1.00  0.00    -0.263 C  
BRANCH   3   4
HETATM    4  C   UNL     1     -10.409  16.874  66.179  1.00  0.00    -0.327 C  
BRANCH   4   5
HETATM    5  C   UNL     1     -10.388  15.594  65.347  1.00  0.00    -0.421 C  
BRANCH   5   6
HETATM    6  C   UNL     1     -11.594  15.531  64.415  1.00  0.00    -0.258 C  
BRANCH   6   7
HETATM    7  C   UNL     1     -12.394  14.255  64.654  1.00  0.00    -0.433 C  
BRANCH   7   8
HETATM    8  C   UNL     1     -12.038  13.190  63.623  1.00  0.00    -0.583 C  
BRANCH   8   9
HETATM    9  C   UNL     1     -11.721  11.863  64.305  1.00  0.00    -0.388 C  
BRANCH   9  10
HETATM   10  C   UNL     1     -10.291  11.856  64.833  1.00  0.00    -0.328 C  
BRANCH  10  11
HETATM   11  C   UNL     1     -10.221  11.210  66.214  1.00  0.00    -0.286 C  
BRANCH  11  12
HETATM   12  C   UNL     1     -11.288  11.792  67.135  1.00  0.00    -0.387 C  
BRANCH  12  13
HETATM   13  C   UNL     1     -10.768  13.019  67.878  1.00  0.00    -0.249 C  
BRANCH  13  14
HETATM   14  C   UNL     1     -11.836  13.572  68.820  1.00  0.00    -0.390 C  
BRANCH  14  15
HETATM   15  C   UNL     1     -11.287  14.715  69.669  1.00  0.00    -0.317 C  
HETATM   16  C   UNL     1     -12.256  15.117  70.756  1.00  0.00    -0.340 C  
HETATM   17  O   UNL     1     -11.778  16.130  71.517  1.00  0.00    -0.455 OA 
HETATM   18  O   UNL     1     -13.349  14.612  70.955  1.00  0.00    -0.372 OA 
ENDBRANCH  14  15
ENDBRANCH  13  14
ENDBRANCH  12  13
ENDBRANCH  11  12
ENDBRANCH  10  11
ENDBRANCH   9  10
ENDBRANCH   8   9
ENDBRANCH   7   8
ENDBRANCH   6   7
ENDBRANCH   5   6
ENDBRANCH   4   5
ENDBRANCH   3   4
ENDBRANCH   2   3
TORSDOF 13
ENDMDL
MODEL      104
REMARK 921   NORMALIZED FREE ENERGY PREDICTED BY IDOCK:   -3.87 KCAL/MOL
REMARK 922        TOTAL FREE ENERGY PREDICTED BY IDOCK:   -8.23 KCAL/MOL
REMARK 923 INTER-LIGAND FREE ENERGY PREDICTED BY IDOCK:   -6.67 KCAL/MOL
REMARK 924 INTRA-LIGAND FREE ENERGY PREDICTED BY IDOCK:   -1.56 KCAL/MOL
REMARK 927      BINDING AFFINITY PREDICTED BY RF-SCORE:    0.00 PKD
ROOT
HETATM    1  C   UNL     1     -12.521  11.677  71.053  1.00  0.00    -0.436 C  
HETATM    2  C   UNL     1     -11.783  11.478  69.740  1.00  0.00    -0.426 C  
ENDROOT
BRANCH   2   3
HETATM    3  C   UNL     1     -10.850  10.271  69.811  1.00  0.00    -0.332 C  
BRANCH   3   4
HETATM    4  C   UNL     1     -10.365   9.869  68.421  1.00  0.00    -0.226 C  
BRANCH   4   5
HETATM    5  C   UNL     1     -10.959  10.783  67.353  1.00  0.00    -0.361 C  
BRANCH   5   6
HETATM    6  C   UNL     1     -10.340  10.502  65.988  1.00  0.00    -0.279 C  
BRANCH   6   7
HETATM    7  C   UNL     1     -10.438  11.729  65.088  1.00  0.00    -0.330 C  
BRANCH   7   8
HETATM    8  C   UNL     1     -11.853  11.893  64.546  1.00  0.00    -0.305 C  
BRANCH   8   9
HETATM    9  C   UNL     1     -12.447  13.228  64.982  1.00  0.00    -0.498 C  
BRANCH   9  10
HETATM   10  C   UNL     1     -11.409  14.066  65.719  1.00  0.00    -0.312 C  
BRANCH  10  11
HETATM   11  C   UNL     1     -11.900  14.443  67.114  1.00  0.00    -0.437 C  
BRANCH  11  12
HETATM   12  C   UNL     1     -10.877  15.321  67.825  1.00  0.00    -0.295 C  
BRANCH  12  13
HETATM   13  C   UNL     1     -10.828  15.014  69.320  1.00  0.00    -0.263 C  
BRANCH  13  14
HETATM   14  C   UNL     1     -11.740  15.963  70.095  1.00  0.00    -0.342 C  
BRANCH  14  15
HETATM   15  C   UNL     1     -12.903  15.211  70.737  1.00  0.00    -0.473 C  
HETATM   16  C   UNL     1     -13.012  15.509  72.214  1.00  0.00    -0.416 C  
HETATM   17  O   UNL     1     -14.042  14.848  72.793  1.00  0.00    -0.444 OA 
HETATM   18  O   UNL     1     -12.276  16.251  72.845  1.00  0.00    -0.493 OA 
ENDBRANCH  14  15
ENDBRANCH  13  14
ENDBRANCH  12  13
ENDBRANCH  11  12
ENDBRANCH  10  11
ENDBRANCH   9  10
ENDBRANCH   8   9
ENDBRANCH   7   8
ENDBRANCH   6   7
ENDBRANCH   5   6
ENDBRANCH   4   5
ENDBRANCH   3   4
ENDBRANCH   2   3
TORSDOF 13
ENDMDL
MODEL      105
REMARK 921   NORMALIZED FREE ENERGY PREDICTED BY IDOCK:   -3.87 KCAL/MOL
REMARK 922        TOTAL FREE ENERGY PREDICTED BY IDOCK:   -8.22 KCAL/MOL
REMARK 923 INTER-LIGAND FREE ENERGY PREDICTED BY IDOCK:   -6.85 KCAL/MOL
REMARK 924 INTRA-LIGAND FREE ENERGY PREDICTED BY IDOCK:   -1.37 KCAL/MOL
REMARK 927      BINDING AFFINITY PREDICTED BY RF-SCORE:    0.00 PKD
ROOT
HETATM    1  C   UNL     1     -10.253  15.599  70.022  1.00  0.00    -0.277 C  
HETATM    2  C   UNL     1     -11.636  15.716  69.405  1.00  0.00    -0.378 C  
ENDROOT
BRANCH   2   3
HETATM    3  C   UNL     1     -12.725  15.595  70.468  1.00  0.00    -0.391 C  
BRANCH   3   4
HETATM    4  C   UNL     1     -12.134  15.667  71.873  1.00  0.00    -0.513 C  
BRANCH   4   5
HETATM    5  C   UNL     1     -12.847  14.698  72.812  1.00  0.00    -0.530 C  
BRANCH   5   6
HETATM    6  C   UNL     1     -13.814  13.804  72.042  1.00  0.00    -0.576 C  
BRANCH   6   7
HETATM    7  C   UNL     1     -13.473  12.332  72.254  1.00  0.00    -0.365 C  
BRANCH   7   8
HETATM    8  C   UNL     1     -12.651  11.793  71.089  1.00  0.00    -0.412 C  
BRANCH   8   9
HETATM    9  C   UNL     1     -13.006  10.337  70.806  1.00  0.00    -0.408 C  
BRANCH   9  10
HETATM   10  C   UNL     1     -12.157   9.399  71.655  1.00  0.00    -0.462 C  
BRANCH  10  11
HETATM   11  C   UNL     1     -10.713   9.371  71.162  1.00  0.00    -0.417 C  
BRANCH  11  12
HETATM   12  C   UNL     1     -10.609   8.610  69.845  1.00  0.00    -0.227 C  
BRANCH  12  13
HETATM   13  C   UNL     1      -9.882   9.433  68.785  1.00  0.00    -0.172 C  
BRANCH  13  14
HETATM   14  C   UNL     1     -10.725   9.547  67.518  1.00  0.00    -0.311 C  
BRANCH  14  15
HETATM   15  C   UNL     1     -10.180  10.623  66.584  1.00  0.00    -0.284 C  
HETATM   16  C   UNL     1     -10.959  11.912  66.702  1.00  0.00    -0.291 C  
HETATM   17  O   UNL     1     -10.481  12.874  65.878  1.00  0.00    -0.270 OA 
HETATM   18  O   UNL     1     -11.911  12.100  67.441  1.00  0.00    -0.563 OA 
ENDBRANCH  14  15
ENDBRANCH  13  14
ENDBRANCH  12  13
ENDBRANCH  11  12
ENDBRANCH  10  11
ENDBRANCH   9  10
ENDBRANCH   8   9
ENDBRANCH   7   8
ENDBRANCH   6   7
ENDBRANCH   5   6
ENDBRANCH   4   5
ENDBRANCH   3   4
ENDBRANCH   2   3
TORSDOF 13
ENDMDL
MODEL      106
REMARK 921   NORMALIZED FREE ENERGY PREDICTED BY IDOCK:   -3.87 KCAL/MOL
REMARK 922        TOTAL FREE ENERGY PREDICTED BY IDOCK:   -8.21 KCAL/MOL
REMARK 923 INTER-LIGAND FREE ENERGY PREDICTED BY IDOCK:   -6.90 KCAL/MOL
REMARK 924 INTRA-LIGAND FREE ENERGY PREDICTED BY IDOCK:   -1.32 KCAL/MOL
REMARK 927      BINDING AFFINITY PREDICTED BY RF-SCORE:    0.00 PKD
ROOT
HETATM    1  C   UNL     1     -10.503  15.348  70.075  1.00  0.00    -0.301 C  
HETATM    2  C   UNL     1     -11.960  15.523  69.681  1.00  0.00    -0.380 C  
ENDROOT
BRANCH   2   3
HETATM    3  C   UNL     1     -12.848  15.677  70.913  1.00  0.00    -0.498 C  
BRANCH   3   4
HETATM    4  C   UNL     1     -12.059  15.426  72.195  1.00  0.00    -0.489 C  
BRANCH   4   5
HETATM    5  C   UNL     1     -12.792  14.437  73.098  1.00  0.00    -0.492 C  
BRANCH   5   6
HETATM    6  C   UNL     1     -13.906  13.726  72.337  1.00  0.00    -0.681 C  
BRANCH   6   7
HETATM    7  C   UNL     1     -13.651  12.222  72.288  1.00  0.00    -0.299 C  
BRANCH   7   8
HETATM    8  C   UNL     1     -12.707  11.870  71.144  1.00  0.00    -0.384 C  
BRANCH   8   9
HETATM    9  C   UNL     1     -12.886  10.415  70.724  1.00  0.00    -0.450 C  
BRANCH   9  10
HETATM   10  C   UNL     1     -12.889   9.498  71.943  1.00  0.00    -0.508 C  
BRANCH  10  11
HETATM   11  C   UNL     1     -11.738   8.499  71.878  1.00  0.00    -0.409 C  
BRANCH  11  12
HETATM   12  C   UNL     1     -12.264   7.086  71.649  1.00  0.00    -0.395 C  
BRANCH  12  13
HETATM   13  C   UNL     1     -11.643   6.459  70.404  1.00  0.00    -0.440 C  
BRANCH  13  14
HETATM   14  C   UNL     1     -10.448   7.282  69.925  1.00  0.00    -0.236 C  
BRANCH  14  15
HETATM   15  C   UNL     1     -10.335   7.259  68.404  1.00  0.00    -0.213 C  
HETATM   16  C   UNL     1     -10.387   8.652  67.819  1.00  0.00    -0.242 C  
HETATM   17  O   UNL     1     -10.285   8.642  66.469  1.00  0.00    -0.283 OA 
HETATM   18  O   UNL     1     -10.508   9.685  68.457  1.00  0.00    -0.198 OA 
ENDBRANCH  14  15
ENDBRANCH  13  14
ENDBRANCH  12  13
ENDBRANCH  11  12
ENDBRANCH  10  11
ENDBRANCH   9  10
ENDBRANCH   8   9
ENDBRANCH   7   8
ENDBRANCH   6   7
ENDBRANCH   5   6
ENDBRANCH   4   5
ENDBRANCH   3   4
ENDBRANCH   2   3
TORSDOF 13
ENDMDL
MODEL      107
REMARK 921   NORMALIZED FREE ENERGY PREDICTED BY IDOCK:   -3.86 KCAL/MOL
REMARK 922        TOTAL FREE ENERGY PREDICTED BY IDOCK:   -8.21 KCAL/MOL
REMARK 923 INTER-LIGAND FREE ENERGY PREDICTED BY IDOCK:   -6.22 KCAL/MOL
REMARK 924 INTRA-LIGAND FREE ENERGY PREDICTED BY IDOCK:   -1.99 KCAL/MOL
REMARK 927      BINDING AFFINITY PREDICTED BY RF-SCORE:    0.00 PKD
ROOT
HETATM    1  C   UNL     1     -10.589  11.143  63.821  1.00  0.00    -0.422 C  
HETATM    2  C   UNL     1     -11.535  12.307  63.578  1.00  0.00    -0.558 C  
ENDROOT
BRANCH   2   3
HETATM    3  C   UNL     1     -12.360  12.616  64.825  1.00  0.00    -0.556 C  
BRANCH   3   4
HETATM    4  C   UNL     1     -12.100  14.037  65.317  1.00  0.00    -0.415 C  
BRANCH   4   5
HETATM    5  C   UNL     1     -10.765  14.558  64.794  1.00  0.00    -0.414 C  
BRANCH   5   6
HETATM    6  C   UNL     1     -10.461  15.942  65.357  1.00  0.00    -0.429 C  
BRANCH   6   7
HETATM    7  C   UNL     1     -10.626  15.955  66.873  1.00  0.00    -0.309 C  
BRANCH   7   8
HETATM    8  C   UNL     1      -9.270  16.015  67.566  1.00  0.00    -0.214 C  
BRANCH   8   9
HETATM    9  C   UNL     1      -9.438  16.041  69.082  1.00  0.00    -0.253 C  
BRANCH   9  10
HETATM   10  C   UNL     1     -10.909  16.170  69.460  1.00  0.00    -0.329 C  
BRANCH  10  11
HETATM   11  C   UNL     1     -11.219  15.379  70.727  1.00  0.00    -0.378 C  
BRANCH  11  12
HETATM   12  C   UNL     1     -12.304  14.340  70.461  1.00  0.00    -0.430 C  
BRANCH  12  13
HETATM   13  C   UNL     1     -12.158  13.732  69.068  1.00  0.00    -0.359 C  
BRANCH  13  14
HETATM   14  C   UNL     1     -11.356  12.434  69.128  1.00  0.00    -0.327 C  
BRANCH  14  15
HETATM   15  C   UNL     1     -10.043  12.558  68.361  1.00  0.00    -0.216 C  
HETATM   16  C   UNL     1      -9.882  11.450  67.346  1.00  0.00    -0.182 C  
HETATM   17  O   UNL     1      -8.720  11.552  66.659  1.00  0.00    -0.172 OA 
HETATM   18  O   UNL     1     -10.683  10.553  67.143  1.00  0.00    -0.256 OA 
ENDBRANCH  14  15
ENDBRANCH  13  14
ENDBRANCH  12  13
ENDBRANCH  11  12
ENDBRANCH  10  11
ENDBRANCH   9  10
ENDBRANCH   8   9
ENDBRANCH   7   8
ENDBRANCH   6   7
ENDBRANCH   5   6
ENDBRANCH   4   5
ENDBRANCH   3   4
ENDBRANCH   2   3
TORSDOF 13
ENDMDL
MODEL      108
REMARK 921   NORMALIZED FREE ENERGY PREDICTED BY IDOCK:   -3.85 KCAL/MOL
REMARK 922        TOTAL FREE ENERGY PREDICTED BY IDOCK:   -8.18 KCAL/MOL
REMARK 923 INTER-LIGAND FREE ENERGY PREDICTED BY IDOCK:   -6.67 KCAL/MOL
REMARK 924 INTRA-LIGAND FREE ENERGY PREDICTED BY IDOCK:   -1.51 KCAL/MOL
REMARK 927      BINDING AFFINITY PREDICTED BY RF-SCORE:    0.00 PKD
ROOT
HETATM    1  C   UNL     1     -11.816   6.715  70.635  1.00  0.00    -0.443 C  
HETATM    2  C   UNL     1     -12.967   7.247  71.472  1.00  0.00    -0.434 C  
ENDROOT
BRANCH   2   3
HETATM    3  C   UNL     1     -12.839   8.752  71.691  1.00  0.00    -0.392 C  
BRANCH   3   4
HETATM    4  C   UNL     1     -11.399   9.217  71.490  1.00  0.00    -0.439 C  
BRANCH   4   5
HETATM    5  C   UNL     1     -11.336  10.372  70.494  1.00  0.00    -0.424 C  
BRANCH   5   6
HETATM    6  C   UNL     1     -10.230  10.148  69.468  1.00  0.00    -0.258 C  
BRANCH   6   7
HETATM    7  C   UNL     1     -10.817   9.986  68.069  1.00  0.00    -0.311 C  
BRANCH   7   8
HETATM    8  C   UNL     1     -10.531   8.593  67.520  1.00  0.00    -0.335 C  
BRANCH   8   9
HETATM    9  C   UNL     1      -9.682   8.675  66.256  1.00  0.00    -0.322 C  
BRANCH   9  10
HETATM   10  C   UNL     1      -9.505  10.123  65.817  1.00  0.00    -0.262 C  
BRANCH  10  11
HETATM   11  C   UNL     1      -9.852  10.294  64.341  1.00  0.00    -0.374 C  
BRANCH  11  12
HETATM   12  C   UNL     1     -10.826  11.452  64.148  1.00  0.00    -0.431 C  
BRANCH  12  13
HETATM   13  C   UNL     1     -10.685  12.485  65.263  1.00  0.00    -0.318 C  
BRANCH  13  14
HETATM   14  C   UNL     1     -12.056  12.884  65.805  1.00  0.00    -0.513 C  
BRANCH  14  15
HETATM   15  C   UNL     1     -12.025  14.281  66.418  1.00  0.00    -0.438 C  
HETATM   16  C   UNL     1     -11.999  14.227  67.928  1.00  0.00    -0.329 C  
HETATM   17  O   UNL     1     -11.970  15.461  68.482  1.00  0.00    -0.316 OA 
HETATM   18  O   UNL     1     -12.006  13.209  68.602  1.00  0.00    -0.328 OA 
ENDBRANCH  14  15
ENDBRANCH  13  14
ENDBRANCH  12  13
ENDBRANCH  11  12
ENDBRANCH  10  11
ENDBRANCH   9  10
ENDBRANCH   8   9
ENDBRANCH   7   8
ENDBRANCH   6   7
ENDBRANCH   5   6
ENDBRANCH   4   5
ENDBRANCH   3   4
ENDBRANCH   2   3
TORSDOF 13
ENDMDL
MODEL      109
REMARK 921   NORMALIZED FREE ENERGY PREDICTED BY IDOCK:   -3.85 KCAL/MOL
REMARK 922        TOTAL FREE ENERGY PREDICTED BY IDOCK:   -8.18 KCAL/MOL
REMARK 923 INTER-LIGAND FREE ENERGY PREDICTED BY IDOCK:   -6.13 KCAL/MOL
REMARK 924 INTRA-LIGAND FREE ENERGY PREDICTED BY IDOCK:   -2.05 KCAL/MOL
REMARK 927      BINDING AFFINITY PREDICTED BY RF-SCORE:    0.00 PKD
ROOT
HETATM    1  C   UNL     1      -7.213  13.992  68.886  1.00  0.00    -0.108 C  
HETATM    2  C   UNL     1      -7.753  13.740  67.489  1.00  0.00    -0.187 C  
ENDROOT
BRANCH   2   3
HETATM    3  C   UNL     1      -7.972  12.249  67.244  1.00  0.00    -0.177 C  
BRANCH   3   4
HETATM    4  C   UNL     1      -9.316  11.791  67.803  1.00  0.00    -0.181 C  
BRANCH   4   5
HETATM    5  C   UNL     1     -10.107  11.018  66.751  1.00  0.00    -0.260 C  
BRANCH   5   6
HETATM    6  C   UNL     1      -9.509  11.220  65.363  1.00  0.00    -0.251 C  
BRANCH   6   7
HETATM    7  C   UNL     1     -10.524  10.861  64.282  1.00  0.00    -0.405 C  
BRANCH   7   8
HETATM    8  C   UNL     1     -10.794  12.056  63.374  1.00  0.00    -0.471 C  
BRANCH   8   9
HETATM    9  C   UNL     1     -12.226  12.553  63.548  1.00  0.00    -0.652 C  
BRANCH   9  10
HETATM   10  C   UNL     1     -12.240  13.993  64.046  1.00  0.00    -0.395 C  
BRANCH  10  11
HETATM   11  C   UNL     1     -12.318  14.045  65.569  1.00  0.00    -0.503 C  
BRANCH  11  12
HETATM   12  C   UNL     1     -11.047  14.653  66.152  1.00  0.00    -0.334 C  
BRANCH  12  13
HETATM   13  C   UNL     1     -11.224  14.990  67.630  1.00  0.00    -0.331 C  
BRANCH  13  14
HETATM   14  C   UNL     1     -11.003  16.482  67.873  1.00  0.00    -0.288 C  
BRANCH  14  15
HETATM   15  C   UNL     1      -9.598  16.909  67.459  1.00  0.00    -0.245 C  
HETATM   16  C   UNL     1      -9.631  17.935  66.350  1.00  0.00    -0.286 C  
HETATM   17  O   UNL     1      -8.388  18.322  65.977  1.00  0.00    -0.486 OA 
HETATM   18  O   UNL     1     -10.638  18.385  65.829  1.00  0.00    -0.570 OA 
ENDBRANCH  14  15
ENDBRANCH  13  14
ENDBRANCH  12  13
ENDBRANCH  11  12
ENDBRANCH  10  11
ENDBRANCH   9  10
ENDBRANCH   8   9
ENDBRANCH   7   8
ENDBRANCH   6   7
ENDBRANCH   5   6
ENDBRANCH   4   5
ENDBRANCH   3   4
ENDBRANCH   2   3
TORSDOF 13
ENDMDL
MODEL      110
REMARK 921   NORMALIZED FREE ENERGY PREDICTED BY IDOCK:   -3.84 KCAL/MOL
REMARK 922        TOTAL FREE ENERGY PREDICTED BY IDOCK:   -8.17 KCAL/MOL
REMARK 923 INTER-LIGAND FREE ENERGY PREDICTED BY IDOCK:   -7.17 KCAL/MOL
REMARK 924 INTRA-LIGAND FREE ENERGY PREDICTED BY IDOCK:   -1.00 KCAL/MOL
REMARK 927      BINDING AFFINITY PREDICTED BY RF-SCORE:    0.00 PKD
ROOT
HETATM    1  C   UNL     1      -8.909   9.038  71.041  1.00  0.00    -0.291 C  
HETATM    2  C   UNL     1      -9.323   7.593  71.260  1.00  0.00    -0.161 C  
ENDROOT
BRANCH   2   3
HETATM    3  C   UNL     1     -10.841   7.466  71.367  1.00  0.00    -0.250 C  
BRANCH   3   4
HETATM    4  C   UNL     1     -11.441   8.653  72.115  1.00  0.00    -0.443 C  
BRANCH   4   5
HETATM    5  C   UNL     1     -12.865   8.930  71.640  1.00  0.00    -0.401 C  
BRANCH   5   6
HETATM    6  C   UNL     1     -13.104  10.427  71.476  1.00  0.00    -0.532 C  
BRANCH   6   7
HETATM    7  C   UNL     1     -12.259  10.987  70.336  1.00  0.00    -0.461 C  
BRANCH   7   8
HETATM    8  C   UNL     1     -12.218  12.510  70.389  1.00  0.00    -0.368 C  
BRANCH   8   9
HETATM    9  C   UNL     1     -11.936  13.091  69.007  1.00  0.00    -0.312 C  
BRANCH   9  10
HETATM   10  C   UNL     1     -12.140  14.601  69.005  1.00  0.00    -0.270 C  
BRANCH  10  11
HETATM   11  C   UNL     1     -10.875  15.325  69.455  1.00  0.00    -0.275 C  
BRANCH  11  12
HETATM   12  C   UNL     1     -10.395  16.291  68.377  1.00  0.00    -0.271 C  
BRANCH  12  13
HETATM   13  C   UNL     1      -9.425  15.609  67.416  1.00  0.00    -0.217 C  
BRANCH  13  14
HETATM   14  C   UNL     1      -9.807  15.901  65.966  1.00  0.00    -0.366 C  
BRANCH  14  15
HETATM   15  C   UNL     1     -10.788  14.862  65.432  1.00  0.00    -0.379 C  
HETATM   16  C   UNL     1     -11.619  15.411  64.295  1.00  0.00    -0.191 C  
HETATM   17  O   UNL     1     -12.492  14.495  63.813  1.00  0.00    -0.809 OA 
HETATM   18  O   UNL     1     -11.540  16.540  63.840  1.00  0.00    -1.175 OA 
ENDBRANCH  14  15
ENDBRANCH  13  14
ENDBRANCH  12  13
ENDBRANCH  11  12
ENDBRANCH  10  11
ENDBRANCH   9  10
ENDBRANCH   8   9
ENDBRANCH   7   8
ENDBRANCH   6   7
ENDBRANCH   5   6
ENDBRANCH   4   5
ENDBRANCH   3   4
ENDBRANCH   2   3
TORSDOF 13
ENDMDL
MODEL      111
REMARK 921   NORMALIZED FREE ENERGY PREDICTED BY IDOCK:   -3.83 KCAL/MOL
REMARK 922        TOTAL FREE ENERGY PREDICTED BY IDOCK:   -8.15 KCAL/MOL
REMARK 923 INTER-LIGAND FREE ENERGY PREDICTED BY IDOCK:   -7.05 KCAL/MOL
REMARK 924 INTRA-LIGAND FREE ENERGY PREDICTED BY IDOCK:   -1.10 KCAL/MOL
REMARK 927      BINDING AFFINITY PREDICTED BY RF-SCORE:    0.00 PKD
ROOT
HETATM    1  C   UNL     1     -10.207   5.741  73.821  1.00  0.00    -0.245 C  
HETATM    2  C   UNL     1     -11.238   5.399  72.760  1.00  0.00    -0.358 C  
ENDROOT
BRANCH   2   3
HETATM    3  C   UNL     1     -11.373   6.525  71.739  1.00  0.00    -0.325 C  
BRANCH   3   4
HETATM    4  C   UNL     1     -10.308   7.596  71.957  1.00  0.00    -0.252 C  
BRANCH   4   5
HETATM    5  C   UNL     1     -10.881   8.990  71.715  1.00  0.00    -0.437 C  
BRANCH   5   6
HETATM    6  C   UNL     1     -12.369   9.032  72.048  1.00  0.00    -0.455 C  
BRANCH   6   7
HETATM    7  C   UNL     1     -13.089  10.050  71.169  1.00  0.00    -0.472 C  
BRANCH   7   8
HETATM    8  C   UNL     1     -12.127  11.133  70.694  1.00  0.00    -0.477 C  
BRANCH   8   9
HETATM    9  C   UNL     1     -12.003  11.116  69.175  1.00  0.00    -0.413 C  
BRANCH   9  10
HETATM   10  C   UNL     1     -10.610  11.560  68.742  1.00  0.00    -0.241 C  
BRANCH  10  11
HETATM   11  C   UNL     1      -9.932  10.487  67.895  1.00  0.00    -0.193 C  
BRANCH  11  12
HETATM   12  C   UNL     1      -9.409  11.081  66.592  1.00  0.00    -0.196 C  
BRANCH  12  13
HETATM   13  C   UNL     1      -9.959  10.330  65.382  1.00  0.00    -0.371 C  
BRANCH  13  14
HETATM   14  C   UNL     1     -10.452  11.309  64.318  1.00  0.00    -0.419 C  
BRANCH  14  15
HETATM   15  C   UNL     1     -10.995  12.587  64.950  1.00  0.00    -0.335 C  
HETATM   16  C   UNL     1     -12.485  12.724  64.741  1.00  0.00    -0.472 C  
HETATM   17  O   UNL     1     -12.977  13.855  65.299  1.00  0.00    -0.747 OA 
HETATM   18  O   UNL     1     -13.193  11.930  64.144  1.00  0.00    -0.645 OA 
ENDBRANCH  14  15
ENDBRANCH  13  14
ENDBRANCH  12  13
ENDBRANCH  11  12
ENDBRANCH  10  11
ENDBRANCH   9  10
ENDBRANCH   8   9
ENDBRANCH   7   8
ENDBRANCH   6   7
ENDBRANCH   5   6
ENDBRANCH   4   5
ENDBRANCH   3   4
ENDBRANCH   2   3
TORSDOF 13
ENDMDL
MODEL      112
REMARK 921   NORMALIZED FREE ENERGY PREDICTED BY IDOCK:   -3.83 KCAL/MOL
REMARK 922        TOTAL FREE ENERGY PREDICTED BY IDOCK:   -8.15 KCAL/MOL
REMARK 923 INTER-LIGAND FREE ENERGY PREDICTED BY IDOCK:   -6.39 KCAL/MOL
REMARK 924 INTRA-LIGAND FREE ENERGY PREDICTED BY IDOCK:   -1.76 KCAL/MOL
REMARK 927      BINDING AFFINITY PREDICTED BY RF-SCORE:    0.00 PKD
ROOT
HETATM    1  C   UNL     1     -10.580  19.549  65.878  1.00  0.00    -0.572 C  
HETATM    2  C   UNL     1     -10.815  19.159  67.328  1.00  0.00    -0.529 C  
ENDROOT
BRANCH   2   3
HETATM    3  C   UNL     1      -9.675  19.644  68.220  1.00  0.00    -0.500 C  
BRANCH   3   4
HETATM    4  C   UNL     1      -8.437  19.985  67.395  1.00  0.00    -0.391 C  
BRANCH   4   5
HETATM    5  C   UNL     1      -7.288  19.037  67.724  1.00  0.00    -0.261 C  
BRANCH   5   6
HETATM    6  C   UNL     1      -7.128  17.976  66.640  1.00  0.00    -0.245 C  
BRANCH   6   7
HETATM    7  C   UNL     1      -7.138  16.577  67.249  1.00  0.00    -0.205 C  
BRANCH   7   8
HETATM    8  C   UNL     1      -8.560  16.035  67.336  1.00  0.00    -0.194 C  
BRANCH   8   9
HETATM    9  C   UNL     1      -9.192  15.951  65.951  1.00  0.00    -0.332 C  
BRANCH   9  10
HETATM   10  C   UNL     1     -10.699  15.747  66.057  1.00  0.00    -0.311 C  
BRANCH  10  11
HETATM   11  C   UNL     1     -11.343  15.699  64.675  1.00  0.00    -0.355 C  
BRANCH  11  12
HETATM   12  C   UNL     1     -12.279  14.500  64.558  1.00  0.00    -0.483 C  
BRANCH  12  13
HETATM   13  C   UNL     1     -11.689  13.270  65.243  1.00  0.00    -0.357 C  
BRANCH  13  14
HETATM   14  C   UNL     1     -11.646  12.086  64.281  1.00  0.00    -0.435 C  
BRANCH  14  15
HETATM   15  C   UNL     1     -10.241  11.875  63.723  1.00  0.00    -0.442 C  
HETATM   16  C   UNL     1      -9.555  10.695  64.371  1.00  0.00    -0.295 C  
HETATM   17  O   UNL     1      -8.308  10.499  63.882  1.00  0.00    -0.161 OA 
HETATM   18  O   UNL     1     -10.037   9.981  65.235  1.00  0.00    -0.321 OA 
ENDBRANCH  14  15
ENDBRANCH  13  14
ENDBRANCH  12  13
ENDBRANCH  11  12
ENDBRANCH  10  11
ENDBRANCH   9  10
ENDBRANCH   8   9
ENDBRANCH   7   8
ENDBRANCH   6   7
ENDBRANCH   5   6
ENDBRANCH   4   5
ENDBRANCH   3   4
ENDBRANCH   2   3
TORSDOF 13
ENDMDL
MODEL      113
REMARK 921   NORMALIZED FREE ENERGY PREDICTED BY IDOCK:   -3.82 KCAL/MOL
REMARK 922        TOTAL FREE ENERGY PREDICTED BY IDOCK:   -8.13 KCAL/MOL
REMARK 923 INTER-LIGAND FREE ENERGY PREDICTED BY IDOCK:   -6.49 KCAL/MOL
REMARK 924 INTRA-LIGAND FREE ENERGY PREDICTED BY IDOCK:   -1.64 KCAL/MOL
REMARK 927      BINDING AFFINITY PREDICTED BY RF-SCORE:    0.00 PKD
ROOT
HETATM    1  C   UNL     1     -11.795  16.006  71.745  1.00  0.00    -0.599 C  
HETATM    2  C   UNL     1     -11.225  15.473  70.442  1.00  0.00    -0.356 C  
ENDROOT
BRANCH   2   3
HETATM    3  C   UNL     1     -11.868  14.141  70.063  1.00  0.00    -0.388 C  
BRANCH   3   4
HETATM    4  C   UNL     1     -11.116  13.473  68.915  1.00  0.00    -0.305 C  
BRANCH   4   5
HETATM    5  C   UNL     1     -12.054  13.185  67.746  1.00  0.00    -0.262 C  
BRANCH   5   6
HETATM    6  C   UNL     1     -11.540  13.829  66.463  1.00  0.00    -0.386 C  
BRANCH   6   7
HETATM    7  C   UNL     1     -10.913  15.189  66.756  1.00  0.00    -0.321 C  
BRANCH   7   8
HETATM    8  C   UNL     1      -9.860  15.537  65.710  1.00  0.00    -0.392 C  
BRANCH   8   9
HETATM    9  C   UNL     1      -8.499  15.750  66.363  1.00  0.00    -0.313 C  
BRANCH   9  10
HETATM   10  C   UNL     1      -8.570  15.471  67.860  1.00  0.00    -0.156 C  
BRANCH  10  11
HETATM   11  C   UNL     1      -8.100  16.680  68.665  1.00  0.00    -0.237 C  
BRANCH  11  12
HETATM   12  C   UNL     1      -7.546  17.759  67.740  1.00  0.00    -0.213 C  
BRANCH  12  13
HETATM   13  C   UNL     1      -7.618  19.137  68.393  1.00  0.00    -0.347 C  
BRANCH  13  14
HETATM   14  C   UNL     1      -8.381  20.116  67.504  1.00  0.00    -0.383 C  
BRANCH  14  15
HETATM   15  C   UNL     1      -8.934  19.422  66.263  1.00  0.00    -0.374 C  
HETATM   16  C   UNL     1     -10.422  19.180  66.375  1.00  0.00    -0.463 C  
HETATM   17  O   UNL     1     -10.923  18.566  65.277  1.00  0.00    -0.551 OA 
HETATM   18  O   UNL     1     -11.121  19.488  67.327  1.00  0.00    -0.444 OA 
ENDBRANCH  14  15
ENDBRANCH  13  14
ENDBRANCH  12  13
ENDBRANCH  11  12
ENDBRANCH  10  11
ENDBRANCH   9  10
ENDBRANCH   8   9
ENDBRANCH   7   8
ENDBRANCH   6   7
ENDBRANCH   5   6
ENDBRANCH   4   5
ENDBRANCH   3   4
ENDBRANCH   2   3
TORSDOF 13
ENDMDL
MODEL      114
REMARK 921   NORMALIZED FREE ENERGY PREDICTED BY IDOCK:   -3.82 KCAL/MOL
REMARK 922        TOTAL FREE ENERGY PREDICTED BY IDOCK:   -8.12 KCAL/MOL
REMARK 923 INTER-LIGAND FREE ENERGY PREDICTED BY IDOCK:   -6.60 KCAL/MOL
REMARK 924 INTRA-LIGAND FREE ENERGY PREDICTED BY IDOCK:   -1.52 KCAL/MOL
REMARK 927      BINDING AFFINITY PREDICTED BY RF-SCORE:    0.00 PKD
ROOT
HETATM    1  C   UNL     1     -12.146  13.973  64.395  1.00  0.00    -0.486 C  
HETATM    2  C   UNL     1     -12.376  12.860  63.388  1.00  0.00    -0.498 C  
ENDROOT
BRANCH   2   3
HETATM    3  C   UNL     1     -11.215  11.869  63.386  1.00  0.00    -0.463 C  
BRANCH   3   4
HETATM    4  C   UNL     1     -10.299  12.093  64.587  1.00  0.00    -0.328 C  
BRANCH   4   5
HETATM    5  C   UNL     1      -9.495  10.833  64.898  1.00  0.00    -0.288 C  
BRANCH   5   6
HETATM    6  C   UNL     1     -10.125  10.056  66.049  1.00  0.00    -0.318 C  
BRANCH   6   7
HETATM    7  C   UNL     1     -10.969  10.977  66.924  1.00  0.00    -0.311 C  
BRANCH   7   8
HETATM    8  C   UNL     1     -10.219  11.354  68.196  1.00  0.00    -0.200 C  
BRANCH   8   9
HETATM    9  C   UNL     1     -10.842  12.585  68.846  1.00  0.00    -0.238 C  
BRANCH   9  10
HETATM   10  C   UNL     1     -10.052  13.840  68.495  1.00  0.00    -0.225 C  
BRANCH  10  11
HETATM   11  C   UNL     1     -10.942  14.875  67.815  1.00  0.00    -0.294 C  
BRANCH  11  12
HETATM   12  C   UNL     1     -11.812  15.594  68.840  1.00  0.00    -0.368 C  
BRANCH  12  13
HETATM   13  C   UNL     1     -10.971  16.156  69.983  1.00  0.00    -0.364 C  
BRANCH  13  14
HETATM   14  C   UNL     1     -11.745  16.104  71.299  1.00  0.00    -0.480 C  
BRANCH  14  15
HETATM   15  C   UNL     1     -11.971  14.664  71.751  1.00  0.00    -0.359 C  
HETATM   16  C   UNL     1     -13.438  14.303  71.754  1.00  0.00    -0.381 C  
HETATM   17  O   UNL     1     -13.649  13.027  72.152  1.00  0.00    -0.523 OA 
HETATM   18  O   UNL     1     -14.352  15.049  71.441  1.00  0.00    -0.476 OA 
ENDBRANCH  14  15
ENDBRANCH  13  14
ENDBRANCH  12  13
ENDBRANCH  11  12
ENDBRANCH  10  11
ENDBRANCH   9  10
ENDBRANCH   8   9
ENDBRANCH   7   8
ENDBRANCH   6   7
ENDBRANCH   5   6
ENDBRANCH   4   5
ENDBRANCH   3   4
ENDBRANCH   2   3
TORSDOF 13
ENDMDL
MODEL      115
REMARK 921   NORMALIZED FREE ENERGY PREDICTED BY IDOCK:   -3.81 KCAL/MOL
REMARK 922        TOTAL FREE ENERGY PREDICTED BY IDOCK:   -8.11 KCAL/MOL
REMARK 923 INTER-LIGAND FREE ENERGY PREDICTED BY IDOCK:   -6.05 KCAL/MOL
REMARK 924 INTRA-LIGAND FREE ENERGY PREDICTED BY IDOCK:   -2.07 KCAL/MOL
REMARK 927      BINDING AFFINITY PREDICTED BY RF-SCORE:    0.00 PKD
ROOT
HETATM    1  C   UNL     1     -11.665  14.636  64.682  1.00  0.00    -0.431 C  
HETATM    2  C   UNL     1     -10.886  13.549  65.401  1.00  0.00    -0.299 C  
ENDROOT
BRANCH   2   3
HETATM    3  C   UNL     1     -11.766  12.332  65.678  1.00  0.00    -0.440 C  
BRANCH   3   4
HETATM    4  C   UNL     1     -11.247  11.540  66.875  1.00  0.00    -0.363 C  
BRANCH   4   5
HETATM    5  C   UNL     1     -10.554  12.460  67.876  1.00  0.00    -0.231 C  
BRANCH   5   6
HETATM    6  C   UNL     1     -11.499  12.842  69.010  1.00  0.00    -0.360 C  
BRANCH   6   7
HETATM    7  C   UNL     1     -11.906  14.308  68.902  1.00  0.00    -0.372 C  
BRANCH   7   8
HETATM    8  C   UNL     1     -11.240  15.137  69.994  1.00  0.00    -0.301 C  
BRANCH   8   9
HETATM    9  C   UNL     1     -10.472  16.308  69.389  1.00  0.00    -0.292 C  
BRANCH   9  10
HETATM   10  C   UNL     1     -10.376  16.167  67.875  1.00  0.00    -0.277 C  
BRANCH  10  11
HETATM   11  C   UNL     1      -8.930  15.960  67.435  1.00  0.00    -0.203 C  
BRANCH  11  12
HETATM   12  C   UNL     1      -8.638  16.744  66.160  1.00  0.00    -0.299 C  
BRANCH  12  13
HETATM   13  C   UNL     1      -7.574  17.812  66.398  1.00  0.00    -0.313 C  
BRANCH  13  14
HETATM   14  C   UNL     1      -8.195  19.206  66.377  1.00  0.00    -0.323 C  
BRANCH  14  15
HETATM   15  C   UNL     1      -8.575  19.664  67.782  1.00  0.00    -0.366 C  
HETATM   16  C   UNL     1     -10.074  19.769  67.949  1.00  0.00    -0.430 C  
HETATM   17  O   UNL     1     -10.421  20.173  69.194  1.00  0.00    -0.254 OA 
HETATM   18  O   UNL     1     -10.902  19.528  67.087  1.00  0.00    -0.491 OA 
ENDBRANCH  14  15
ENDBRANCH  13  14
ENDBRANCH  12  13
ENDBRANCH  11  12
ENDBRANCH  10  11
ENDBRANCH   9  10
ENDBRANCH   8   9
ENDBRANCH   7   8
ENDBRANCH   6   7
ENDBRANCH   5   6
ENDBRANCH   4   5
ENDBRANCH   3   4
ENDBRANCH   2   3
TORSDOF 13
ENDMDL
MODEL      116
REMARK 921   NORMALIZED FREE ENERGY PREDICTED BY IDOCK:   -3.80 KCAL/MOL
REMARK 922        TOTAL FREE ENERGY PREDICTED BY IDOCK:   -8.10 KCAL/MOL
REMARK 923 INTER-LIGAND FREE ENERGY PREDICTED BY IDOCK:   -6.45 KCAL/MOL
REMARK 924 INTRA-LIGAND FREE ENERGY PREDICTED BY IDOCK:   -1.65 KCAL/MOL
REMARK 927      BINDING AFFINITY PREDICTED BY RF-SCORE:    0.00 PKD
ROOT
HETATM    1  C   UNL     1     -12.088  14.085  64.310  1.00  0.00    -0.476 C  
HETATM    2  C   UNL     1     -12.161  12.728  63.631  1.00  0.00    -0.624 C  
ENDROOT
BRANCH   2   3
HETATM    3  C   UNL     1     -10.958  11.863  63.999  1.00  0.00    -0.445 C  
BRANCH   3   4
HETATM    4  C   UNL     1     -10.246  12.407  65.234  1.00  0.00    -0.306 C  
BRANCH   4   5
HETATM    5  C   UNL     1      -9.831  11.271  66.166  1.00  0.00    -0.262 C  
BRANCH   5   6
HETATM    6  C   UNL     1     -10.949  10.936  67.147  1.00  0.00    -0.334 C  
BRANCH   6   7
HETATM    7  C   UNL     1     -11.720  12.193  67.538  1.00  0.00    -0.385 C  
BRANCH   7   8
HETATM    8  C   UNL     1     -11.476  12.545  69.001  1.00  0.00    -0.355 C  
BRANCH   8   9
HETATM    9  C   UNL     1     -11.216  14.040  69.160  1.00  0.00    -0.308 C  
BRANCH   9  10
HETATM   10  C   UNL     1     -10.069  14.487  68.260  1.00  0.00    -0.232 C  
BRANCH  10  11
HETATM   11  C   UNL     1     -10.482  15.678  67.401  1.00  0.00    -0.291 C  
BRANCH  11  12
HETATM   12  C   UNL     1     -10.821  16.881  68.274  1.00  0.00    -0.357 C  
BRANCH  12  13
HETATM   13  C   UNL     1     -10.399  18.187  67.606  1.00  0.00    -0.411 C  
BRANCH  13  14
HETATM   14  C   UNL     1      -8.984  18.577  68.029  1.00  0.00    -0.319 C  
BRANCH  14  15
HETATM   15  C   UNL     1      -8.193  19.148  66.856  1.00  0.00    -0.287 C  
HETATM   16  C   UNL     1      -7.409  18.076  66.136  1.00  0.00    -0.282 C  
HETATM   17  O   UNL     1      -6.705  18.573  65.092  1.00  0.00    -0.517 OA 
HETATM   18  O   UNL     1      -7.389  16.893  66.432  1.00  0.00    -0.256 OA 
ENDBRANCH  14  15
ENDBRANCH  13  14
ENDBRANCH  12  13
ENDBRANCH  11  12
ENDBRANCH  10  11
ENDBRANCH   9  10
ENDBRANCH   8   9
ENDBRANCH   7   8
ENDBRANCH   6   7
ENDBRANCH   5   6
ENDBRANCH   4   5
ENDBRANCH   3   4
ENDBRANCH   2   3
TORSDOF 13
ENDMDL
MODEL      117
REMARK 921   NORMALIZED FREE ENERGY PREDICTED BY IDOCK:   -3.80 KCAL/MOL
REMARK 922        TOTAL FREE ENERGY PREDICTED BY IDOCK:   -8.10 KCAL/MOL
REMARK 923 INTER-LIGAND FREE ENERGY PREDICTED BY IDOCK:   -5.95 KCAL/MOL
REMARK 924 INTRA-LIGAND FREE ENERGY PREDICTED BY IDOCK:   -2.15 KCAL/MOL
REMARK 927      BINDING AFFINITY PREDICTED BY RF-SCORE:    0.00 PKD
ROOT
HETATM    1  C   UNL     1     -12.253  13.925  69.943  1.00  0.00    -0.393 C  
HETATM    2  C   UNL     1     -12.026  13.092  68.693  1.00  0.00    -0.319 C  
ENDROOT
BRANCH   2   3
HETATM    3  C   UNL     1     -11.562  11.682  69.048  1.00  0.00    -0.379 C  
BRANCH   3   4
HETATM    4  C   UNL     1     -10.299  11.308  68.277  1.00  0.00    -0.200 C  
BRANCH   4   5
HETATM    5  C   UNL     1     -10.650  10.719  66.913  1.00  0.00    -0.312 C  
BRANCH   5   6
HETATM    6  C   UNL     1      -9.608  11.104  65.869  1.00  0.00    -0.250 C  
BRANCH   6   7
HETATM    7  C   UNL     1      -9.954  10.498  64.512  1.00  0.00    -0.413 C  
BRANCH   7   8
HETATM    8  C   UNL     1     -10.330  11.585  63.513  1.00  0.00    -0.484 C  
BRANCH   8   9
HETATM    9  C   UNL     1     -11.832  11.851  63.544  1.00  0.00    -0.560 C  
BRANCH   9  10
HETATM   10  C   UNL     1     -12.115  13.348  63.581  1.00  0.00    -0.513 C  
BRANCH  10  11
HETATM   11  C   UNL     1     -12.251  13.843  65.018  1.00  0.00    -0.444 C  
BRANCH  11  12
HETATM   12  C   UNL     1     -11.400  15.088  65.241  1.00  0.00    -0.349 C  
BRANCH  12  13
HETATM   13  C   UNL     1     -10.040  14.730  65.834  1.00  0.00    -0.343 C  
BRANCH  13  14
HETATM   14  C   UNL     1      -9.811  15.476  67.147  1.00  0.00    -0.236 C  
BRANCH  14  15
HETATM   15  C   UNL     1      -8.769  14.771  68.010  1.00  0.00    -0.168 C  
HETATM   16  C   UNL     1      -7.921  15.757  68.778  1.00  0.00    -0.180 C  
HETATM   17  O   UNL     1      -6.994  15.141  69.549  1.00  0.00    -0.161 OA 
HETATM   18  O   UNL     1      -8.028  16.972  68.733  1.00  0.00    -0.245 OA 
ENDBRANCH  14  15
ENDBRANCH  13  14
ENDBRANCH  12  13
ENDBRANCH  11  12
ENDBRANCH  10  11
ENDBRANCH   9  10
ENDBRANCH   8   9
ENDBRANCH   7   8
ENDBRANCH   6   7
ENDBRANCH   5   6
ENDBRANCH   4   5
ENDBRANCH   3   4
ENDBRANCH   2   3
TORSDOF 13
ENDMDL
MODEL      118
REMARK 921   NORMALIZED FREE ENERGY PREDICTED BY IDOCK:   -3.80 KCAL/MOL
REMARK 922        TOTAL FREE ENERGY PREDICTED BY IDOCK:   -8.09 KCAL/MOL
REMARK 923 INTER-LIGAND FREE ENERGY PREDICTED BY IDOCK:   -6.69 KCAL/MOL
REMARK 924 INTRA-LIGAND FREE ENERGY PREDICTED BY IDOCK:   -1.40 KCAL/MOL
REMARK 927      BINDING AFFINITY PREDICTED BY RF-SCORE:    0.00 PKD
ROOT
HETATM    1  C   UNL     1      -9.904   7.476  73.501  1.00  0.00    -0.372 C  
HETATM    2  C   UNL     1      -9.681   6.382  72.471  1.00  0.00    -0.168 C  
ENDROOT
BRANCH   2   3
HETATM    3  C   UNL     1     -10.962   6.087  71.694  1.00  0.00    -0.328 C  
BRANCH   3   4
HETATM    4  C   UNL     1     -10.650   5.486  70.326  1.00  0.00    -0.357 C  
BRANCH   4   5
HETATM    5  C   UNL     1     -11.065   6.439  69.208  1.00  0.00    -0.437 C  
BRANCH   5   6
HETATM    6  C   UNL     1      -9.944   7.421  68.885  1.00  0.00    -0.169 C  
BRANCH   6   7
HETATM    7  C   UNL     1     -10.459   8.857  68.917  1.00  0.00    -0.225 C  
BRANCH   7   8
HETATM    8  C   UNL     1     -10.256   9.475  70.295  1.00  0.00    -0.312 C  
BRANCH   8   9
HETATM    9  C   UNL     1     -11.591   9.890  70.904  1.00  0.00    -0.456 C  
BRANCH   9  10
HETATM   10  C   UNL     1     -12.408  10.705  69.908  1.00  0.00    -0.304 C  
BRANCH  10  11
HETATM   11  C   UNL     1     -11.966  12.165  69.904  1.00  0.00    -0.380 C  
BRANCH  11  12
HETATM   12  C   UNL     1     -11.442  12.565  68.528  1.00  0.00    -0.346 C  
BRANCH  12  13
HETATM   13  C   UNL     1     -11.844  13.994  68.177  1.00  0.00    -0.402 C  
BRANCH  13  14
HETATM   14  C   UNL     1     -11.295  14.388  66.808  1.00  0.00    -0.360 C  
BRANCH  14  15
HETATM   15  C   UNL     1     -11.813  13.458  65.715  1.00  0.00    -0.412 C  
HETATM   16  C   UNL     1     -12.093  14.205  64.431  1.00  0.00    -0.463 C  
HETATM   17  O   UNL     1     -12.551  13.387  63.455  1.00  0.00    -0.738 OA 
HETATM   18  O   UNL     1     -11.937  15.403  64.260  1.00  0.00    -0.458 OA 
ENDBRANCH  14  15
ENDBRANCH  13  14
ENDBRANCH  12  13
ENDBRANCH  11  12
ENDBRANCH  10  11
ENDBRANCH   9  10
ENDBRANCH   8   9
ENDBRANCH   7   8
ENDBRANCH   6   7
ENDBRANCH   5   6
ENDBRANCH   4   5
ENDBRANCH   3   4
ENDBRANCH   2   3
TORSDOF 13
ENDMDL
MODEL      119
REMARK 921   NORMALIZED FREE ENERGY PREDICTED BY IDOCK:   -3.80 KCAL/MOL
REMARK 922        TOTAL FREE ENERGY PREDICTED BY IDOCK:   -8.09 KCAL/MOL
REMARK 923 INTER-LIGAND FREE ENERGY PREDICTED BY IDOCK:   -6.61 KCAL/MOL
REMARK 924 INTRA-LIGAND FREE ENERGY PREDICTED BY IDOCK:   -1.48 KCAL/MOL
REMARK 927      BINDING AFFINITY PREDICTED BY RF-SCORE:    0.00 PKD
ROOT
HETATM    1  C   UNL     1     -13.625   9.351  72.106  1.00  0.00    -0.528 C  
HETATM    2  C   UNL     1     -12.455  10.050  71.434  1.00  0.00    -0.510 C  
ENDROOT
BRANCH   2   3
HETATM    3  C   UNL     1     -11.164   9.252  71.606  1.00  0.00    -0.449 C  
BRANCH   3   4
HETATM    4  C   UNL     1     -11.390   8.023  72.483  1.00  0.00    -0.469 C  
BRANCH   4   5
HETATM    5  C   UNL     1     -10.889   6.761  71.786  1.00  0.00    -0.257 C  
BRANCH   5   6
HETATM    6  C   UNL     1     -11.648   6.519  70.486  1.00  0.00    -0.455 C  
BRANCH   6   7
HETATM    7  C   UNL     1     -10.775   5.769  69.484  1.00  0.00    -0.408 C  
BRANCH   7   8
HETATM    8  C   UNL     1     -10.827   6.437  68.115  1.00  0.00    -0.386 C  
BRANCH   8   9
HETATM    9  C   UNL     1     -10.497   7.922  68.225  1.00  0.00    -0.212 C  
BRANCH   9  10
HETATM   10  C   UNL     1     -10.169   8.506  66.856  1.00  0.00    -0.375 C  
BRANCH  10  11
HETATM   11  C   UNL     1     -10.244  10.029  66.878  1.00  0.00    -0.299 C  
BRANCH  11  12
HETATM   12  C   UNL     1     -11.237  10.504  67.933  1.00  0.00    -0.358 C  
BRANCH  12  13
HETATM   13  C   UNL     1     -11.657  11.950  67.687  1.00  0.00    -0.382 C  
BRANCH  13  14
HETATM   14  C   UNL     1     -11.668  12.739  68.994  1.00  0.00    -0.371 C  
BRANCH  14  15
HETATM   15  C   UNL     1     -12.063  14.195  68.759  1.00  0.00    -0.326 C  
HETATM   16  C   UNL     1     -10.857  15.105  68.741  1.00  0.00    -0.247 C  
HETATM   17  O   UNL     1     -11.197  16.398  68.532  1.00  0.00    -0.358 OA 
HETATM   18  O   UNL     1      -9.699  14.751  68.894  1.00  0.00    -0.217 OA 
ENDBRANCH  14  15
ENDBRANCH  13  14
ENDBRANCH  12  13
ENDBRANCH  11  12
ENDBRANCH  10  11
ENDBRANCH   9  10
ENDBRANCH   8   9
ENDBRANCH   7   8
ENDBRANCH   6   7
ENDBRANCH   5   6
ENDBRANCH   4   5
ENDBRANCH   3   4
ENDBRANCH   2   3
TORSDOF 13
ENDMDL
MODEL      120
REMARK 921   NORMALIZED FREE ENERGY PREDICTED BY IDOCK:   -3.79 KCAL/MOL
REMARK 922        TOTAL FREE ENERGY PREDICTED BY IDOCK:   -8.08 KCAL/MOL
REMARK 923 INTER-LIGAND FREE ENERGY PREDICTED BY IDOCK:   -6.54 KCAL/MOL
REMARK 924 INTRA-LIGAND FREE ENERGY PREDICTED BY IDOCK:   -1.54 KCAL/MOL
REMARK 927      BINDING AFFINITY PREDICTED BY RF-SCORE:    0.00 PKD
ROOT
HETATM    1  C   UNL     1     -12.177  14.288  70.969  1.00  0.00    -0.428 C  
HETATM    2  C   UNL     1     -12.912  14.008  72.269  1.00  0.00    -0.463 C  
ENDROOT
BRANCH   2   3
HETATM    3  C   UNL     1     -13.625  12.659  72.219  1.00  0.00    -0.508 C  
BRANCH   3   4
HETATM    4  C   UNL     1     -12.775  11.613  71.503  1.00  0.00    -0.423 C  
BRANCH   4   5
HETATM    5  C   UNL     1     -13.283  10.205  71.799  1.00  0.00    -0.542 C  
BRANCH   5   6
HETATM    6  C   UNL     1     -12.308   9.153  71.281  1.00  0.00    -0.382 C  
BRANCH   6   7
HETATM    7  C   UNL     1     -10.949   9.778  70.983  1.00  0.00    -0.402 C  
BRANCH   7   8
HETATM    8  C   UNL     1     -10.548   9.538  69.533  1.00  0.00    -0.238 C  
BRANCH   8   9
HETATM    9  C   UNL     1     -10.434  10.859  68.778  1.00  0.00    -0.224 C  
BRANCH   9  10
HETATM   10  C   UNL     1     -11.774  11.246  68.164  1.00  0.00    -0.323 C  
BRANCH  10  11
HETATM   11  C   UNL     1     -11.778  12.712  67.741  1.00  0.00    -0.412 C  
BRANCH  11  12
HETATM   12  C   UNL     1     -11.657  12.836  66.226  1.00  0.00    -0.433 C  
BRANCH  12  13
HETATM   13  C   UNL     1     -10.249  13.262  65.817  1.00  0.00    -0.296 C  
BRANCH  13  14
HETATM   14  C   UNL     1      -9.544  13.973  66.969  1.00  0.00    -0.253 C  
BRANCH  14  15
HETATM   15  C   UNL     1      -9.245  15.428  66.623  1.00  0.00    -0.303 C  
HETATM   16  C   UNL     1     -10.203  16.374  67.310  1.00  0.00    -0.278 C  
HETATM   17  O   UNL     1      -9.944  17.669  67.009  1.00  0.00    -0.295 OA 
HETATM   18  O   UNL     1     -11.113  16.046  68.053  1.00  0.00    -0.341 OA 
ENDBRANCH  14  15
ENDBRANCH  13  14
ENDBRANCH  12  13
ENDBRANCH  11  12
ENDBRANCH  10  11
ENDBRANCH   9  10
ENDBRANCH   8   9
ENDBRANCH   7   8
ENDBRANCH   6   7
ENDBRANCH   5   6
ENDBRANCH   4   5
ENDBRANCH   3   4
ENDBRANCH   2   3
TORSDOF 13
ENDMDL
MODEL      121
REMARK 921   NORMALIZED FREE ENERGY PREDICTED BY IDOCK:   -3.79 KCAL/MOL
REMARK 922        TOTAL FREE ENERGY PREDICTED BY IDOCK:   -8.08 KCAL/MOL
REMARK 923 INTER-LIGAND FREE ENERGY PREDICTED BY IDOCK:   -6.32 KCAL/MOL
REMARK 924 INTRA-LIGAND FREE ENERGY PREDICTED BY IDOCK:   -1.77 KCAL/MOL
REMARK 927      BINDING AFFINITY PREDICTED BY RF-SCORE:    0.00 PKD
ROOT
HETATM    1  C   UNL     1     -10.984   6.271  66.943  1.00  0.00    -0.404 C  
HETATM    2  C   UNL     1     -10.713   6.938  68.281  1.00  0.00    -0.265 C  
ENDROOT
BRANCH   2   3
HETATM    3  C   UNL     1      -9.784   8.138  68.119  1.00  0.00    -0.180 C  
BRANCH   3   4
HETATM    4  C   UNL     1     -10.526   9.447  68.375  1.00  0.00    -0.256 C  
BRANCH   4   5
HETATM    5  C   UNL     1     -10.192  10.479  67.302  1.00  0.00    -0.260 C  
BRANCH   5   6
HETATM    6  C   UNL     1      -9.904   9.802  65.966  1.00  0.00    -0.342 C  
BRANCH   6   7
HETATM    7  C   UNL     1      -9.157  10.748  65.032  1.00  0.00    -0.226 C  
BRANCH   7   8
HETATM    8  C   UNL     1      -9.873  10.864  63.691  1.00  0.00    -0.403 C  
BRANCH   8   9
HETATM    9  C   UNL     1     -10.569  12.215  63.566  1.00  0.00    -0.501 C  
BRANCH   9  10
HETATM   10  C   UNL     1     -12.046  12.097  63.922  1.00  0.00    -0.584 C  
BRANCH  10  11
HETATM   11  C   UNL     1     -12.521  13.321  64.699  1.00  0.00    -0.408 C  
BRANCH  11  12
HETATM   12  C   UNL     1     -12.223  13.163  66.186  1.00  0.00    -0.451 C  
BRANCH  12  13
HETATM   13  C   UNL     1     -11.598  14.431  66.763  1.00  0.00    -0.399 C  
BRANCH  13  14
HETATM   14  C   UNL     1     -10.075  14.329  66.765  1.00  0.00    -0.264 C  
BRANCH  14  15
HETATM   15  C   UNL     1      -9.449  15.366  65.837  1.00  0.00    -0.369 C  
HETATM   16  C   UNL     1      -9.025  16.606  66.589  1.00  0.00    -0.255 C  
HETATM   17  O   UNL     1      -8.467  17.531  65.774  1.00  0.00    -0.530 OA 
HETATM   18  O   UNL     1      -9.156  16.787  67.789  1.00  0.00    -0.217 OA 
ENDBRANCH  14  15
ENDBRANCH  13  14
ENDBRANCH  12  13
ENDBRANCH  11  12
ENDBRANCH  10  11
ENDBRANCH   9  10
ENDBRANCH   8   9
ENDBRANCH   7   8
ENDBRANCH   6   7
ENDBRANCH   5   6
ENDBRANCH   4   5
ENDBRANCH   3   4
ENDBRANCH   2   3
TORSDOF 13
ENDMDL
MODEL      122
REMARK 921   NORMALIZED FREE ENERGY PREDICTED BY IDOCK:   -3.79 KCAL/MOL
REMARK 922        TOTAL FREE ENERGY PREDICTED BY IDOCK:   -8.08 KCAL/MOL
REMARK 923 INTER-LIGAND FREE ENERGY PREDICTED BY IDOCK:   -6.26 KCAL/MOL
REMARK 924 INTRA-LIGAND FREE ENERGY PREDICTED BY IDOCK:   -1.83 KCAL/MOL
REMARK 927      BINDING AFFINITY PREDICTED BY RF-SCORE:    0.00 PKD
ROOT
HETATM    1  C   UNL     1      -9.845   9.259  65.994  1.00  0.00    -0.363 C  
HETATM    2  C   UNL     1      -9.586   7.873  66.559  1.00  0.00    -0.281 C  
ENDROOT
BRANCH   2   3
HETATM    3  C   UNL     1     -10.850   7.288  67.184  1.00  0.00    -0.378 C  
BRANCH   3   4
HETATM    4  C   UNL     1     -10.509   6.220  68.220  1.00  0.00    -0.277 C  
BRANCH   4   5
HETATM    5  C   UNL     1     -11.406   6.349  69.448  1.00  0.00    -0.443 C  
BRANCH   5   6
HETATM    6  C   UNL     1     -10.667   5.916  70.710  1.00  0.00    -0.344 C  
BRANCH   6   7
HETATM    7  C   UNL     1     -11.470   6.276  71.955  1.00  0.00    -0.359 C  
BRANCH   7   8
HETATM    8  C   UNL     1     -12.585   7.259  71.616  1.00  0.00    -0.403 C  
BRANCH   8   9
HETATM    9  C   UNL     1     -12.432   8.547  72.418  1.00  0.00    -0.416 C  
BRANCH   9  10
HETATM   10  C   UNL     1     -12.052   9.708  71.506  1.00  0.00    -0.482 C  
BRANCH  10  11
HETATM   11  C   UNL     1     -10.592   9.611  71.075  1.00  0.00    -0.362 C  
BRANCH  11  12
HETATM   12  C   UNL     1     -10.417  10.122  69.649  1.00  0.00    -0.282 C  
BRANCH  12  13
HETATM   13  C   UNL     1     -11.654  10.882  69.178  1.00  0.00    -0.389 C  
BRANCH  13  14
HETATM   14  C   UNL     1     -11.259  12.210  68.535  1.00  0.00    -0.307 C  
BRANCH  14  15
HETATM   15  C   UNL     1     -12.074  13.366  69.107  1.00  0.00    -0.306 C  
HETATM   16  C   UNL     1     -11.241  14.618  69.253  1.00  0.00    -0.282 C  
HETATM   17  O   UNL     1     -11.957  15.651  69.758  1.00  0.00    -0.346 OA 
HETATM   18  O   UNL     1     -10.061  14.723  68.961  1.00  0.00    -0.233 OA 
ENDBRANCH  14  15
ENDBRANCH  13  14
ENDBRANCH  12  13
ENDBRANCH  11  12
ENDBRANCH  10  11
ENDBRANCH   9  10
ENDBRANCH   8   9
ENDBRANCH   7   8
ENDBRANCH   6   7
ENDBRANCH   5   6
ENDBRANCH   4   5
ENDBRANCH   3   4
ENDBRANCH   2   3
TORSDOF 13
ENDMDL
MODEL      123
REMARK 921   NORMALIZED FREE ENERGY PREDICTED BY IDOCK:   -3.79 KCAL/MOL
REMARK 922        TOTAL FREE ENERGY PREDICTED BY IDOCK:   -8.08 KCAL/MOL
REMARK 923 INTER-LIGAND FREE ENERGY PREDICTED BY IDOCK:   -6.02 KCAL/MOL
REMARK 924 INTRA-LIGAND FREE ENERGY PREDICTED BY IDOCK:   -2.06 KCAL/MOL
REMARK 927      BINDING AFFINITY PREDICTED BY RF-SCORE:    0.00 PKD
ROOT
HETATM    1  C   UNL     1     -13.207  10.395  71.886  1.00  0.00    -0.535 C  
HETATM    2  C   UNL     1     -13.257   8.908  72.193  1.00  0.00    -0.478 C  
ENDROOT
BRANCH   2   3
HETATM    3  C   UNL     1     -11.854   8.338  72.385  1.00  0.00    -0.461 C  
BRANCH   3   4
HETATM    4  C   UNL     1     -11.797   6.867  71.983  1.00  0.00    -0.345 C  
BRANCH   4   5
HETATM    5  C   UNL     1     -10.731   6.638  70.915  1.00  0.00    -0.278 C  
BRANCH   5   6
HETATM    6  C   UNL     1     -11.366   6.237  69.588  1.00  0.00    -0.492 C  
BRANCH   6   7
HETATM    7  C   UNL     1     -10.352   6.337  68.452  1.00  0.00    -0.237 C  
BRANCH   7   8
HETATM    8  C   UNL     1     -10.995   6.927  67.203  1.00  0.00    -0.427 C  
BRANCH   8   9
HETATM    9  C   UNL     1     -10.128   8.040  66.623  1.00  0.00    -0.329 C  
BRANCH   9  10
HETATM   10  C   UNL     1      -8.855   8.215  67.443  1.00  0.00    -0.131 C  
BRANCH  10  11
HETATM   11  C   UNL     1      -8.644   9.678  67.820  1.00  0.00    -0.125 C  
BRANCH  11  12
HETATM   12  C   UNL     1      -8.918   9.895  69.304  1.00  0.00    -0.184 C  
BRANCH  12  13
HETATM   13  C   UNL     1     -10.408  10.095  69.569  1.00  0.00    -0.263 C  
BRANCH  13  14
HETATM   14  C   UNL     1     -10.826  11.528  69.245  1.00  0.00    -0.217 C  
BRANCH  14  15
HETATM   15  C   UNL     1     -11.878  11.562  68.140  1.00  0.00    -0.306 C  
HETATM   16  C   UNL     1     -11.346  12.210  66.883  1.00  0.00    -0.343 C  
HETATM   17  O   UNL     1     -12.272  12.243  65.895  1.00  0.00    -0.634 OA 
HETATM   18  O   UNL     1     -10.222  12.661  66.739  1.00  0.00    -0.232 OA 
ENDBRANCH  14  15
ENDBRANCH  13  14
ENDBRANCH  12  13
ENDBRANCH  11  12
ENDBRANCH  10  11
ENDBRANCH   9  10
ENDBRANCH   8   9
ENDBRANCH   7   8
ENDBRANCH   6   7
ENDBRANCH   5   6
ENDBRANCH   4   5
ENDBRANCH   3   4
ENDBRANCH   2   3
TORSDOF 13
ENDMDL
MODEL      124
REMARK 921   NORMALIZED FREE ENERGY PREDICTED BY IDOCK:   -3.78 KCAL/MOL
REMARK 922        TOTAL FREE ENERGY PREDICTED BY IDOCK:   -8.06 KCAL/MOL
REMARK 923 INTER-LIGAND FREE ENERGY PREDICTED BY IDOCK:   -7.13 KCAL/MOL
REMARK 924 INTRA-LIGAND FREE ENERGY PREDICTED BY IDOCK:   -0.93 KCAL/MOL
REMARK 927      BINDING AFFINITY PREDICTED BY RF-SCORE:    0.00 PKD
ROOT
HETATM    1  C   UNL     1     -12.275   8.314  72.163  1.00  0.00    -0.418 C  
HETATM    2  C   UNL     1     -12.092   9.673  71.509  1.00  0.00    -0.482 C  
ENDROOT
BRANCH   2   3
HETATM    3  C   UNL     1     -13.098  10.685  72.051  1.00  0.00    -0.501 C  
BRANCH   3   4
HETATM    4  C   UNL     1     -12.811  12.086  71.517  1.00  0.00    -0.403 C  
BRANCH   4   5
HETATM    5  C   UNL     1     -13.631  13.131  72.268  1.00  0.00    -0.677 C  
BRANCH   5   6
HETATM    6  C   UNL     1     -12.913  14.477  72.286  1.00  0.00    -0.441 C  
BRANCH   6   7
HETATM    7  C   UNL     1     -12.963  15.133  70.910  1.00  0.00    -0.488 C  
BRANCH   7   8
HETATM    8  C   UNL     1     -11.626  14.988  70.192  1.00  0.00    -0.326 C  
BRANCH   8   9
HETATM    9  C   UNL     1     -10.991  16.354  69.952  1.00  0.00    -0.339 C  
BRANCH   9  10
HETATM   10  C   UNL     1     -10.085  16.320  68.727  1.00  0.00    -0.243 C  
BRANCH  10  11
HETATM   11  C   UNL     1     -10.842  16.753  67.475  1.00  0.00    -0.216 C  
BRANCH  11  12
HETATM   12  C   UNL     1      -9.991  16.535  66.229  1.00  0.00    -0.346 C  
BRANCH  12  13
HETATM   13  C   UNL     1     -10.775  15.802  65.144  1.00  0.00    -0.455 C  
BRANCH  13  14
HETATM   14  C   UNL     1     -10.398  14.322  65.112  1.00  0.00    -0.440 C  
BRANCH  14  15
HETATM   15  C   UNL     1     -11.513  13.454  65.688  1.00  0.00    -0.335 C  
HETATM   16  C   UNL     1     -11.137  12.885  67.037  1.00  0.00    -0.275 C  
HETATM   17  O   UNL     1     -12.121  12.114  67.557  1.00  0.00    -0.534 OA 
HETATM   18  O   UNL     1     -10.082  13.076  67.618  1.00  0.00    -0.211 OA 
ENDBRANCH  14  15
ENDBRANCH  13  14
ENDBRANCH  12  13
ENDBRANCH  11  12
ENDBRANCH  10  11
ENDBRANCH   9  10
ENDBRANCH   8   9
ENDBRANCH   7   8
ENDBRANCH   6   7
ENDBRANCH   5   6
ENDBRANCH   4   5
ENDBRANCH   3   4
ENDBRANCH   2   3
TORSDOF 13
ENDMDL
MODEL      125
REMARK 921   NORMALIZED FREE ENERGY PREDICTED BY IDOCK:   -3.77 KCAL/MOL
REMARK 922        TOTAL FREE ENERGY PREDICTED BY IDOCK:   -8.05 KCAL/MOL
REMARK 923 INTER-LIGAND FREE ENERGY PREDICTED BY IDOCK:   -6.24 KCAL/MOL
REMARK 924 INTRA-LIGAND FREE ENERGY PREDICTED BY IDOCK:   -1.81 KCAL/MOL
REMARK 927      BINDING AFFINITY PREDICTED BY RF-SCORE:    0.00 PKD
ROOT
HETATM    1  C   UNL     1     -12.384  13.318  63.330  1.00  0.00    -0.402 C  
HETATM    2  C   UNL     1     -12.407  11.800  63.370  1.00  0.00    -0.476 C  
ENDROOT
BRANCH   2   3
HETATM    3  C   UNL     1     -10.991  11.228  63.372  1.00  0.00    -0.257 C  
BRANCH   3   4
HETATM    4  C   UNL     1     -10.005  12.202  64.010  1.00  0.00    -0.301 C  
BRANCH   4   5
HETATM    5  C   UNL     1      -9.334  11.573  65.228  1.00  0.00    -0.155 C  
BRANCH   5   6
HETATM    6  C   UNL     1      -9.829  10.148  65.448  1.00  0.00    -0.375 C  
BRANCH   6   7
HETATM    7  C   UNL     1      -8.801   9.334  66.228  1.00  0.00    -0.172 C  
BRANCH   7   8
HETATM    8  C   UNL     1      -9.143   9.309  67.713  1.00  0.00    -0.135 C  
BRANCH   8   9
HETATM    9  C   UNL     1     -10.643   9.123  67.919  1.00  0.00    -0.272 C  
BRANCH   9  10
HETATM   10  C   UNL     1     -11.157  10.054  69.010  1.00  0.00    -0.221 C  
BRANCH  10  11
HETATM   11  C   UNL     1     -10.571  11.454  68.856  1.00  0.00    -0.234 C  
BRANCH  11  12
HETATM   12  C   UNL     1     -11.680  12.484  68.669  1.00  0.00    -0.368 C  
BRANCH  12  13
HETATM   13  C   UNL     1     -11.783  12.927  67.212  1.00  0.00    -0.431 C  
BRANCH  13  14
HETATM   14  C   UNL     1     -10.994  14.214  66.982  1.00  0.00    -0.303 C  
BRANCH  14  15
HETATM   15  C   UNL     1     -11.646  15.080  65.909  1.00  0.00    -0.165 C  
HETATM   16  C   UNL     1     -10.643  15.990  65.240  1.00  0.00    -0.402 C  
HETATM   17  O   UNL     1     -11.212  16.762  64.284  1.00  0.00    -1.163 OA 
HETATM   18  O   UNL     1      -9.453  16.050  65.503  1.00  0.00    -0.401 OA 
ENDBRANCH  14  15
ENDBRANCH  13  14
ENDBRANCH  12  13
ENDBRANCH  11  12
ENDBRANCH  10  11
ENDBRANCH   9  10
ENDBRANCH   8   9
ENDBRANCH   7   8
ENDBRANCH   6   7
ENDBRANCH   5   6
ENDBRANCH   4   5
ENDBRANCH   3   4
ENDBRANCH   2   3
TORSDOF 13
ENDMDL
MODEL      126
REMARK 921   NORMALIZED FREE ENERGY PREDICTED BY IDOCK:   -3.77 KCAL/MOL
REMARK 922        TOTAL FREE ENERGY PREDICTED BY IDOCK:   -8.05 KCAL/MOL
REMARK 923 INTER-LIGAND FREE ENERGY PREDICTED BY IDOCK:   -6.45 KCAL/MOL
REMARK 924 INTRA-LIGAND FREE ENERGY PREDICTED BY IDOCK:   -1.60 KCAL/MOL
REMARK 927      BINDING AFFINITY PREDICTED BY RF-SCORE:    0.00 PKD
ROOT
HETATM    1  C   UNL     1     -12.693  10.437  71.060  1.00  0.00    -0.490 C  
HETATM    2  C   UNL     1     -13.059  11.712  71.800  1.00  0.00    -0.487 C  
ENDROOT
BRANCH   2   3
HETATM    3  C   UNL     1     -12.530  12.944  71.069  1.00  0.00    -0.374 C  
BRANCH   3   4
HETATM    4  C   UNL     1     -11.997  12.578  69.687  1.00  0.00    -0.339 C  
BRANCH   4   5
HETATM    5  C   UNL     1     -12.030  13.786  68.755  1.00  0.00    -0.400 C  
BRANCH   5   6
HETATM    6  C   UNL     1     -11.891  13.354  67.299  1.00  0.00    -0.422 C  
BRANCH   6   7
HETATM    7  C   UNL     1     -11.981  14.560  66.368  1.00  0.00    -0.350 C  
BRANCH   7   8
HETATM    8  C   UNL     1     -11.999  14.118  64.910  1.00  0.00    -0.424 C  
BRANCH   8   9
HETATM    9  C   UNL     1     -12.489  12.679  64.787  1.00  0.00    -0.555 C  
BRANCH   9  10
HETATM   10  C   UNL     1     -11.838  11.987  63.595  1.00  0.00    -0.602 C  
BRANCH  10  11
HETATM   11  C   UNL     1     -10.317  12.075  63.674  1.00  0.00    -0.482 C  
BRANCH  11  12
HETATM   12  C   UNL     1      -9.704  10.685  63.811  1.00  0.00    -0.382 C  
BRANCH  12  13
HETATM   13  C   UNL     1      -8.724  10.625  64.979  1.00  0.00    -0.186 C  
BRANCH  13  14
HETATM   14  C   UNL     1      -9.180  11.541  66.113  1.00  0.00    -0.230 C  
BRANCH  14  15
HETATM   15  C   UNL     1      -8.818  10.958  67.476  1.00  0.00    -0.133 C  
HETATM   16  C   UNL     1      -9.956  10.152  68.059  1.00  0.00    -0.148 C  
HETATM   17  O   UNL     1      -9.644   9.629  69.268  1.00  0.00    -0.167 OA 
HETATM   18  O   UNL     1     -11.042   9.974  67.531  1.00  0.00    -0.274 OA 
ENDBRANCH  14  15
ENDBRANCH  13  14
ENDBRANCH  12  13
ENDBRANCH  11  12
ENDBRANCH  10  11
ENDBRANCH   9  10
ENDBRANCH   8   9
ENDBRANCH   7   8
ENDBRANCH   6   7
ENDBRANCH   5   6
ENDBRANCH   4   5
ENDBRANCH   3   4
ENDBRANCH   2   3
TORSDOF 13
ENDMDL
MODEL      127
REMARK 921   NORMALIZED FREE ENERGY PREDICTED BY IDOCK:   -3.76 KCAL/MOL
REMARK 922        TOTAL FREE ENERGY PREDICTED BY IDOCK:   -8.03 KCAL/MOL
REMARK 923 INTER-LIGAND FREE ENERGY PREDICTED BY IDOCK:   -6.53 KCAL/MOL
REMARK 924 INTRA-LIGAND FREE ENERGY PREDICTED BY IDOCK:   -1.51 KCAL/MOL
REMARK 927      BINDING AFFINITY PREDICTED BY RF-SCORE:    0.00 PKD
ROOT
HETATM    1  C   UNL     1     -14.410   7.361  71.801  1.00  0.00    -0.586 C  
HETATM    2  C   UNL     1     -12.960   7.693  71.494  1.00  0.00    -0.378 C  
ENDROOT
BRANCH   2   3
HETATM    3  C   UNL     1     -12.747   9.202  71.405  1.00  0.00    -0.383 C  
BRANCH   3   4
HETATM    4  C   UNL     1     -11.272   9.560  71.564  1.00  0.00    -0.437 C  
BRANCH   4   5
HETATM    5  C   UNL     1     -10.505   8.418  72.226  1.00  0.00    -0.407 C  
BRANCH   5   6
HETATM    6  C   UNL     1      -9.076   8.344  71.699  1.00  0.00    -0.268 C  
BRANCH   6   7
HETATM    7  C   UNL     1      -9.063   8.345  70.173  1.00  0.00    -0.150 C  
BRANCH   7   8
HETATM    8  C   UNL     1      -9.739   7.094  69.625  1.00  0.00    -0.158 C  
BRANCH   8   9
HETATM    9  C   UNL     1     -10.657   7.444  68.459  1.00  0.00    -0.188 C  
BRANCH   9  10
HETATM   10  C   UNL     1      -9.848   7.909  67.254  1.00  0.00    -0.256 C  
BRANCH  10  11
HETATM   11  C   UNL     1     -10.362   9.247  66.733  1.00  0.00    -0.296 C  
BRANCH  11  12
HETATM   12  C   UNL     1     -11.039  10.035  67.849  1.00  0.00    -0.260 C  
BRANCH  12  13
HETATM   13  C   UNL     1     -11.271  11.487  67.440  1.00  0.00    -0.367 C  
BRANCH  13  14
HETATM   14  C   UNL     1     -10.962  11.686  65.958  1.00  0.00    -0.338 C  
BRANCH  14  15
HETATM   15  C   UNL     1     -11.734  12.870  65.385  1.00  0.00    -0.413 C  
HETATM   16  C   UNL     1     -11.976  12.713  63.901  1.00  0.00    -0.479 C  
HETATM   17  O   UNL     1     -12.663  13.759  63.383  1.00  0.00    -0.795 OA 
HETATM   18  O   UNL     1     -11.610  11.771  63.219  1.00  0.00    -0.366 OA 
ENDBRANCH  14  15
ENDBRANCH  13  14
ENDBRANCH  12  13
ENDBRANCH  11  12
ENDBRANCH  10  11
ENDBRANCH   9  10
ENDBRANCH   8   9
ENDBRANCH   7   8
ENDBRANCH   6   7
ENDBRANCH   5   6
ENDBRANCH   4   5
ENDBRANCH   3   4
ENDBRANCH   2   3
TORSDOF 13
ENDMDL
MODEL      128
REMARK 921   NORMALIZED FREE ENERGY PREDICTED BY IDOCK:   -3.76 KCAL/MOL
REMARK 922        TOTAL FREE ENERGY PREDICTED BY IDOCK:   -8.02 KCAL/MOL
REMARK 923 INTER-LIGAND FREE ENERGY PREDICTED BY IDOCK:   -6.89 KCAL/MOL
REMARK 924 INTRA-LIGAND FREE ENERGY PREDICTED BY IDOCK:   -1.14 KCAL/MOL
REMARK 927      BINDING AFFINITY PREDICTED BY RF-SCORE:    0.00 PKD
ROOT
HETATM    1  C   UNL     1     -11.960   6.835  71.705  1.00  0.00    -0.391 C  
HETATM    2  C   UNL     1     -12.095   8.220  72.314  1.00  0.00    -0.439 C  
ENDROOT
BRANCH   2   3
HETATM    3  C   UNL     1     -11.317   9.256  71.506  1.00  0.00    -0.455 C  
BRANCH   3   4
HETATM    4  C   UNL     1      -9.845   8.868  71.386  1.00  0.00    -0.376 C  
BRANCH   4   5
HETATM    5  C   UNL     1      -9.400   8.871  69.927  1.00  0.00    -0.172 C  
BRANCH   5   6
HETATM    6  C   UNL     1      -8.416  10.005  69.659  1.00  0.00    -0.193 C  
BRANCH   6   7
HETATM    7  C   UNL     1      -8.242  10.225  68.160  1.00  0.00    -0.114 C  
BRANCH   7   8
HETATM    8  C   UNL     1      -9.572  10.075  67.431  1.00  0.00    -0.182 C  
BRANCH   8   9
HETATM    9  C   UNL     1     -10.135  11.439  67.047  1.00  0.00    -0.237 C  
BRANCH   9  10
HETATM   10  C   UNL     1     -11.531  11.631  67.627  1.00  0.00    -0.373 C  
BRANCH  10  11
HETATM   11  C   UNL     1     -11.461  12.119  69.071  1.00  0.00    -0.351 C  
BRANCH  11  12
HETATM   12  C   UNL     1     -11.828  13.597  69.158  1.00  0.00    -0.394 C  
BRANCH  12  13
HETATM   13  C   UNL     1     -12.240  13.983  70.576  1.00  0.00    -0.435 C  
BRANCH  13  14
HETATM   14  C   UNL     1     -12.219  15.500  70.749  1.00  0.00    -0.450 C  
BRANCH  14  15
HETATM   15  C   UNL     1     -11.960  15.887  72.202  1.00  0.00    -0.612 C  
HETATM   16  C   UNL     1     -13.235  15.891  73.015  1.00  0.00    -0.552 C  
HETATM   17  O   UNL     1     -13.015  16.232  74.306  1.00  0.00    -0.672 OA 
HETATM   18  O   UNL     1     -14.347  15.624  72.590  1.00  0.00    -0.487 OA 
ENDBRANCH  14  15
ENDBRANCH  13  14
ENDBRANCH  12  13
ENDBRANCH  11  12
ENDBRANCH  10  11
ENDBRANCH   9  10
ENDBRANCH   8   9
ENDBRANCH   7   8
ENDBRANCH   6   7
ENDBRANCH   5   6
ENDBRANCH   4   5
ENDBRANCH   3   4
ENDBRANCH   2   3
TORSDOF 13
ENDMDL
MODEL      129
REMARK 921   NORMALIZED FREE ENERGY PREDICTED BY IDOCK:   -3.76 KCAL/MOL
REMARK 922        TOTAL FREE ENERGY PREDICTED BY IDOCK:   -8.02 KCAL/MOL
REMARK 923 INTER-LIGAND FREE ENERGY PREDICTED BY IDOCK:   -6.57 KCAL/MOL
REMARK 924 INTRA-LIGAND FREE ENERGY PREDICTED BY IDOCK:   -1.45 KCAL/MOL
REMARK 927      BINDING AFFINITY PREDICTED BY RF-SCORE:    0.00 PKD
ROOT
HETATM    1  C   UNL     1     -12.201  12.235  63.579  1.00  0.00    -0.669 C  
HETATM    2  C   UNL     1     -10.941  11.391  63.483  1.00  0.00    -0.406 C  
ENDROOT
BRANCH   2   3
HETATM    3  C   UNL     1     -10.093  11.522  64.746  1.00  0.00    -0.316 C  
BRANCH   3   4
HETATM    4  C   UNL     1      -9.913  10.170  65.430  1.00  0.00    -0.377 C  
BRANCH   4   5
HETATM    5  C   UNL     1     -10.403  10.223  66.874  1.00  0.00    -0.298 C  
BRANCH   5   6
HETATM    6  C   UNL     1     -10.532   8.821  67.459  1.00  0.00    -0.340 C  
BRANCH   6   7
HETATM    7  C   UNL     1     -10.019   8.785  68.895  1.00  0.00    -0.200 C  
BRANCH   7   8
HETATM    8  C   UNL     1     -10.528   7.545  69.621  1.00  0.00    -0.235 C  
BRANCH   8   9
HETATM    9  C   UNL     1     -11.205   7.928  70.933  1.00  0.00    -0.284 C  
BRANCH   9  10
HETATM   10  C   UNL     1     -11.146   9.435  71.152  1.00  0.00    -0.432 C  
BRANCH  10  11
HETATM   11  C   UNL     1     -12.515   9.985  71.540  1.00  0.00    -0.516 C  
BRANCH  11  12
HETATM   12  C   UNL     1     -12.644  11.448  71.126  1.00  0.00    -0.490 C  
BRANCH  12  13
HETATM   13  C   UNL     1     -11.767  11.759  69.916  1.00  0.00    -0.399 C  
BRANCH  13  14
HETATM   14  C   UNL     1     -11.931  13.217  69.492  1.00  0.00    -0.366 C  
BRANCH  14  15
HETATM   15  C   UNL     1     -10.796  13.658  68.573  1.00  0.00    -0.275 C  
HETATM   16  C   UNL     1     -11.303  14.034  67.200  1.00  0.00    -0.331 C  
HETATM   17  O   UNL     1     -10.303  14.428  66.377  1.00  0.00    -0.276 OA 
HETATM   18  O   UNL     1     -12.469  13.997  66.840  1.00  0.00    -0.364 OA 
ENDBRANCH  14  15
ENDBRANCH  13  14
ENDBRANCH  12  13
ENDBRANCH  11  12
ENDBRANCH  10  11
ENDBRANCH   9  10
ENDBRANCH   8   9
ENDBRANCH   7   8
ENDBRANCH   6   7
ENDBRANCH   5   6
ENDBRANCH   4   5
ENDBRANCH   3   4
ENDBRANCH   2   3
TORSDOF 13
ENDMDL
MODEL      130
REMARK 921   NORMALIZED FREE ENERGY PREDICTED BY IDOCK:   -3.75 KCAL/MOL
REMARK 922        TOTAL FREE ENERGY PREDICTED BY IDOCK:   -8.01 KCAL/MOL
REMARK 923 INTER-LIGAND FREE ENERGY PREDICTED BY IDOCK:   -5.86 KCAL/MOL
REMARK 924 INTRA-LIGAND FREE ENERGY PREDICTED BY IDOCK:   -2.15 KCAL/MOL
REMARK 927      BINDING AFFINITY PREDICTED BY RF-SCORE:    0.00 PKD
ROOT
HETATM    1  C   UNL     1     -13.457  15.037  72.050  1.00  0.00    -0.500 C  
HETATM    2  C   UNL     1     -12.447  14.482  71.061  1.00  0.00    -0.412 C  
ENDROOT
BRANCH   2   3
HETATM    3  C   UNL     1     -11.543  15.586  70.517  1.00  0.00    -0.371 C  
BRANCH   3   4
HETATM    4  C   UNL     1     -11.685  15.718  69.004  1.00  0.00    -0.405 C  
BRANCH   4   5
HETATM    5  C   UNL     1     -10.319  15.892  68.344  1.00  0.00    -0.240 C  
BRANCH   5   6
HETATM    6  C   UNL     1     -10.330  17.068  67.373  1.00  0.00    -0.319 C  
BRANCH   6   7
HETATM    7  C   UNL     1     -10.354  16.575  65.930  1.00  0.00    -0.365 C  
BRANCH   7   8
HETATM    8  C   UNL     1      -9.662  15.223  65.807  1.00  0.00    -0.385 C  
BRANCH   8   9
HETATM    9  C   UNL     1     -10.474  14.278  64.928  1.00  0.00    -0.454 C  
BRANCH   9  10
HETATM   10  C   UNL     1     -11.960  14.611  65.006  1.00  0.00    -0.364 C  
BRANCH  10  11
HETATM   11  C   UNL     1     -12.700  13.606  65.883  1.00  0.00    -0.428 C  
BRANCH  11  12
HETATM   12  C   UNL     1     -11.758  12.501  66.348  1.00  0.00    -0.458 C  
BRANCH  12  13
HETATM   13  C   UNL     1     -11.876  12.270  67.852  1.00  0.00    -0.358 C  
BRANCH  13  14
HETATM   14  C   UNL     1     -10.512  11.942  68.456  1.00  0.00    -0.240 C  
BRANCH  14  15
HETATM   15  C   UNL     1      -9.419  11.945  67.391  1.00  0.00    -0.175 C  
HETATM   16  C   UNL     1      -8.723  10.607  67.300  1.00  0.00    -0.129 C  
HETATM   17  O   UNL     1      -7.753  10.600  66.356  1.00  0.00    -0.128 OA 
HETATM   18  O   UNL     1      -8.978   9.628  67.982  1.00  0.00    -0.123 OA 
ENDBRANCH  14  15
ENDBRANCH  13  14
ENDBRANCH  12  13
ENDBRANCH  11  12
ENDBRANCH  10  11
ENDBRANCH   9  10
ENDBRANCH   8   9
ENDBRANCH   7   8
ENDBRANCH   6   7
ENDBRANCH   5   6
ENDBRANCH   4   5
ENDBRANCH   3   4
ENDBRANCH   2   3
TORSDOF 13
ENDMDL
MODEL      131
REMARK 921   NORMALIZED FREE ENERGY PREDICTED BY IDOCK:   -3.75 KCAL/MOL
REMARK 922        TOTAL FREE ENERGY PREDICTED BY IDOCK:   -8.01 KCAL/MOL
REMARK 923 INTER-LIGAND FREE ENERGY PREDICTED BY IDOCK:   -6.57 KCAL/MOL
REMARK 924 INTRA-LIGAND FREE ENERGY PREDICTED BY IDOCK:   -1.44 KCAL/MOL
REMARK 927      BINDING AFFINITY PREDICTED BY RF-SCORE:    0.00 PKD
ROOT
HETATM    1  C   UNL     1     -14.338   8.060  71.709  1.00  0.00    -0.583 C  
HETATM    2  C   UNL     1     -13.235   9.069  71.980  1.00  0.00    -0.486 C  
ENDROOT
BRANCH   2   3
HETATM    3  C   UNL     1     -13.262  10.201  70.956  1.00  0.00    -0.412 C  
BRANCH   3   4
HETATM    4  C   UNL     1     -11.860  10.749  70.705  1.00  0.00    -0.460 C  
BRANCH   4   5
HETATM    5  C   UNL     1     -11.389  10.406  69.294  1.00  0.00    -0.296 C  
BRANCH   5   6
HETATM    6  C   UNL     1     -10.100  11.148  68.955  1.00  0.00    -0.199 C  
BRANCH   6   7
HETATM    7  C   UNL     1     -10.384  12.327  68.029  1.00  0.00    -0.220 C  
BRANCH   7   8
HETATM    8  C   UNL     1     -11.597  12.046  67.151  1.00  0.00    -0.387 C  
BRANCH   8   9
HETATM    9  C   UNL     1     -12.225  13.348  66.665  1.00  0.00    -0.391 C  
BRANCH   9  10
HETATM   10  C   UNL     1     -12.041  13.508  65.160  1.00  0.00    -0.432 C  
BRANCH  10  11
HETATM   11  C   UNL     1     -10.711  14.185  64.841  1.00  0.00    -0.444 C  
BRANCH  11  12
HETATM   12  C   UNL     1     -10.628  15.551  65.513  1.00  0.00    -0.413 C  
BRANCH  12  13
HETATM   13  C   UNL     1      -9.406  15.647  66.422  1.00  0.00    -0.332 C  
BRANCH  13  14
HETATM   14  C   UNL     1      -9.636  16.674  67.529  1.00  0.00    -0.242 C  
BRANCH  14  15
HETATM   15  C   UNL     1     -11.025  16.524  68.143  1.00  0.00    -0.336 C  
HETATM   16  C   UNL     1     -10.971  15.834  69.486  1.00  0.00    -0.295 C  
HETATM   17  O   UNL     1     -12.199  15.697  70.039  1.00  0.00    -0.367 OA 
HETATM   18  O   UNL     1      -9.959  15.432  70.036  1.00  0.00    -0.271 OA 
ENDBRANCH  14  15
ENDBRANCH  13  14
ENDBRANCH  12  13
ENDBRANCH  11  12
ENDBRANCH  10  11
ENDBRANCH   9  10
ENDBRANCH   8   9
ENDBRANCH   7   8
ENDBRANCH   6   7
ENDBRANCH   5   6
ENDBRANCH   4   5
ENDBRANCH   3   4
ENDBRANCH   2   3
TORSDOF 13
ENDMDL
MODEL      132
REMARK 921   NORMALIZED FREE ENERGY PREDICTED BY IDOCK:   -3.75 KCAL/MOL
REMARK 922        TOTAL FREE ENERGY PREDICTED BY IDOCK:   -8.00 KCAL/MOL
REMARK 923 INTER-LIGAND FREE ENERGY PREDICTED BY IDOCK:   -5.78 KCAL/MOL
REMARK 924 INTRA-LIGAND FREE ENERGY PREDICTED BY IDOCK:   -2.22 KCAL/MOL
REMARK 927      BINDING AFFINITY PREDICTED BY RF-SCORE:    0.00 PKD
ROOT
HETATM    1  C   UNL     1     -12.093  13.473  64.026  1.00  0.00    -0.494 C  
HETATM    2  C   UNL     1     -12.082  12.048  63.498  1.00  0.00    -0.628 C  
ENDROOT
BRANCH   2   3
HETATM    3  C   UNL     1     -10.822  11.307  63.938  1.00  0.00    -0.427 C  
BRANCH   3   4
HETATM    4  C   UNL     1     -10.084  12.077  65.030  1.00  0.00    -0.293 C  
BRANCH   4   5
HETATM    5  C   UNL     1      -9.685  11.147  66.173  1.00  0.00    -0.253 C  
BRANCH   5   6
HETATM    6  C   UNL     1     -10.901  10.753  67.004  1.00  0.00    -0.311 C  
BRANCH   6   7
HETATM    7  C   UNL     1     -10.483   9.915  68.209  1.00  0.00    -0.246 C  
BRANCH   7   8
HETATM    8  C   UNL     1     -10.795  10.645  69.510  1.00  0.00    -0.303 C  
BRANCH   8   9
HETATM    9  C   UNL     1     -12.012  11.549  69.344  1.00  0.00    -0.392 C  
BRANCH   9  10
HETATM   10  C   UNL     1     -12.032  12.629  70.419  1.00  0.00    -0.331 C  
BRANCH  10  11
HETATM   11  C   UNL     1     -11.859  14.015  69.806  1.00  0.00    -0.385 C  
BRANCH  11  12
HETATM   12  C   UNL     1     -12.025  13.958  68.291  1.00  0.00    -0.392 C  
BRANCH  12  13
HETATM   13  C   UNL     1     -10.853  14.630  67.580  1.00  0.00    -0.286 C  
BRANCH  13  14
HETATM   14  C   UNL     1      -9.541  14.328  68.299  1.00  0.00    -0.221 C  
BRANCH  14  15
HETATM   15  C   UNL     1      -8.348  14.466  67.357  1.00  0.00    -0.216 C  
HETATM   16  C   UNL     1      -7.551  15.717  67.646  1.00  0.00    -0.158 C  
HETATM   17  O   UNL     1      -6.489  15.847  66.816  1.00  0.00    -0.255 OA 
HETATM   18  O   UNL     1      -7.805  16.535  68.514  1.00  0.00    -0.188 OA 
ENDBRANCH  14  15
ENDBRANCH  13  14
ENDBRANCH  12  13
ENDBRANCH  11  12
ENDBRANCH  10  11
ENDBRANCH   9  10
ENDBRANCH   8   9
ENDBRANCH   7   8
ENDBRANCH   6   7
ENDBRANCH   5   6
ENDBRANCH   4   5
ENDBRANCH   3   4
ENDBRANCH   2   3
TORSDOF 13
ENDMDL
MODEL      133
REMARK 921   NORMALIZED FREE ENERGY PREDICTED BY IDOCK:   -3.74 KCAL/MOL
REMARK 922        TOTAL FREE ENERGY PREDICTED BY IDOCK:   -7.99 KCAL/MOL
REMARK 923 INTER-LIGAND FREE ENERGY PREDICTED BY IDOCK:   -6.90 KCAL/MOL
REMARK 924 INTRA-LIGAND FREE ENERGY PREDICTED BY IDOCK:   -1.09 KCAL/MOL
REMARK 927      BINDING AFFINITY PREDICTED BY RF-SCORE:    0.00 PKD
ROOT
HETATM    1  C   UNL     1     -14.400   7.718  71.634  1.00  0.00    -0.607 C  
HETATM    2  C   UNL     1     -13.928   8.966  72.361  1.00  0.00    -0.516 C  
ENDROOT
BRANCH   2   3
HETATM    3  C   UNL     1     -12.803   9.657  71.595  1.00  0.00    -0.499 C  
BRANCH   3   4
HETATM    4  C   UNL     1     -13.003  11.170  71.571  1.00  0.00    -0.542 C  
BRANCH   4   5
HETATM    5  C   UNL     1     -12.079  11.823  70.546  1.00  0.00    -0.439 C  
BRANCH   5   6
HETATM    6  C   UNL     1     -11.791  10.873  69.388  1.00  0.00    -0.400 C  
BRANCH   6   7
HETATM    7  C   UNL     1     -11.760  11.631  68.065  1.00  0.00    -0.351 C  
BRANCH   7   8
HETATM    8  C   UNL     1     -11.006  12.947  68.211  1.00  0.00    -0.282 C  
BRANCH   8   9
HETATM    9  C   UNL     1     -11.717  14.064  67.454  1.00  0.00    -0.421 C  
BRANCH   9  10
HETATM   10  C   UNL     1     -11.342  14.038  65.977  1.00  0.00    -0.328 C  
BRANCH  10  11
HETATM   11  C   UNL     1     -12.541  13.653  65.115  1.00  0.00    -0.474 C  
BRANCH  11  12
HETATM   12  C   UNL     1     -12.095  12.830  63.910  1.00  0.00    -0.562 C  
BRANCH  12  13
HETATM   13  C   UNL     1     -10.607  12.501  63.985  1.00  0.00    -0.451 C  
BRANCH  13  14
HETATM   14  C   UNL     1     -10.393  10.994  64.105  1.00  0.00    -0.434 C  
BRANCH  14  15
HETATM   15  C   UNL     1      -8.997  10.593  63.637  1.00  0.00    -0.211 C  
HETATM   16  C   UNL     1      -8.130  10.142  64.789  1.00  0.00    -0.153 C  
HETATM   17  O   UNL     1      -6.889   9.783  64.383  1.00  0.00    -0.107 OA 
HETATM   18  O   UNL     1      -8.473  10.094  65.959  1.00  0.00    -0.125 OA 
ENDBRANCH  14  15
ENDBRANCH  13  14
ENDBRANCH  12  13
ENDBRANCH  11  12
ENDBRANCH  10  11
ENDBRANCH   9  10
ENDBRANCH   8   9
ENDBRANCH   7   8
ENDBRANCH   6   7
ENDBRANCH   5   6
ENDBRANCH   4   5
ENDBRANCH   3   4
ENDBRANCH   2   3
TORSDOF 13
ENDMDL
MODEL      134
REMARK 921   NORMALIZED FREE ENERGY PREDICTED BY IDOCK:   -3.74 KCAL/MOL
REMARK 922        TOTAL FREE ENERGY PREDICTED BY IDOCK:   -7.99 KCAL/MOL
REMARK 923 INTER-LIGAND FREE ENERGY PREDICTED BY IDOCK:   -6.56 KCAL/MOL
REMARK 924 INTRA-LIGAND FREE ENERGY PREDICTED BY IDOCK:   -1.43 KCAL/MOL
REMARK 927      BINDING AFFINITY PREDICTED BY RF-SCORE:    0.00 PKD
ROOT
HETATM    1  C   UNL     1     -12.841  13.860  65.225  1.00  0.00    -0.437 C  
HETATM    2  C   UNL     1     -11.560  14.574  65.620  1.00  0.00    -0.344 C  
ENDROOT
BRANCH   2   3
HETATM    3  C   UNL     1     -10.396  14.152  64.726  1.00  0.00    -0.387 C  
BRANCH   3   4
HETATM    4  C   UNL     1     -10.389  12.642  64.508  1.00  0.00    -0.369 C  
BRANCH   4   5
HETATM    5  C   UNL     1      -9.640  11.935  65.634  1.00  0.00    -0.221 C  
BRANCH   5   6
HETATM    6  C   UNL     1     -10.227  10.551  65.895  1.00  0.00    -0.311 C  
BRANCH   6   7
HETATM    7  C   UNL     1     -10.944  10.515  67.241  1.00  0.00    -0.325 C  
BRANCH   7   8
HETATM    8  C   UNL     1     -10.586  11.737  68.079  1.00  0.00    -0.235 C  
BRANCH   8   9
HETATM    9  C   UNL     1     -11.845  12.473  68.526  1.00  0.00    -0.341 C  
BRANCH   9  10
HETATM   10  C   UNL     1     -11.947  12.492  70.047  1.00  0.00    -0.372 C  
BRANCH  10  11
HETATM   11  C   UNL     1     -11.887  11.079  70.618  1.00  0.00    -0.434 C  
BRANCH  11  12
HETATM   12  C   UNL     1     -13.023  10.850  71.610  1.00  0.00    -0.569 C  
BRANCH  12  13
HETATM   13  C   UNL     1     -13.258   9.362  71.849  1.00  0.00    -0.507 C  
BRANCH  13  14
HETATM   14  C   UNL     1     -12.044   8.546  71.411  1.00  0.00    -0.345 C  
BRANCH  14  15
HETATM   15  C   UNL     1     -11.365   7.880  72.604  1.00  0.00    -0.468 C  
HETATM   16  C   UNL     1      -9.920   8.303  72.733  1.00  0.00    -0.263 C  
HETATM   17  O   UNL     1      -9.310   7.718  73.790  1.00  0.00    -0.280 OA 
HETATM   18  O   UNL     1      -9.339   9.078  71.991  1.00  0.00    -0.358 OA 
ENDBRANCH  14  15
ENDBRANCH  13  14
ENDBRANCH  12  13
ENDBRANCH  11  12
ENDBRANCH  10  11
ENDBRANCH   9  10
ENDBRANCH   8   9
ENDBRANCH   7   8
ENDBRANCH   6   7
ENDBRANCH   5   6
ENDBRANCH   4   5
ENDBRANCH   3   4
ENDBRANCH   2   3
TORSDOF 13
ENDMDL
MODEL      135
REMARK 921   NORMALIZED FREE ENERGY PREDICTED BY IDOCK:   -3.74 KCAL/MOL
REMARK 922        TOTAL FREE ENERGY PREDICTED BY IDOCK:   -7.99 KCAL/MOL
REMARK 923 INTER-LIGAND FREE ENERGY PREDICTED BY IDOCK:   -6.80 KCAL/MOL
REMARK 924 INTRA-LIGAND FREE ENERGY PREDICTED BY IDOCK:   -1.19 KCAL/MOL
REMARK 927      BINDING AFFINITY PREDICTED BY RF-SCORE:    0.00 PKD
ROOT
HETATM    1  C   UNL     1      -9.740  18.960  67.718  1.00  0.00    -0.371 C  
HETATM    2  C   UNL     1      -9.177  17.671  68.291  1.00  0.00    -0.283 C  
ENDROOT
BRANCH   2   3
HETATM    3  C   UNL     1     -10.295  16.739  68.752  1.00  0.00    -0.318 C  
BRANCH   3   4
HETATM    4  C   UNL     1      -9.753  15.634  69.654  1.00  0.00    -0.276 C  
BRANCH   4   5
HETATM    5  C   UNL     1     -10.824  15.156  70.631  1.00  0.00    -0.217 C  
BRANCH   5   6
HETATM    6  C   UNL     1     -11.911  14.370  69.906  1.00  0.00    -0.391 C  
BRANCH   6   7
HETATM    7  C   UNL     1     -11.306  13.207  69.125  1.00  0.00    -0.335 C  
BRANCH   7   8
HETATM    8  C   UNL     1     -11.720  13.264  67.660  1.00  0.00    -0.408 C  
BRANCH   8   9
HETATM    9  C   UNL     1     -11.777  11.863  67.060  1.00  0.00    -0.304 C  
BRANCH   9  10
HETATM   10  C   UNL     1     -11.113  10.851  67.986  1.00  0.00    -0.351 C  
BRANCH  10  11
HETATM   11  C   UNL     1      -9.944  10.159  67.291  1.00  0.00    -0.241 C  
BRANCH  11  12
HETATM   12  C   UNL     1     -10.244   9.953  65.810  1.00  0.00    -0.251 C  
BRANCH  12  13
HETATM   13  C   UNL     1      -9.324  10.801  64.936  1.00  0.00    -0.261 C  
BRANCH  13  14
HETATM   14  C   UNL     1     -10.042  11.236  63.660  1.00  0.00    -0.432 C  
BRANCH  14  15
HETATM   15  C   UNL     1     -10.562  12.666  63.778  1.00  0.00    -0.432 C  
HETATM   16  C   UNL     1     -12.051  12.741  63.532  1.00  0.00    -0.559 C  
HETATM   17  O   UNL     1     -12.522  14.006  63.635  1.00  0.00    -0.803 OA 
HETATM   18  O   UNL     1     -12.774  11.794  63.268  1.00  0.00    -0.567 OA 
ENDBRANCH  14  15
ENDBRANCH  13  14
ENDBRANCH  12  13
ENDBRANCH  11  12
ENDBRANCH  10  11
ENDBRANCH   9  10
ENDBRANCH   8   9
ENDBRANCH   7   8
ENDBRANCH   6   7
ENDBRANCH   5   6
ENDBRANCH   4   5
ENDBRANCH   3   4
ENDBRANCH   2   3
TORSDOF 13
ENDMDL
MODEL      136
REMARK 921   NORMALIZED FREE ENERGY PREDICTED BY IDOCK:   -3.74 KCAL/MOL
REMARK 922        TOTAL FREE ENERGY PREDICTED BY IDOCK:   -7.99 KCAL/MOL
REMARK 923 INTER-LIGAND FREE ENERGY PREDICTED BY IDOCK:   -6.07 KCAL/MOL
REMARK 924 INTRA-LIGAND FREE ENERGY PREDICTED BY IDOCK:   -1.91 KCAL/MOL
REMARK 927      BINDING AFFINITY PREDICTED BY RF-SCORE:    0.00 PKD
ROOT
HETATM    1  C   UNL     1      -6.309  11.966  68.106  1.00  0.00    -0.052 C  
HETATM    2  C   UNL     1      -7.300  12.012  66.956  1.00  0.00    -0.097 C  
ENDROOT
BRANCH   2   3
HETATM    3  C   UNL     1      -8.636  12.600  67.402  1.00  0.00    -0.189 C  
BRANCH   3   4
HETATM    4  C   UNL     1      -9.610  11.502  67.817  1.00  0.00    -0.177 C  
BRANCH   4   5
HETATM    5  C   UNL     1      -9.373  10.231  67.005  1.00  0.00    -0.177 C  
BRANCH   5   6
HETATM    6  C   UNL     1     -10.257  10.206  65.762  1.00  0.00    -0.283 C  
BRANCH   6   7
HETATM    7  C   UNL     1      -9.412  10.312  64.497  1.00  0.00    -0.356 C  
BRANCH   7   8
HETATM    8  C   UNL     1     -10.059  11.255  63.490  1.00  0.00    -0.443 C  
BRANCH   8   9
HETATM    9  C   UNL     1     -10.378  12.599  64.137  1.00  0.00    -0.412 C  
BRANCH   9  10
HETATM   10  C   UNL     1     -11.800  13.035  63.804  1.00  0.00    -0.566 C  
BRANCH  10  11
HETATM   11  C   UNL     1     -12.269  14.139  64.746  1.00  0.00    -0.457 C  
BRANCH  11  12
HETATM   12  C   UNL     1     -12.391  13.614  66.173  1.00  0.00    -0.476 C  
BRANCH  12  13
HETATM   13  C   UNL     1     -11.738  14.567  67.171  1.00  0.00    -0.420 C  
BRANCH  13  14
HETATM   14  C   UNL     1     -12.031  14.129  68.605  1.00  0.00    -0.373 C  
BRANCH  14  15
HETATM   15  C   UNL     1     -11.335  15.038  69.614  1.00  0.00    -0.309 C  
HETATM   16  C   UNL     1     -12.291  15.527  70.677  1.00  0.00    -0.416 C  
HETATM   17  O   UNL     1     -11.682  16.333  71.579  1.00  0.00    -0.469 OA 
HETATM   18  O   UNL     1     -13.478  15.251  70.745  1.00  0.00    -0.398 OA 
ENDBRANCH  14  15
ENDBRANCH  13  14
ENDBRANCH  12  13
ENDBRANCH  11  12
ENDBRANCH  10  11
ENDBRANCH   9  10
ENDBRANCH   8   9
ENDBRANCH   7   8
ENDBRANCH   6   7
ENDBRANCH   5   6
ENDBRANCH   4   5
ENDBRANCH   3   4
ENDBRANCH   2   3
TORSDOF 13
ENDMDL
MODEL      137
REMARK 921   NORMALIZED FREE ENERGY PREDICTED BY IDOCK:   -3.74 KCAL/MOL
REMARK 922        TOTAL FREE ENERGY PREDICTED BY IDOCK:   -7.98 KCAL/MOL
REMARK 923 INTER-LIGAND FREE ENERGY PREDICTED BY IDOCK:   -6.68 KCAL/MOL
REMARK 924 INTRA-LIGAND FREE ENERGY PREDICTED BY IDOCK:   -1.31 KCAL/MOL
REMARK 927      BINDING AFFINITY PREDICTED BY RF-SCORE:    0.00 PKD
ROOT
HETATM    1  C   UNL     1     -11.471   7.197  72.070  1.00  0.00    -0.310 C  
HETATM    2  C   UNL     1     -12.126   6.831  70.748  1.00  0.00    -0.402 C  
ENDROOT
BRANCH   2   3
HETATM    3  C   UNL     1     -11.117   6.204  69.789  1.00  0.00    -0.486 C  
BRANCH   3   4
HETATM    4  C   UNL     1     -10.438   7.269  68.932  1.00  0.00    -0.216 C  
BRANCH   4   5
HETATM    5  C   UNL     1     -10.744   7.051  67.453  1.00  0.00    -0.383 C  
BRANCH   5   6
HETATM    6  C   UNL     1     -10.078   8.121  66.595  1.00  0.00    -0.344 C  
BRANCH   6   7
HETATM    7  C   UNL     1     -10.499   9.516  67.047  1.00  0.00    -0.302 C  
BRANCH   7   8
HETATM    8  C   UNL     1      -9.933  10.581  66.116  1.00  0.00    -0.286 C  
BRANCH   8   9
HETATM    9  C   UNL     1      -9.338   9.945  64.864  1.00  0.00    -0.329 C  
BRANCH   9  10
HETATM   10  C   UNL     1      -9.862  10.632  63.608  1.00  0.00    -0.392 C  
BRANCH  10  11
HETATM   11  C   UNL     1     -10.300  12.062  63.909  1.00  0.00    -0.433 C  
BRANCH  11  12
HETATM   12  C   UNL     1     -11.742  12.287  63.467  1.00  0.00    -0.584 C  
BRANCH  12  13
HETATM   13  C   UNL     1     -12.647  12.582  64.660  1.00  0.00    -0.507 C  
BRANCH  13  14
HETATM   14  C   UNL     1     -12.244  13.892  65.332  1.00  0.00    -0.463 C  
BRANCH  14  15
HETATM   15  C   UNL     1     -12.100  13.720  66.841  1.00  0.00    -0.454 C  
HETATM   16  C   UNL     1     -10.707  14.067  67.312  1.00  0.00    -0.278 C  
HETATM   17  O   UNL     1     -10.569  13.918  68.651  1.00  0.00    -0.248 OA 
HETATM   18  O   UNL     1      -9.789  14.439  66.599  1.00  0.00    -0.260 OA 
ENDBRANCH  14  15
ENDBRANCH  13  14
ENDBRANCH  12  13
ENDBRANCH  11  12
ENDBRANCH  10  11
ENDBRANCH   9  10
ENDBRANCH   8   9
ENDBRANCH   7   8
ENDBRANCH   6   7
ENDBRANCH   5   6
ENDBRANCH   4   5
ENDBRANCH   3   4
ENDBRANCH   2   3
TORSDOF 13
ENDMDL
MODEL      138
REMARK 921   NORMALIZED FREE ENERGY PREDICTED BY IDOCK:   -3.73 KCAL/MOL
REMARK 922        TOTAL FREE ENERGY PREDICTED BY IDOCK:   -7.97 KCAL/MOL
REMARK 923 INTER-LIGAND FREE ENERGY PREDICTED BY IDOCK:   -6.69 KCAL/MOL
REMARK 924 INTRA-LIGAND FREE ENERGY PREDICTED BY IDOCK:   -1.28 KCAL/MOL
REMARK 927      BINDING AFFINITY PREDICTED BY RF-SCORE:    0.00 PKD
ROOT
HETATM    1  C   UNL     1     -11.851  11.122  69.994  1.00  0.00    -0.441 C  
HETATM    2  C   UNL     1     -12.811  11.261  71.162  1.00  0.00    -0.452 C  
ENDROOT
BRANCH   2   3
HETATM    3  C   UNL     1     -12.964   9.938  71.910  1.00  0.00    -0.545 C  
BRANCH   3   4
HETATM    4  C   UNL     1     -11.939   8.914  71.430  1.00  0.00    -0.374 C  
BRANCH   4   5
HETATM    5  C   UNL     1     -12.466   7.493  71.612  1.00  0.00    -0.371 C  
BRANCH   5   6
HETATM    6  C   UNL     1     -11.765   6.526  70.664  1.00  0.00    -0.436 C  
BRANCH   6   7
HETATM    7  C   UNL     1     -11.007   7.287  69.581  1.00  0.00    -0.204 C  
BRANCH   7   8
HETATM    8  C   UNL     1     -10.957   6.482  68.288  1.00  0.00    -0.362 C  
BRANCH   8   9
HETATM    9  C   UNL     1     -10.578   7.374  67.110  1.00  0.00    -0.413 C  
BRANCH   9  10
HETATM   10  C   UNL     1     -10.508   8.834  67.540  1.00  0.00    -0.340 C  
BRANCH  10  11
HETATM   11  C   UNL     1      -9.949   9.708  66.421  1.00  0.00    -0.323 C  
BRANCH  11  12
HETATM   12  C   UNL     1     -10.503  11.126  66.518  1.00  0.00    -0.305 C  
BRANCH  12  13
HETATM   13  C   UNL     1     -11.079  11.588  65.183  1.00  0.00    -0.260 C  
BRANCH  13  14
HETATM   14  C   UNL     1     -12.044  12.754  65.386  1.00  0.00    -0.512 C  
BRANCH  14  15
HETATM   15  C   UNL     1     -11.304  14.087  65.416  1.00  0.00    -0.315 C  
HETATM   16  C   UNL     1     -11.402  14.750  66.770  1.00  0.00    -0.346 C  
HETATM   17  O   UNL     1     -10.746  15.935  66.807  1.00  0.00    -0.321 OA 
HETATM   18  O   UNL     1     -11.994  14.302  67.738  1.00  0.00    -0.371 OA 
ENDBRANCH  14  15
ENDBRANCH  13  14
ENDBRANCH  12  13
ENDBRANCH  11  12
ENDBRANCH  10  11
ENDBRANCH   9  10
ENDBRANCH   8   9
ENDBRANCH   7   8
ENDBRANCH   6   7
ENDBRANCH   5   6
ENDBRANCH   4   5
ENDBRANCH   3   4
ENDBRANCH   2   3
TORSDOF 13
ENDMDL
MODEL      139
REMARK 921   NORMALIZED FREE ENERGY PREDICTED BY IDOCK:   -3.72 KCAL/MOL
REMARK 922        TOTAL FREE ENERGY PREDICTED BY IDOCK:   -7.95 KCAL/MOL
REMARK 923 INTER-LIGAND FREE ENERGY PREDICTED BY IDOCK:   -6.42 KCAL/MOL
REMARK 924 INTRA-LIGAND FREE ENERGY PREDICTED BY IDOCK:   -1.54 KCAL/MOL
REMARK 927      BINDING AFFINITY PREDICTED BY RF-SCORE:    0.00 PKD
ROOT
HETATM    1  C   UNL     1     -10.415  12.233  64.086  1.00  0.00    -0.402 C  
HETATM    2  C   UNL     1     -10.499  11.043  65.026  1.00  0.00    -0.344 C  
ENDROOT
BRANCH   2   3
HETATM    3  C   UNL     1      -9.445   9.993  64.682  1.00  0.00    -0.367 C  
BRANCH   3   4
HETATM    4  C   UNL     1      -9.294   8.975  65.809  1.00  0.00    -0.302 C  
BRANCH   4   5
HETATM    5  C   UNL     1     -10.494   9.027  66.751  1.00  0.00    -0.270 C  
BRANCH   5   6
HETATM    6  C   UNL     1     -10.594   7.749  67.577  1.00  0.00    -0.319 C  
BRANCH   6   7
HETATM    7  C   UNL     1      -9.739   7.851  68.836  1.00  0.00    -0.158 C  
BRANCH   7   8
HETATM    8  C   UNL     1     -10.100   6.751  69.827  1.00  0.00    -0.198 C  
BRANCH   8   9
HETATM    9  C   UNL     1     -11.614   6.624  69.966  1.00  0.00    -0.423 C  
BRANCH   9  10
HETATM   10  C   UNL     1     -12.031   6.718  71.429  1.00  0.00    -0.403 C  
BRANCH  10  11
HETATM   11  C   UNL     1     -13.307   7.541  71.582  1.00  0.00    -0.414 C  
BRANCH  11  12
HETATM   12  C   UNL     1     -13.003   8.888  72.230  1.00  0.00    -0.479 C  
BRANCH  12  13
HETATM   13  C   UNL     1     -13.141  10.029  71.227  1.00  0.00    -0.493 C  
BRANCH  13  14
HETATM   14  C   UNL     1     -11.767  10.534  70.792  1.00  0.00    -0.454 C  
BRANCH  14  15
HETATM   15  C   UNL     1     -11.786  11.015  69.344  1.00  0.00    -0.407 C  
HETATM   16  C   UNL     1     -11.888  12.520  69.257  1.00  0.00    -0.304 C  
HETATM   17  O   UNL     1     -11.904  12.956  67.975  1.00  0.00    -0.346 OA 
HETATM   18  O   UNL     1     -11.952  13.282  70.207  1.00  0.00    -0.333 OA 
ENDBRANCH  14  15
ENDBRANCH  13  14
ENDBRANCH  12  13
ENDBRANCH  11  12
ENDBRANCH  10  11
ENDBRANCH   9  10
ENDBRANCH   8   9
ENDBRANCH   7   8
ENDBRANCH   6   7
ENDBRANCH   5   6
ENDBRANCH   4   5
ENDBRANCH   3   4
ENDBRANCH   2   3
TORSDOF 13
ENDMDL
MODEL      140
REMARK 921   NORMALIZED FREE ENERGY PREDICTED BY IDOCK:   -3.71 KCAL/MOL
REMARK 922        TOTAL FREE ENERGY PREDICTED BY IDOCK:   -7.93 KCAL/MOL
REMARK 923 INTER-LIGAND FREE ENERGY PREDICTED BY IDOCK:   -6.52 KCAL/MOL
REMARK 924 INTRA-LIGAND FREE ENERGY PREDICTED BY IDOCK:   -1.42 KCAL/MOL
REMARK 927      BINDING AFFINITY PREDICTED BY RF-SCORE:    0.00 PKD
ROOT
HETATM    1  C   UNL     1      -8.919  15.357  67.486  1.00  0.00    -0.191 C  
HETATM    2  C   UNL     1      -9.118  15.709  66.022  1.00  0.00    -0.346 C  
ENDROOT
BRANCH   2   3
HETATM    3  C   UNL     1     -10.502  16.309  65.783  1.00  0.00    -0.379 C  
BRANCH   3   4
HETATM    4  C   UNL     1     -11.268  15.521  64.725  1.00  0.00    -0.399 C  
BRANCH   4   5
HETATM    5  C   UNL     1     -10.632  14.151  64.502  1.00  0.00    -0.285 C  
BRANCH   5   6
HETATM    6  C   UNL     1     -11.676  13.130  64.063  1.00  0.00    -0.496 C  
BRANCH   6   7
HETATM    7  C   UNL     1     -12.514  12.669  65.251  1.00  0.00    -0.483 C  
BRANCH   7   8
HETATM    8  C   UNL     1     -11.637  12.444  66.477  1.00  0.00    -0.447 C  
BRANCH   8   9
HETATM    9  C   UNL     1     -12.078  13.342  67.629  1.00  0.00    -0.295 C  
BRANCH   9  10
HETATM   10  C   UNL     1     -11.407  12.919  68.930  1.00  0.00    -0.335 C  
BRANCH  10  11
HETATM   11  C   UNL     1     -10.690  11.582  68.767  1.00  0.00    -0.247 C  
BRANCH  11  12
HETATM   12  C   UNL     1     -11.256  10.546  69.732  1.00  0.00    -0.361 C  
BRANCH  12  13
HETATM   13  C   UNL     1     -10.146   9.697  70.346  1.00  0.00    -0.336 C  
BRANCH  13  14
HETATM   14  C   UNL     1     -10.670   8.909  71.544  1.00  0.00    -0.398 C  
BRANCH  14  15
HETATM   15  C   UNL     1     -12.193   8.964  71.620  1.00  0.00    -0.409 C  
HETATM   16  C   UNL     1     -12.810   7.594  71.458  1.00  0.00    -0.344 C  
HETATM   17  O   UNL     1     -14.162   7.632  71.526  1.00  0.00    -0.426 OA 
HETATM   18  O   UNL     1     -12.194   6.555  71.284  1.00  0.00    -0.340 OA 
ENDBRANCH  14  15
ENDBRANCH  13  14
ENDBRANCH  12  13
ENDBRANCH  11  12
ENDBRANCH  10  11
ENDBRANCH   9  10
ENDBRANCH   8   9
ENDBRANCH   7   8
ENDBRANCH   6   7
ENDBRANCH   5   6
ENDBRANCH   4   5
ENDBRANCH   3   4
ENDBRANCH   2   3
TORSDOF 13
ENDMDL
MODEL      141
REMARK 921   NORMALIZED FREE ENERGY PREDICTED BY IDOCK:   -3.70 KCAL/MOL
REMARK 922        TOTAL FREE ENERGY PREDICTED BY IDOCK:   -7.92 KCAL/MOL
REMARK 923 INTER-LIGAND FREE ENERGY PREDICTED BY IDOCK:   -6.33 KCAL/MOL
REMARK 924 INTRA-LIGAND FREE ENERGY PREDICTED BY IDOCK:   -1.59 KCAL/MOL
REMARK 927      BINDING AFFINITY PREDICTED BY RF-SCORE:    0.00 PKD
ROOT
HETATM    1  C   UNL     1     -10.833  15.045  66.556  1.00  0.00    -0.320 C  
HETATM    2  C   UNL     1     -12.021  14.163  66.900  1.00  0.00    -0.479 C  
ENDROOT
BRANCH   2   3
HETATM    3  C   UNL     1     -12.683  13.614  65.638  1.00  0.00    -0.505 C  
BRANCH   3   4
HETATM    4  C   UNL     1     -12.108  14.270  64.385  1.00  0.00    -0.490 C  
BRANCH   4   5
HETATM    5  C   UNL     1     -12.069  13.280  63.224  1.00  0.00    -0.407 C  
BRANCH   5   6
HETATM    6  C   UNL     1     -11.894  11.852  63.731  1.00  0.00    -0.558 C  
BRANCH   6   7
HETATM    7  C   UNL     1     -10.463  11.372  63.508  1.00  0.00    -0.477 C  
BRANCH   7   8
HETATM    8  C   UNL     1     -10.005  10.482  64.657  1.00  0.00    -0.415 C  
BRANCH   8   9
HETATM    9  C   UNL     1      -9.767  11.307  65.917  1.00  0.00    -0.258 C  
BRANCH   9  10
HETATM   10  C   UNL     1     -10.681  10.845  67.046  1.00  0.00    -0.323 C  
BRANCH  10  11
HETATM   11  C   UNL     1     -10.639   9.327  67.197  1.00  0.00    -0.286 C  
BRANCH  11  12
HETATM   12  C   UNL     1      -9.750   8.927  68.369  1.00  0.00    -0.175 C  
BRANCH  12  13
HETATM   13  C   UNL     1      -9.834   9.947  69.501  1.00  0.00    -0.241 C  
BRANCH  13  14
HETATM   14  C   UNL     1     -10.593   9.369  70.694  1.00  0.00    -0.354 C  
BRANCH  14  15
HETATM   15  C   UNL     1      -9.973   8.055  71.160  1.00  0.00    -0.206 C  
HETATM   16  C   UNL     1     -10.672   7.512  72.385  1.00  0.00    -0.263 C  
HETATM   17  O   UNL     1     -10.131   6.345  72.806  1.00  0.00    -0.175 OA 
HETATM   18  O   UNL     1     -11.616   8.037  72.954  1.00  0.00    -0.397 OA 
ENDBRANCH  14  15
ENDBRANCH  13  14
ENDBRANCH  12  13
ENDBRANCH  11  12
ENDBRANCH  10  11
ENDBRANCH   9  10
ENDBRANCH   8   9
ENDBRANCH   7   8
ENDBRANCH   6   7
ENDBRANCH   5   6
ENDBRANCH   4   5
ENDBRANCH   3   4
ENDBRANCH   2   3
TORSDOF 13
ENDMDL
MODEL      142
REMARK 921   NORMALIZED FREE ENERGY PREDICTED BY IDOCK:   -3.70 KCAL/MOL
REMARK 922        TOTAL FREE ENERGY PREDICTED BY IDOCK:   -7.92 KCAL/MOL
REMARK 923 INTER-LIGAND FREE ENERGY PREDICTED BY IDOCK:   -6.30 KCAL/MOL
REMARK 924 INTRA-LIGAND FREE ENERGY PREDICTED BY IDOCK:   -1.62 KCAL/MOL
REMARK 927      BINDING AFFINITY PREDICTED BY RF-SCORE:    0.00 PKD
ROOT
HETATM    1  C   UNL     1      -9.814  18.842  68.548  1.00  0.00    -0.455 C  
HETATM    2  C   UNL     1      -8.393  18.560  68.089  1.00  0.00    -0.316 C  
ENDROOT
BRANCH   2   3
HETATM    3  C   UNL     1      -8.369  18.072  66.643  1.00  0.00    -0.284 C  
BRANCH   3   4
HETATM    4  C   UNL     1      -9.541  17.137  66.358  1.00  0.00    -0.296 C  
BRANCH   4   5
HETATM    5  C   UNL     1      -9.060  15.699  66.189  1.00  0.00    -0.378 C  
BRANCH   5   6
HETATM    6  C   UNL     1      -9.684  14.787  67.240  1.00  0.00    -0.230 C  
BRANCH   6   7
HETATM    7  C   UNL     1     -11.206  14.896  67.213  1.00  0.00    -0.348 C  
BRANCH   7   8
HETATM    8  C   UNL     1     -11.837  13.567  66.816  1.00  0.00    -0.450 C  
BRANCH   8   9
HETATM    9  C   UNL     1     -12.776  13.748  65.629  1.00  0.00    -0.523 C  
BRANCH   9  10
HETATM   10  C   UNL     1     -11.986  13.989  64.347  1.00  0.00    -0.480 C  
BRANCH  10  11
HETATM   11  C   UNL     1     -11.934  12.727  63.491  1.00  0.00    -0.633 C  
BRANCH  11  12
HETATM   12  C   UNL     1     -10.542  12.106  63.532  1.00  0.00    -0.501 C  
BRANCH  12  13
HETATM   13  C   UNL     1     -10.511  10.878  64.438  1.00  0.00    -0.403 C  
BRANCH  13  14
HETATM   14  C   UNL     1      -9.120  10.686  65.038  1.00  0.00    -0.229 C  
BRANCH  14  15
HETATM   15  C   UNL     1      -9.004  11.371  66.397  1.00  0.00    -0.196 C  
HETATM   16  C   UNL     1      -9.710  10.587  67.479  1.00  0.00    -0.166 C  
HETATM   17  O   UNL     1      -9.611  11.187  68.689  1.00  0.00    -0.190 OA 
HETATM   18  O   UNL     1     -10.309   9.537  67.319  1.00  0.00    -0.223 OA 
ENDBRANCH  14  15
ENDBRANCH  13  14
ENDBRANCH  12  13
ENDBRANCH  11  12
ENDBRANCH  10  11
ENDBRANCH   9  10
ENDBRANCH   8   9
ENDBRANCH   7   8
ENDBRANCH   6   7
ENDBRANCH   5   6
ENDBRANCH   4   5
ENDBRANCH   3   4
ENDBRANCH   2   3
TORSDOF 13
ENDMDL
MODEL      143
REMARK 921   NORMALIZED FREE ENERGY PREDICTED BY IDOCK:   -3.70 KCAL/MOL
REMARK 922        TOTAL FREE ENERGY PREDICTED BY IDOCK:   -7.92 KCAL/MOL
REMARK 923 INTER-LIGAND FREE ENERGY PREDICTED BY IDOCK:   -6.20 KCAL/MOL
REMARK 924 INTRA-LIGAND FREE ENERGY PREDICTED BY IDOCK:   -1.72 KCAL/MOL
REMARK 927      BINDING AFFINITY PREDICTED BY RF-SCORE:    0.00 PKD
ROOT
HETATM    1  C   UNL     1     -10.995   9.208  71.641  1.00  0.00    -0.445 C  
HETATM    2  C   UNL     1     -12.366   8.691  72.041  1.00  0.00    -0.435 C  
ENDROOT
BRANCH   2   3
HETATM    3  C   UNL     1     -13.425   9.783  71.915  1.00  0.00    -0.485 C  
BRANCH   3   4
HETATM    4  C   UNL     1     -12.820  11.076  71.377  1.00  0.00    -0.548 C  
BRANCH   4   5
HETATM    5  C   UNL     1     -13.294  12.277  72.191  1.00  0.00    -0.473 C  
BRANCH   5   6
HETATM    6  C   UNL     1     -12.945  13.585  71.488  1.00  0.00    -0.440 C  
BRANCH   6   7
HETATM    7  C   UNL     1     -12.272  13.313  70.146  1.00  0.00    -0.376 C  
BRANCH   7   8
HETATM    8  C   UNL     1     -11.338  14.456  69.767  1.00  0.00    -0.285 C  
BRANCH   8   9
HETATM    9  C   UNL     1     -11.735  15.053  68.420  1.00  0.00    -0.341 C  
BRANCH   9  10
HETATM   10  C   UNL     1     -10.499  15.372  67.587  1.00  0.00    -0.272 C  
BRANCH  10  11
HETATM   11  C   UNL     1     -10.105  14.183  66.715  1.00  0.00    -0.262 C  
BRANCH  11  12
HETATM   12  C   UNL     1     -11.342  13.424  66.249  1.00  0.00    -0.329 C  
BRANCH  12  13
HETATM   13  C   UNL     1     -11.073  11.923  66.169  1.00  0.00    -0.374 C  
BRANCH  13  14
HETATM   14  C   UNL     1     -11.445  11.238  67.482  1.00  0.00    -0.324 C  
BRANCH  14  15
HETATM   15  C   UNL     1     -10.206  10.734  68.215  1.00  0.00    -0.187 C  
HETATM   16  C   UNL     1      -9.916   9.287  67.892  1.00  0.00    -0.187 C  
HETATM   17  O   UNL     1      -8.817   8.830  68.537  1.00  0.00    -0.137 OA 
HETATM   18  O   UNL     1     -10.574   8.582  67.144  1.00  0.00    -0.303 OA 
ENDBRANCH  14  15
ENDBRANCH  13  14
ENDBRANCH  12  13
ENDBRANCH  11  12
ENDBRANCH  10  11
ENDBRANCH   9  10
ENDBRANCH   8   9
ENDBRANCH   7   8
ENDBRANCH   6   7
ENDBRANCH   5   6
ENDBRANCH   4   5
ENDBRANCH   3   4
ENDBRANCH   2   3
TORSDOF 13
ENDMDL
MODEL      144
REMARK 921   NORMALIZED FREE ENERGY PREDICTED BY IDOCK:   -3.70 KCAL/MOL
REMARK 922        TOTAL FREE ENERGY PREDICTED BY IDOCK:   -7.91 KCAL/MOL
REMARK 923 INTER-LIGAND FREE ENERGY PREDICTED BY IDOCK:   -6.35 KCAL/MOL
REMARK 924 INTRA-LIGAND FREE ENERGY PREDICTED BY IDOCK:   -1.56 KCAL/MOL
REMARK 927      BINDING AFFINITY PREDICTED BY RF-SCORE:    0.00 PKD
ROOT
HETATM    1  C   UNL     1     -11.535  14.957  68.369  1.00  0.00    -0.338 C  
HETATM    2  C   UNL     1     -11.897  14.304  67.046  1.00  0.00    -0.455 C  
ENDROOT
BRANCH   2   3
HETATM    3  C   UNL     1     -10.679  14.201  66.131  1.00  0.00    -0.297 C  
BRANCH   3   4
HETATM    4  C   UNL     1     -10.232  12.751  65.970  1.00  0.00    -0.290 C  
BRANCH   4   5
HETATM    5  C   UNL     1     -11.355  11.792  66.357  1.00  0.00    -0.361 C  
BRANCH   5   6
HETATM    6  C   UNL     1     -10.796  10.540  67.025  1.00  0.00    -0.288 C  
BRANCH   6   7
HETATM    7  C   UNL     1     -10.489  10.804  68.495  1.00  0.00    -0.208 C  
BRANCH   7   8
HETATM    8  C   UNL     1     -11.752  11.207  69.248  1.00  0.00    -0.401 C  
BRANCH   8   9
HETATM    9  C   UNL     1     -11.740  10.641  70.664  1.00  0.00    -0.454 C  
BRANCH   9  10
HETATM   10  C   UNL     1     -13.156  10.546  71.219  1.00  0.00    -0.478 C  
BRANCH  10  11
HETATM   11  C   UNL     1     -13.255   9.457  72.283  1.00  0.00    -0.528 C  
BRANCH  11  12
HETATM   12  C   UNL     1     -12.109   8.460  72.141  1.00  0.00    -0.435 C  
BRANCH  12  13
HETATM   13  C   UNL     1     -12.583   7.162  71.493  1.00  0.00    -0.427 C  
BRANCH  13  14
HETATM   14  C   UNL     1     -11.392   6.312  71.057  1.00  0.00    -0.378 C  
BRANCH  14  15
HETATM   15  C   UNL     1     -11.281   6.251  69.536  1.00  0.00    -0.500 C  
HETATM   16  C   UNL     1     -10.180   7.148  69.021  1.00  0.00    -0.190 C  
HETATM   17  O   UNL     1     -10.073   7.100  67.672  1.00  0.00    -0.157 OA 
HETATM   18  O   UNL     1      -9.454   7.847  69.709  1.00  0.00    -0.163 OA 
ENDBRANCH  14  15
ENDBRANCH  13  14
ENDBRANCH  12  13
ENDBRANCH  11  12
ENDBRANCH  10  11
ENDBRANCH   9  10
ENDBRANCH   8   9
ENDBRANCH   7   8
ENDBRANCH   6   7
ENDBRANCH   5   6
ENDBRANCH   4   5
ENDBRANCH   3   4
ENDBRANCH   2   3
TORSDOF 13
ENDMDL
MODEL      145
REMARK 921   NORMALIZED FREE ENERGY PREDICTED BY IDOCK:   -3.70 KCAL/MOL
REMARK 922        TOTAL FREE ENERGY PREDICTED BY IDOCK:   -7.91 KCAL/MOL
REMARK 923 INTER-LIGAND FREE ENERGY PREDICTED BY IDOCK:   -6.54 KCAL/MOL
REMARK 924 INTRA-LIGAND FREE ENERGY PREDICTED BY IDOCK:   -1.37 KCAL/MOL
REMARK 927      BINDING AFFINITY PREDICTED BY RF-SCORE:    0.00 PKD
ROOT
HETATM    1  C   UNL     1     -10.642   5.250  73.926  1.00  0.00    -0.335 C  
HETATM    2  C   UNL     1      -9.893   4.303  73.004  1.00  0.00    -0.177 C  
ENDROOT
BRANCH   2   3
HETATM    3  C   UNL     1     -10.077   4.699  71.541  1.00  0.00    -0.255 C  
BRANCH   3   4
HETATM    4  C   UNL     1      -9.390   6.027  71.240  1.00  0.00    -0.170 C  
BRANCH   4   5
HETATM    5  C   UNL     1     -10.282   6.917  70.378  1.00  0.00    -0.209 C  
BRANCH   5   6
HETATM    6  C   UNL     1     -11.744   6.503  70.500  1.00  0.00    -0.438 C  
BRANCH   6   7
HETATM    7  C   UNL     1     -12.524   7.514  71.334  1.00  0.00    -0.382 C  
BRANCH   7   8
HETATM    8  C   UNL     1     -11.700   8.776  71.564  1.00  0.00    -0.377 C  
BRANCH   8   9
HETATM    9  C   UNL     1     -12.609   9.986  71.758  1.00  0.00    -0.504 C  
BRANCH   9  10
HETATM   10  C   UNL     1     -12.671  10.824  70.486  1.00  0.00    -0.388 C  
BRANCH  10  11
HETATM   11  C   UNL     1     -11.463  10.555  69.594  1.00  0.00    -0.349 C  
BRANCH  11  12
HETATM   12  C   UNL     1     -10.939  11.855  68.992  1.00  0.00    -0.267 C  
BRANCH  12  13
HETATM   13  C   UNL     1     -11.961  12.980  69.130  1.00  0.00    -0.320 C  
BRANCH  13  14
HETATM   14  C   UNL     1     -12.075  13.768  67.827  1.00  0.00    -0.325 C  
BRANCH  14  15
HETATM   15  C   UNL     1     -11.704  12.906  66.623  1.00  0.00    -0.452 C  
HETATM   16  C   UNL     1     -12.508  13.280  65.400  1.00  0.00    -0.489 C  
HETATM   17  O   UNL     1     -12.185  12.521  64.326  1.00  0.00    -0.400 OA 
HETATM   18  O   UNL     1     -13.356  14.155  65.349  1.00  0.00    -0.705 OA 
ENDBRANCH  14  15
ENDBRANCH  13  14
ENDBRANCH  12  13
ENDBRANCH  11  12
ENDBRANCH  10  11
ENDBRANCH   9  10
ENDBRANCH   8   9
ENDBRANCH   7   8
ENDBRANCH   6   7
ENDBRANCH   5   6
ENDBRANCH   4   5
ENDBRANCH   3   4
ENDBRANCH   2   3
TORSDOF 13
ENDMDL
MODEL      146
REMARK 921   NORMALIZED FREE ENERGY PREDICTED BY IDOCK:   -3.69 KCAL/MOL
REMARK 922        TOTAL FREE ENERGY PREDICTED BY IDOCK:   -7.89 KCAL/MOL
REMARK 923 INTER-LIGAND FREE ENERGY PREDICTED BY IDOCK:   -5.81 KCAL/MOL
REMARK 924 INTRA-LIGAND FREE ENERGY PREDICTED BY IDOCK:   -2.08 KCAL/MOL
REMARK 927      BINDING AFFINITY PREDICTED BY RF-SCORE:    0.00 PKD
ROOT
HETATM    1  C   UNL     1      -8.892   9.365  65.758  1.00  0.00    -0.204 C  
HETATM    2  C   UNL     1      -9.494   9.806  64.435  1.00  0.00    -0.233 C  
ENDROOT
BRANCH   2   3
HETATM    3  C   UNL     1     -10.552  10.887  64.644  1.00  0.00    -0.332 C  
BRANCH   3   4
HETATM    4  C   UNL     1     -10.771  11.697  63.370  1.00  0.00    -0.460 C  
BRANCH   4   5
HETATM    5  C   UNL     1     -11.943  12.660  63.534  1.00  0.00    -0.630 C  
BRANCH   5   6
HETATM    6  C   UNL     1     -12.468  12.642  64.966  1.00  0.00    -0.556 C  
BRANCH   6   7
HETATM    7  C   UNL     1     -12.647  14.062  65.493  1.00  0.00    -0.543 C  
BRANCH   7   8
HETATM    8  C   UNL     1     -12.249  15.086  64.437  1.00  0.00    -0.353 C  
BRANCH   8   9
HETATM    9  C   UNL     1     -11.102  15.959  64.936  1.00  0.00    -0.400 C  
BRANCH   9  10
HETATM   10  C   UNL     1      -9.873  15.111  65.245  1.00  0.00    -0.249 C  
BRANCH  10  11
HETATM   11  C   UNL     1      -9.188  15.586  66.522  1.00  0.00    -0.324 C  
BRANCH  11  12
HETATM   12  C   UNL     1      -8.764  14.397  67.379  1.00  0.00    -0.214 C  
BRANCH  12  13
HETATM   13  C   UNL     1      -9.550  13.142  67.011  1.00  0.00    -0.241 C  
BRANCH  13  14
HETATM   14  C   UNL     1     -10.392  12.667  68.193  1.00  0.00    -0.238 C  
BRANCH  14  15
HETATM   15  C   UNL     1      -9.802  11.409  68.824  1.00  0.00    -0.175 C  
HETATM   16  C   UNL     1     -10.719  10.219  68.661  1.00  0.00    -0.224 C  
HETATM   17  O   UNL     1     -10.203   9.098  69.216  1.00  0.00    -0.197 OA 
HETATM   18  O   UNL     1     -11.803  10.231  68.101  1.00  0.00    -0.238 OA 
ENDBRANCH  14  15
ENDBRANCH  13  14
ENDBRANCH  12  13
ENDBRANCH  11  12
ENDBRANCH  10  11
ENDBRANCH   9  10
ENDBRANCH   8   9
ENDBRANCH   7   8
ENDBRANCH   6   7
ENDBRANCH   5   6
ENDBRANCH   4   5
ENDBRANCH   3   4
ENDBRANCH   2   3
TORSDOF 13
ENDMDL
MODEL      147
REMARK 921   NORMALIZED FREE ENERGY PREDICTED BY IDOCK:   -3.68 KCAL/MOL
REMARK 922        TOTAL FREE ENERGY PREDICTED BY IDOCK:   -7.88 KCAL/MOL
REMARK 923 INTER-LIGAND FREE ENERGY PREDICTED BY IDOCK:   -5.92 KCAL/MOL
REMARK 924 INTRA-LIGAND FREE ENERGY PREDICTED BY IDOCK:   -1.96 KCAL/MOL
REMARK 927      BINDING AFFINITY PREDICTED BY RF-SCORE:    0.00 PKD
ROOT
HETATM    1  C   UNL     1     -11.943  12.940  64.186  1.00  0.00    -0.491 C  
HETATM    2  C   UNL     1     -11.702  13.674  65.494  1.00  0.00    -0.352 C  
ENDROOT
BRANCH   2   3
HETATM    3  C   UNL     1     -10.241  13.568  65.924  1.00  0.00    -0.306 C  
BRANCH   3   4
HETATM    4  C   UNL     1      -9.807  14.803  66.708  1.00  0.00    -0.263 C  
BRANCH   4   5
HETATM    5  C   UNL     1     -10.918  15.269  67.646  1.00  0.00    -0.311 C  
BRANCH   5   6
HETATM    6  C   UNL     1     -10.808  14.583  69.004  1.00  0.00    -0.265 C  
BRANCH   6   7
HETATM    7  C   UNL     1     -12.031  13.710  69.268  1.00  0.00    -0.384 C  
BRANCH   7   8
HETATM    8  C   UNL     1     -11.614  12.329  69.759  1.00  0.00    -0.314 C  
BRANCH   8   9
HETATM    9  C   UNL     1     -12.025  11.253  68.759  1.00  0.00    -0.350 C  
BRANCH   9  10
HETATM   10  C   UNL     1     -10.836  10.827  67.906  1.00  0.00    -0.313 C  
BRANCH  10  11
HETATM   11  C   UNL     1      -9.542  10.859  68.714  1.00  0.00    -0.195 C  
BRANCH  11  12
HETATM   12  C   UNL     1      -9.152   9.455  69.161  1.00  0.00    -0.148 C  
BRANCH  12  13
HETATM   13  C   UNL     1      -9.341   9.279  70.665  1.00  0.00    -0.329 C  
BRANCH  13  14
HETATM   14  C   UNL     1     -10.586   8.444  70.958  1.00  0.00    -0.258 C  
BRANCH  14  15
HETATM   15  C   UNL     1     -11.635   9.258  71.710  1.00  0.00    -0.458 C  
HETATM   16  C   UNL     1     -12.951   8.522  71.805  1.00  0.00    -0.352 C  
HETATM   17  O   UNL     1     -13.888   9.236  72.472  1.00  0.00    -0.468 OA 
HETATM   18  O   UNL     1     -13.179   7.415  71.345  1.00  0.00    -0.364 OA 
ENDBRANCH  14  15
ENDBRANCH  13  14
ENDBRANCH  12  13
ENDBRANCH  11  12
ENDBRANCH  10  11
ENDBRANCH   9  10
ENDBRANCH   8   9
ENDBRANCH   7   8
ENDBRANCH   6   7
ENDBRANCH   5   6
ENDBRANCH   4   5
ENDBRANCH   3   4
ENDBRANCH   2   3
TORSDOF 13
ENDMDL
MODEL      148
REMARK 921   NORMALIZED FREE ENERGY PREDICTED BY IDOCK:   -3.67 KCAL/MOL
REMARK 922        TOTAL FREE ENERGY PREDICTED BY IDOCK:   -7.87 KCAL/MOL
REMARK 923 INTER-LIGAND FREE ENERGY PREDICTED BY IDOCK:   -6.18 KCAL/MOL
REMARK 924 INTRA-LIGAND FREE ENERGY PREDICTED BY IDOCK:   -1.69 KCAL/MOL
REMARK 927      BINDING AFFINITY PREDICTED BY RF-SCORE:    0.00 PKD
ROOT
HETATM    1  C   UNL     1     -10.758  19.509  65.988  1.00  0.00    -0.529 C  
HETATM    2  C   UNL     1     -10.307  19.844  67.400  1.00  0.00    -0.565 C  
ENDROOT
BRANCH   2   3
HETATM    3  C   UNL     1      -8.805  20.109  67.451  1.00  0.00    -0.440 C  
BRANCH   3   4
HETATM    4  C   UNL     1      -8.182  20.013  66.061  1.00  0.00    -0.265 C  
BRANCH   4   5
HETATM    5  C   UNL     1      -6.686  19.727  66.155  1.00  0.00    -0.238 C  
BRANCH   5   6
HETATM    6  C   UNL     1      -6.355  18.356  65.576  1.00  0.00    -0.310 C  
BRANCH   6   7
HETATM    7  C   UNL     1      -5.714  17.463  66.634  1.00  0.00    -0.232 C  
BRANCH   7   8
HETATM    8  C   UNL     1      -6.751  16.997  67.650  1.00  0.00    -0.162 C  
BRANCH   8   9
HETATM    9  C   UNL     1      -7.091  15.525  67.437  1.00  0.00    -0.235 C  
BRANCH   9  10
HETATM   10  C   UNL     1      -8.442  15.377  66.748  1.00  0.00    -0.307 C  
BRANCH  10  11
HETATM   11  C   UNL     1      -9.508  16.214  67.449  1.00  0.00    -0.227 C  
BRANCH  11  12
HETATM   12  C   UNL     1     -10.903  15.806  66.986  1.00  0.00    -0.273 C  
BRANCH  12  13
HETATM   13  C   UNL     1     -11.184  14.340  67.305  1.00  0.00    -0.330 C  
BRANCH  13  14
HETATM   14  C   UNL     1     -11.748  13.621  66.081  1.00  0.00    -0.391 C  
BRANCH  14  15
HETATM   15  C   UNL     1     -10.645  12.927  65.289  1.00  0.00    -0.316 C  
HETATM   16  C   UNL     1     -11.019  12.766  63.834  1.00  0.00    -0.417 C  
HETATM   17  O   UNL     1     -10.045  12.152  63.121  1.00  0.00    -0.383 OA 
HETATM   18  O   UNL     1     -12.066  13.133  63.326  1.00  0.00    -0.563 OA 
ENDBRANCH  14  15
ENDBRANCH  13  14
ENDBRANCH  12  13
ENDBRANCH  11  12
ENDBRANCH  10  11
ENDBRANCH   9  10
ENDBRANCH   8   9
ENDBRANCH   7   8
ENDBRANCH   6   7
ENDBRANCH   5   6
ENDBRANCH   4   5
ENDBRANCH   3   4
ENDBRANCH   2   3
TORSDOF 13
ENDMDL
MODEL      149
REMARK 921   NORMALIZED FREE ENERGY PREDICTED BY IDOCK:   -3.67 KCAL/MOL
REMARK 922        TOTAL FREE ENERGY PREDICTED BY IDOCK:   -7.86 KCAL/MOL
REMARK 923 INTER-LIGAND FREE ENERGY PREDICTED BY IDOCK:   -6.66 KCAL/MOL
REMARK 924 INTRA-LIGAND FREE ENERGY PREDICTED BY IDOCK:   -1.20 KCAL/MOL
REMARK 927      BINDING AFFINITY PREDICTED BY RF-SCORE:    0.00 PKD
ROOT
HETATM    1  C   UNL     1     -10.610  17.740  67.409  1.00  0.00    -0.341 C  
HETATM    2  C   UNL     1      -9.834  16.680  66.646  1.00  0.00    -0.285 C  
ENDROOT
BRANCH   2   3
HETATM    3  C   UNL     1     -10.515  16.346  65.321  1.00  0.00    -0.285 C  
BRANCH   3   4
HETATM    4  C   UNL     1     -10.432  14.852  65.021  1.00  0.00    -0.429 C  
BRANCH   4   5
HETATM    5  C   UNL     1     -11.823  14.265  64.798  1.00  0.00    -0.436 C  
BRANCH   5   6
HETATM    6  C   UNL     1     -12.205  13.322  65.934  1.00  0.00    -0.497 C  
BRANCH   6   7
HETATM    7  C   UNL     1     -12.280  14.075  67.259  1.00  0.00    -0.325 C  
BRANCH   7   8
HETATM    8  C   UNL     1     -11.627  13.271  68.377  1.00  0.00    -0.372 C  
BRANCH   8   9
HETATM    9  C   UNL     1     -11.668  11.778  68.065  1.00  0.00    -0.363 C  
BRANCH   9  10
HETATM   10  C   UNL     1     -11.898  10.968  69.335  1.00  0.00    -0.407 C  
BRANCH  10  11
HETATM   11  C   UNL     1     -12.203  11.880  70.519  1.00  0.00    -0.426 C  
BRANCH  11  12
HETATM   12  C   UNL     1     -12.810  11.084  71.669  1.00  0.00    -0.540 C  
BRANCH  12  13
HETATM   13  C   UNL     1     -13.387   9.758  71.181  1.00  0.00    -0.360 C  
BRANCH  13  14
HETATM   14  C   UNL     1     -13.030   8.627  72.142  1.00  0.00    -0.432 C  
BRANCH  14  15
HETATM   15  C   UNL     1     -11.518   8.463  72.267  1.00  0.00    -0.454 C  
HETATM   16  C   UNL     1     -10.964   7.553  71.195  1.00  0.00    -0.246 C  
HETATM   17  O   UNL     1      -9.623   7.403  71.296  1.00  0.00    -0.162 OA 
HETATM   18  O   UNL     1     -11.619   7.002  70.325  1.00  0.00    -0.299 OA 
ENDBRANCH  14  15
ENDBRANCH  13  14
ENDBRANCH  12  13
ENDBRANCH  11  12
ENDBRANCH  10  11
ENDBRANCH   9  10
ENDBRANCH   8   9
ENDBRANCH   7   8
ENDBRANCH   6   7
ENDBRANCH   5   6
ENDBRANCH   4   5
ENDBRANCH   3   4
ENDBRANCH   2   3
TORSDOF 13
ENDMDL
MODEL      150
REMARK 921   NORMALIZED FREE ENERGY PREDICTED BY IDOCK:   -3.66 KCAL/MOL
REMARK 922        TOTAL FREE ENERGY PREDICTED BY IDOCK:   -7.85 KCAL/MOL
REMARK 923 INTER-LIGAND FREE ENERGY PREDICTED BY IDOCK:   -6.10 KCAL/MOL
REMARK 924 INTRA-LIGAND FREE ENERGY PREDICTED BY IDOCK:   -1.75 KCAL/MOL
REMARK 927      BINDING AFFINITY PREDICTED BY RF-SCORE:    0.00 PKD
ROOT
HETATM    1  C   UNL     1     -11.108  19.445  67.001  1.00  0.00    -0.272 C  
HETATM    2  C   UNL     1     -10.212  19.780  68.181  1.00  0.00    -0.577 C  
ENDROOT
BRANCH   2   3
HETATM    3  C   UNL     1      -8.851  19.100  68.048  1.00  0.00    -0.353 C  
BRANCH   3   4
HETATM    4  C   UNL     1      -8.871  18.037  66.954  1.00  0.00    -0.266 C  
BRANCH   4   5
HETATM    5  C   UNL     1      -7.453  17.607  66.590  1.00  0.00    -0.270 C  
BRANCH   5   6
HETATM    6  C   UNL     1      -7.312  16.089  66.646  1.00  0.00    -0.099 C  
BRANCH   6   7
HETATM    7  C   UNL     1      -6.441  15.671  67.827  1.00  0.00    -0.181 C  
BRANCH   7   8
HETATM    8  C   UNL     1      -7.159  15.928  69.147  1.00  0.00    -0.185 C  
BRANCH   8   9
HETATM    9  C   UNL     1      -7.887  14.673  69.619  1.00  0.00     0.101 C  
BRANCH   9  10
HETATM   10  C   UNL     1      -9.222  14.520  68.899  1.00  0.00    -0.118 C  
BRANCH  10  11
HETATM   11  C   UNL     1     -10.240  15.532  69.415  1.00  0.00    -0.262 C  
BRANCH  11  12
HETATM   12  C   UNL     1     -11.483  15.542  68.532  1.00  0.00    -0.369 C  
BRANCH  12  13
HETATM   13  C   UNL     1     -11.845  14.134  68.070  1.00  0.00    -0.400 C  
BRANCH  13  14
HETATM   14  C   UNL     1     -11.826  14.045  66.545  1.00  0.00    -0.439 C  
BRANCH  14  15
HETATM   15  C   UNL     1     -11.276  15.324  65.923  1.00  0.00    -0.237 C  
HETATM   16  C   UNL     1     -11.818  15.545  64.530  1.00  0.00    -0.216 C  
HETATM   17  O   UNL     1     -11.336  16.679  63.969  1.00  0.00    -1.120 OA 
HETATM   18  O   UNL     1     -12.598  14.810  63.947  1.00  0.00    -0.834 OA 
ENDBRANCH  14  15
ENDBRANCH  13  14
ENDBRANCH  12  13
ENDBRANCH  11  12
ENDBRANCH  10  11
ENDBRANCH   9  10
ENDBRANCH   8   9
ENDBRANCH   7   8
ENDBRANCH   6   7
ENDBRANCH   5   6
ENDBRANCH   4   5
ENDBRANCH   3   4
ENDBRANCH   2   3
TORSDOF 13
ENDMDL
MODEL      151
REMARK 921   NORMALIZED FREE ENERGY PREDICTED BY IDOCK:   -3.66 KCAL/MOL
REMARK 922        TOTAL FREE ENERGY PREDICTED BY IDOCK:   -7.85 KCAL/MOL
REMARK 923 INTER-LIGAND FREE ENERGY PREDICTED BY IDOCK:   -6.49 KCAL/MOL
REMARK 924 INTRA-LIGAND FREE ENERGY PREDICTED BY IDOCK:   -1.36 KCAL/MOL
REMARK 927      BINDING AFFINITY PREDICTED BY RF-SCORE:    0.00 PKD
ROOT
HETATM    1  C   UNL     1     -10.702   8.567  72.169  1.00  0.00    -0.426 C  
HETATM    2  C   UNL     1     -12.147   8.309  72.561  1.00  0.00    -0.400 C  
ENDROOT
BRANCH   2   3
HETATM    3  C   UNL     1     -13.051   9.457  72.118  1.00  0.00    -0.526 C  
BRANCH   3   4
HETATM    4  C   UNL     1     -12.239  10.586  71.490  1.00  0.00    -0.385 C  
BRANCH   4   5
HETATM    5  C   UNL     1     -13.129  11.786  71.180  1.00  0.00    -0.145 C  
BRANCH   5   6
HETATM    6  C   UNL     1     -13.321  12.657  72.417  1.00  0.00    -0.424 C  
BRANCH   6   7
HETATM    7  C   UNL     1     -14.259  13.822  72.117  1.00  0.00    -0.544 C  
BRANCH   7   8
HETATM    8  C   UNL     1     -13.608  15.150  72.483  1.00  0.00    -0.592 C  
BRANCH   8   9
HETATM    9  C   UNL     1     -12.101  15.093  72.259  1.00  0.00    -0.478 C  
BRANCH   9  10
HETATM   10  C   UNL     1     -11.663  16.158  71.260  1.00  0.00    -0.480 C  
BRANCH  10  11
HETATM   11  C   UNL     1     -10.844  15.543  70.129  1.00  0.00    -0.346 C  
BRANCH  11  12
HETATM   12  C   UNL     1     -11.668  14.508  69.369  1.00  0.00    -0.361 C  
BRANCH  12  13
HETATM   13  C   UNL     1     -10.792  13.362  68.870  1.00  0.00    -0.253 C  
BRANCH  13  14
HETATM   14  C   UNL     1     -10.026  13.776  67.616  1.00  0.00    -0.238 C  
BRANCH  14  15
HETATM   15  C   UNL     1      -8.545  13.426  67.730  1.00  0.00    -0.194 C  
HETATM   16  C   UNL     1      -7.664  14.605  67.387  1.00  0.00    -0.201 C  
HETATM   17  O   UNL     1      -6.348  14.305  67.488  1.00  0.00    -0.295 OA 
HETATM   18  O   UNL     1      -8.058  15.711  67.054  1.00  0.00    -0.199 OA 
ENDBRANCH  14  15
ENDBRANCH  13  14
ENDBRANCH  12  13
ENDBRANCH  11  12
ENDBRANCH  10  11
ENDBRANCH   9  10
ENDBRANCH   8   9
ENDBRANCH   7   8
ENDBRANCH   6   7
ENDBRANCH   5   6
ENDBRANCH   4   5
ENDBRANCH   3   4
ENDBRANCH   2   3
TORSDOF 13
ENDMDL
MODEL      152
REMARK 921   NORMALIZED FREE ENERGY PREDICTED BY IDOCK:   -3.66 KCAL/MOL
REMARK 922        TOTAL FREE ENERGY PREDICTED BY IDOCK:   -7.85 KCAL/MOL
REMARK 923 INTER-LIGAND FREE ENERGY PREDICTED BY IDOCK:   -6.22 KCAL/MOL
REMARK 924 INTRA-LIGAND FREE ENERGY PREDICTED BY IDOCK:   -1.63 KCAL/MOL
REMARK 927      BINDING AFFINITY PREDICTED BY RF-SCORE:    0.00 PKD
ROOT
HETATM    1  C   UNL     1     -13.687  14.855  71.344  1.00  0.00    -0.527 C  
HETATM    2  C   UNL     1     -12.291  14.439  70.913  1.00  0.00    -0.419 C  
ENDROOT
BRANCH   2   3
HETATM    3  C   UNL     1     -11.960  14.979  69.524  1.00  0.00    -0.346 C  
BRANCH   3   4
HETATM    4  C   UNL     1     -11.103  13.990  68.739  1.00  0.00    -0.287 C  
BRANCH   4   5
HETATM    5  C   UNL     1     -11.763  12.614  68.698  1.00  0.00    -0.364 C  
BRANCH   5   6
HETATM    6  C   UNL     1     -10.748  11.514  68.989  1.00  0.00    -0.233 C  
BRANCH   6   7
HETATM    7  C   UNL     1     -11.256  10.588  70.090  1.00  0.00    -0.389 C  
BRANCH   7   8
HETATM    8  C   UNL     1     -12.742  10.812  70.343  1.00  0.00    -0.346 C  
BRANCH   8   9
HETATM    9  C   UNL     1     -13.048  10.773  71.837  1.00  0.00    -0.557 C  
BRANCH   9  10
HETATM   10  C   UNL     1     -12.959   9.348  72.369  1.00  0.00    -0.427 C  
BRANCH  10  11
HETATM   11  C   UNL     1     -13.904   8.421  71.612  1.00  0.00    -0.428 C  
BRANCH  11  12
HETATM   12  C   UNL     1     -13.332   7.009  71.542  1.00  0.00    -0.370 C  
BRANCH  12  13
HETATM   13  C   UNL     1     -12.065   6.967  70.693  1.00  0.00    -0.363 C  
BRANCH  13  14
HETATM   14  C   UNL     1     -10.900   6.387  71.491  1.00  0.00    -0.299 C  
BRANCH  14  15
HETATM   15  C   UNL     1     -11.396   5.577  72.686  1.00  0.00    -0.346 C  
HETATM   16  C   UNL     1     -10.567   4.332  72.899  1.00  0.00    -0.180 C  
HETATM   17  O   UNL     1     -10.999   3.607  73.958  1.00  0.00    -0.208 OA 
HETATM   18  O   UNL     1      -9.616   3.987  72.217  1.00  0.00    -0.131 OA 
ENDBRANCH  14  15
ENDBRANCH  13  14
ENDBRANCH  12  13
ENDBRANCH  11  12
ENDBRANCH  10  11
ENDBRANCH   9  10
ENDBRANCH   8   9
ENDBRANCH   7   8
ENDBRANCH   6   7
ENDBRANCH   5   6
ENDBRANCH   4   5
ENDBRANCH   3   4
ENDBRANCH   2   3
TORSDOF 13
ENDMDL
MODEL      153
REMARK 921   NORMALIZED FREE ENERGY PREDICTED BY IDOCK:   -3.65 KCAL/MOL
REMARK 922        TOTAL FREE ENERGY PREDICTED BY IDOCK:   -7.83 KCAL/MOL
REMARK 923 INTER-LIGAND FREE ENERGY PREDICTED BY IDOCK:   -6.68 KCAL/MOL
REMARK 924 INTRA-LIGAND FREE ENERGY PREDICTED BY IDOCK:   -1.15 KCAL/MOL
REMARK 927      BINDING AFFINITY PREDICTED BY RF-SCORE:    0.00 PKD
ROOT
HETATM    1  C   UNL     1      -9.941   6.311  69.854  1.00  0.00    -0.206 C  
HETATM    2  C   UNL     1     -11.005   7.308  70.280  1.00  0.00    -0.281 C  
ENDROOT
BRANCH   2   3
HETATM    3  C   UNL     1     -11.251   7.241  71.786  1.00  0.00    -0.278 C  
BRANCH   3   4
HETATM    4  C   UNL     1     -11.473   8.633  72.370  1.00  0.00    -0.369 C  
BRANCH   4   5
HETATM    5  C   UNL     1     -12.958   8.986  72.381  1.00  0.00    -0.471 C  
BRANCH   5   6
HETATM    6  C   UNL     1     -13.306   9.918  71.225  1.00  0.00    -0.419 C  
BRANCH   6   7
HETATM    7  C   UNL     1     -12.893  11.351  71.544  1.00  0.00    -0.508 C  
BRANCH   7   8
HETATM    8  C   UNL     1     -11.831  11.840  70.566  1.00  0.00    -0.288 C  
BRANCH   8   9
HETATM    9  C   UNL     1     -12.130  11.348  69.154  1.00  0.00    -0.331 C  
BRANCH   9  10
HETATM   10  C   UNL     1     -10.848  11.237  68.338  1.00  0.00    -0.248 C  
BRANCH  10  11
HETATM   11  C   UNL     1     -10.691  12.430  67.399  1.00  0.00    -0.257 C  
BRANCH  11  12
HETATM   12  C   UNL     1     -10.827  11.992  65.945  1.00  0.00    -0.329 C  
BRANCH  12  13
HETATM   13  C   UNL     1     -12.185  12.390  65.373  1.00  0.00    -0.386 C  
BRANCH  13  14
HETATM   14  C   UNL     1     -12.537  13.822  65.765  1.00  0.00    -0.525 C  
BRANCH  14  15
HETATM   15  C   UNL     1     -12.251  14.796  64.626  1.00  0.00    -0.405 C  
HETATM   16  C   UNL     1     -11.345  15.922  65.068  1.00  0.00    -0.193 C  
HETATM   17  O   UNL     1     -11.083  16.790  64.063  1.00  0.00    -0.909 OA 
HETATM   18  O   UNL     1     -10.885  16.064  66.190  1.00  0.00    -0.281 OA 
ENDBRANCH  14  15
ENDBRANCH  13  14
ENDBRANCH  12  13
ENDBRANCH  11  12
ENDBRANCH  10  11
ENDBRANCH   9  10
ENDBRANCH   8   9
ENDBRANCH   7   8
ENDBRANCH   6   7
ENDBRANCH   5   6
ENDBRANCH   4   5
ENDBRANCH   3   4
ENDBRANCH   2   3
TORSDOF 13
ENDMDL
MODEL      154
REMARK 921   NORMALIZED FREE ENERGY PREDICTED BY IDOCK:   -3.65 KCAL/MOL
REMARK 922        TOTAL FREE ENERGY PREDICTED BY IDOCK:   -7.82 KCAL/MOL
REMARK 923 INTER-LIGAND FREE ENERGY PREDICTED BY IDOCK:   -6.55 KCAL/MOL
REMARK 924 INTRA-LIGAND FREE ENERGY PREDICTED BY IDOCK:   -1.28 KCAL/MOL
REMARK 927      BINDING AFFINITY PREDICTED BY RF-SCORE:    0.00 PKD
ROOT
HETATM    1  C   UNL     1      -9.291   8.631  66.803  1.00  0.00    -0.229 C  
HETATM    2  C   UNL     1     -10.430   8.565  67.807  1.00  0.00    -0.287 C  
ENDROOT
BRANCH   2   3
HETATM    3  C   UNL     1     -10.119   7.577  68.929  1.00  0.00    -0.195 C  
BRANCH   3   4
HETATM    4  C   UNL     1     -11.146   6.450  68.970  1.00  0.00    -0.424 C  
BRANCH   4   5
HETATM    5  C   UNL     1     -10.782   5.422  70.038  1.00  0.00    -0.296 C  
BRANCH   5   6
HETATM    6  C   UNL     1      -9.856   6.030  71.086  1.00  0.00    -0.214 C  
BRANCH   6   7
HETATM    7  C   UNL     1     -10.627   6.366  72.358  1.00  0.00    -0.240 C  
BRANCH   7   8
HETATM    8  C   UNL     1     -10.346   7.797  72.800  1.00  0.00    -0.374 C  
BRANCH   8   9
HETATM    9  C   UNL     1     -11.132   8.790  71.951  1.00  0.00    -0.434 C  
BRANCH   9  10
HETATM   10  C   UNL     1     -12.631   8.552  72.091  1.00  0.00    -0.431 C  
BRANCH  10  11
HETATM   11  C   UNL     1     -13.427   9.623  71.351  1.00  0.00    -0.403 C  
BRANCH  11  12
HETATM   12  C   UNL     1     -12.864  11.010  71.642  1.00  0.00    -0.540 C  
BRANCH  12  13
HETATM   13  C   UNL     1     -12.321  11.664  70.374  1.00  0.00    -0.373 C  
BRANCH  13  14
HETATM   14  C   UNL     1     -12.188  13.174  70.561  1.00  0.00    -0.405 C  
BRANCH  14  15
HETATM   15  C   UNL     1     -13.099  13.676  71.677  1.00  0.00    -0.455 C  
HETATM   16  C   UNL     1     -12.564  14.942  72.307  1.00  0.00    -0.334 C  
HETATM   17  O   UNL     1     -13.366  15.397  73.298  1.00  0.00    -0.486 OA 
HETATM   18  O   UNL     1     -11.534  15.513  71.986  1.00  0.00    -0.423 OA 
ENDBRANCH  14  15
ENDBRANCH  13  14
ENDBRANCH  12  13
ENDBRANCH  11  12
ENDBRANCH  10  11
ENDBRANCH   9  10
ENDBRANCH   8   9
ENDBRANCH   7   8
ENDBRANCH   6   7
ENDBRANCH   5   6
ENDBRANCH   4   5
ENDBRANCH   3   4
ENDBRANCH   2   3
TORSDOF 13
ENDMDL
MODEL      155
REMARK 921   NORMALIZED FREE ENERGY PREDICTED BY IDOCK:   -3.64 KCAL/MOL
REMARK 922        TOTAL FREE ENERGY PREDICTED BY IDOCK:   -7.82 KCAL/MOL
REMARK 923 INTER-LIGAND FREE ENERGY PREDICTED BY IDOCK:   -6.42 KCAL/MOL
REMARK 924 INTRA-LIGAND FREE ENERGY PREDICTED BY IDOCK:   -1.40 KCAL/MOL
REMARK 927      BINDING AFFINITY PREDICTED BY RF-SCORE:    0.00 PKD
ROOT
HETATM    1  C   UNL     1     -10.699  19.751  67.211  1.00  0.00    -0.532 C  
HETATM    2  C   UNL     1      -9.596  18.990  67.927  1.00  0.00    -0.373 C  
ENDROOT
BRANCH   2   3
HETATM    3  C   UNL     1      -9.224  17.717  67.171  1.00  0.00    -0.253 C  
BRANCH   3   4
HETATM    4  C   UNL     1     -10.252  17.400  66.088  1.00  0.00    -0.334 C  
BRANCH   4   5
HETATM    5  C   UNL     1     -10.228  15.916  65.736  1.00  0.00    -0.389 C  
BRANCH   5   6
HETATM    6  C   UNL     1     -10.054  15.061  66.987  1.00  0.00    -0.244 C  
BRANCH   6   7
HETATM    7  C   UNL     1      -8.697  14.364  66.980  1.00  0.00    -0.244 C  
BRANCH   7   8
HETATM    8  C   UNL     1      -8.549  13.455  68.194  1.00  0.00    -0.174 C  
BRANCH   8   9
HETATM    9  C   UNL     1      -7.574  12.319  67.903  1.00  0.00    -0.127 C  
BRANCH   9  10
HETATM   10  C   UNL     1      -8.091  11.440  66.771  1.00  0.00    -0.161 C  
BRANCH  10  11
HETATM   11  C   UNL     1      -9.081  10.402  67.293  1.00  0.00    -0.146 C  
BRANCH  11  12
HETATM   12  C   UNL     1     -10.260  10.255  66.337  1.00  0.00    -0.290 C  
BRANCH  12  13
HETATM   13  C   UNL     1      -9.794  10.214  64.884  1.00  0.00    -0.390 C  
BRANCH  13  14
HETATM   14  C   UNL     1     -10.552  11.239  64.045  1.00  0.00    -0.450 C  
BRANCH  14  15
HETATM   15  C   UNL     1     -11.126  12.353  64.916  1.00  0.00    -0.344 C  
HETATM   16  C   UNL     1     -12.533  12.716  64.502  1.00  0.00    -0.448 C  
HETATM   17  O   UNL     1     -13.052  13.702  65.271  1.00  0.00    -0.735 OA 
HETATM   18  O   UNL     1     -13.159  12.203  63.589  1.00  0.00    -0.787 OA 
ENDBRANCH  14  15
ENDBRANCH  13  14
ENDBRANCH  12  13
ENDBRANCH  11  12
ENDBRANCH  10  11
ENDBRANCH   9  10
ENDBRANCH   8   9
ENDBRANCH   7   8
ENDBRANCH   6   7
ENDBRANCH   5   6
ENDBRANCH   4   5
ENDBRANCH   3   4
ENDBRANCH   2   3
TORSDOF 13
ENDMDL
MODEL      156
REMARK 921   NORMALIZED FREE ENERGY PREDICTED BY IDOCK:   -3.62 KCAL/MOL
REMARK 922        TOTAL FREE ENERGY PREDICTED BY IDOCK:   -7.78 KCAL/MOL
REMARK 923 INTER-LIGAND FREE ENERGY PREDICTED BY IDOCK:   -5.58 KCAL/MOL
REMARK 924 INTRA-LIGAND FREE ENERGY PREDICTED BY IDOCK:   -2.20 KCAL/MOL
REMARK 927      BINDING AFFINITY PREDICTED BY RF-SCORE:    0.00 PKD
ROOT
HETATM    1  C   UNL     1      -9.927  11.503  63.291  1.00  0.00    -0.435 C  
HETATM    2  C   UNL     1     -11.041  12.320  63.921  1.00  0.00    -0.475 C  
ENDROOT
BRANCH   2   3
HETATM    3  C   UNL     1     -10.942  12.305  65.444  1.00  0.00    -0.341 C  
BRANCH   3   4
HETATM    4  C   UNL     1      -9.609  11.719  65.903  1.00  0.00    -0.249 C  
BRANCH   4   5
HETATM    5  C   UNL     1      -8.814  12.745  66.706  1.00  0.00    -0.161 C  
BRANCH   5   6
HETATM    6  C   UNL     1      -8.636  12.286  68.150  1.00  0.00    -0.181 C  
BRANCH   6   7
HETATM    7  C   UNL     1      -8.706  10.766  68.246  1.00  0.00    -0.136 C  
BRANCH   7   8
HETATM    8  C   UNL     1      -9.656  10.336  69.358  1.00  0.00    -0.237 C  
BRANCH   8   9
HETATM    9  C   UNL     1     -11.010   9.932  68.785  1.00  0.00    -0.217 C  
BRANCH   9  10
HETATM   10  C   UNL     1     -11.974  11.113  68.792  1.00  0.00    -0.337 C  
BRANCH  10  11
HETATM   11  C   UNL     1     -12.091  11.715  70.189  1.00  0.00    -0.414 C  
BRANCH  11  12
HETATM   12  C   UNL     1     -11.923  13.230  70.137  1.00  0.00    -0.388 C  
BRANCH  12  13
HETATM   13  C   UNL     1     -11.875  13.733  68.697  1.00  0.00    -0.409 C  
BRANCH  13  14
HETATM   14  C   UNL     1     -11.745  15.254  68.661  1.00  0.00    -0.367 C  
BRANCH  14  15
HETATM   15  C   UNL     1     -10.914  15.711  67.465  1.00  0.00    -0.309 C  
HETATM   16  C   UNL     1     -10.261  17.049  67.718  1.00  0.00    -0.312 C  
HETATM   17  O   UNL     1      -9.519  17.463  66.664  1.00  0.00    -0.255 OA 
HETATM   18  O   UNL     1     -10.367  17.709  68.740  1.00  0.00    -0.362 OA 
ENDBRANCH  14  15
ENDBRANCH  13  14
ENDBRANCH  12  13
ENDBRANCH  11  12
ENDBRANCH  10  11
ENDBRANCH   9  10
ENDBRANCH   8   9
ENDBRANCH   7   8
ENDBRANCH   6   7
ENDBRANCH   5   6
ENDBRANCH   4   5
ENDBRANCH   3   4
ENDBRANCH   2   3
TORSDOF 13
ENDMDL
MODEL      157
REMARK 921   NORMALIZED FREE ENERGY PREDICTED BY IDOCK:   -3.62 KCAL/MOL
REMARK 922        TOTAL FREE ENERGY PREDICTED BY IDOCK:   -7.78 KCAL/MOL
REMARK 923 INTER-LIGAND FREE ENERGY PREDICTED BY IDOCK:   -6.43 KCAL/MOL
REMARK 924 INTRA-LIGAND FREE ENERGY PREDICTED BY IDOCK:   -1.35 KCAL/MOL
REMARK 927      BINDING AFFINITY PREDICTED BY RF-SCORE:    0.00 PKD
ROOT
HETATM    1  C   UNL     1     -12.531  12.685  71.042  1.00  0.00    -0.354 C  
HETATM    2  C   UNL     1     -13.152  11.555  71.846  1.00  0.00    -0.492 C  
ENDROOT
BRANCH   2   3
HETATM    3  C   UNL     1     -13.070  10.231  71.089  1.00  0.00    -0.481 C  
BRANCH   3   4
HETATM    4  C   UNL     1     -11.957   9.348  71.646  1.00  0.00    -0.465 C  
BRANCH   4   5
HETATM    5  C   UNL     1     -11.071   8.819  70.521  1.00  0.00    -0.278 C  
BRANCH   5   6
HETATM    6  C   UNL     1      -9.761   9.597  70.449  1.00  0.00    -0.304 C  
BRANCH   6   7
HETATM    7  C   UNL     1      -9.550  10.168  69.050  1.00  0.00    -0.202 C  
BRANCH   7   8
HETATM    8  C   UNL     1     -10.828  10.070  68.226  1.00  0.00    -0.286 C  
BRANCH   8   9
HETATM    9  C   UNL     1     -10.830  11.105  67.106  1.00  0.00    -0.326 C  
BRANCH   9  10
HETATM   10  C   UNL     1     -11.599  12.353  67.525  1.00  0.00    -0.431 C  
BRANCH  10  11
HETATM   11  C   UNL     1     -12.017  13.173  66.308  1.00  0.00    -0.473 C  
BRANCH  11  12
HETATM   12  C   UNL     1     -11.376  14.556  66.345  1.00  0.00    -0.349 C  
BRANCH  12  13
HETATM   13  C   UNL     1     -10.786  14.856  67.720  1.00  0.00    -0.286 C  
BRANCH  13  14
HETATM   14  C   UNL     1     -10.906  16.343  68.046  1.00  0.00    -0.342 C  
BRANCH  14  15
HETATM   15  C   UNL     1     -10.358  17.204  66.913  1.00  0.00    -0.308 C  
HETATM   16  C   UNL     1     -10.028  18.602  67.383  1.00  0.00    -0.332 C  
HETATM   17  O   UNL     1      -9.539  19.374  66.384  1.00  0.00    -0.341 OA 
HETATM   18  O   UNL     1     -10.173  19.020  68.520  1.00  0.00    -0.383 OA 
ENDBRANCH  14  15
ENDBRANCH  13  14
ENDBRANCH  12  13
ENDBRANCH  11  12
ENDBRANCH  10  11
ENDBRANCH   9  10
ENDBRANCH   8   9
ENDBRANCH   7   8
ENDBRANCH   6   7
ENDBRANCH   5   6
ENDBRANCH   4   5
ENDBRANCH   3   4
ENDBRANCH   2   3
TORSDOF 13
ENDMDL
MODEL      158
REMARK 921   NORMALIZED FREE ENERGY PREDICTED BY IDOCK:   -3.62 KCAL/MOL
REMARK 922        TOTAL FREE ENERGY PREDICTED BY IDOCK:   -7.78 KCAL/MOL
REMARK 923 INTER-LIGAND FREE ENERGY PREDICTED BY IDOCK:   -6.11 KCAL/MOL
REMARK 924 INTRA-LIGAND FREE ENERGY PREDICTED BY IDOCK:   -1.67 KCAL/MOL
REMARK 927      BINDING AFFINITY PREDICTED BY RF-SCORE:    0.00 PKD
ROOT
HETATM    1  C   UNL     1     -12.279  12.647  65.122  1.00  0.00    -0.539 C  
HETATM    2  C   UNL     1     -11.837  12.685  66.575  1.00  0.00    -0.463 C  
ENDROOT
BRANCH   2   3
HETATM    3  C   UNL     1     -11.105  11.402  66.963  1.00  0.00    -0.364 C  
BRANCH   3   4
HETATM    4  C   UNL     1     -11.531  10.923  68.347  1.00  0.00    -0.374 C  
BRANCH   4   5
HETATM    5  C   UNL     1     -11.724  12.103  69.295  1.00  0.00    -0.386 C  
BRANCH   5   6
HETATM    6  C   UNL     1     -12.228  11.634  70.656  1.00  0.00    -0.461 C  
BRANCH   6   7
HETATM    7  C   UNL     1     -11.707  10.235  70.970  1.00  0.00    -0.461 C  
BRANCH   7   8
HETATM    8  C   UNL     1     -12.816   9.360  71.543  1.00  0.00    -0.442 C  
BRANCH   8   9
HETATM    9  C   UNL     1     -12.232   8.232  72.388  1.00  0.00    -0.412 C  
BRANCH   9  10
HETATM   10  C   UNL     1     -12.302   6.906  71.639  1.00  0.00    -0.413 C  
BRANCH  10  11
HETATM   11  C   UNL     1     -11.057   6.696  70.782  1.00  0.00    -0.336 C  
BRANCH  11  12
HETATM   12  C   UNL     1     -11.443   6.387  69.339  1.00  0.00    -0.374 C  
BRANCH  12  13
HETATM   13  C   UNL     1     -10.453   7.006  68.357  1.00  0.00    -0.231 C  
BRANCH  13  14
HETATM   14  C   UNL     1      -9.192   7.470  69.082  1.00  0.00    -0.144 C  
BRANCH  14  15
HETATM   15  C   UNL     1      -8.706   8.813  68.545  1.00  0.00    -0.135 C  
HETATM   16  C   UNL     1      -8.284   9.741  69.661  1.00  0.00    -0.157 C  
HETATM   17  O   UNL     1      -7.850  10.935  69.194  1.00  0.00    -0.139 OA 
HETATM   18  O   UNL     1      -8.319   9.479  70.852  1.00  0.00    -0.280 OA 
ENDBRANCH  14  15
ENDBRANCH  13  14
ENDBRANCH  12  13
ENDBRANCH  11  12
ENDBRANCH  10  11
ENDBRANCH   9  10
ENDBRANCH   8   9
ENDBRANCH   7   8
ENDBRANCH   6   7
ENDBRANCH   5   6
ENDBRANCH   4   5
ENDBRANCH   3   4
ENDBRANCH   2   3
TORSDOF 13
ENDMDL
MODEL      159
REMARK 921   NORMALIZED FREE ENERGY PREDICTED BY IDOCK:   -3.61 KCAL/MOL
REMARK 922        TOTAL FREE ENERGY PREDICTED BY IDOCK:   -7.77 KCAL/MOL
REMARK 923 INTER-LIGAND FREE ENERGY PREDICTED BY IDOCK:   -6.84 KCAL/MOL
REMARK 924 INTRA-LIGAND FREE ENERGY PREDICTED BY IDOCK:   -0.93 KCAL/MOL
REMARK 927      BINDING AFFINITY PREDICTED BY RF-SCORE:    0.00 PKD
ROOT
HETATM    1  C   UNL     1     -11.183   6.100  69.751  1.00  0.00    -0.494 C  
HETATM    2  C   UNL     1     -11.931   6.948  70.765  1.00  0.00    -0.424 C  
ENDROOT
BRANCH   2   3
HETATM    3  C   UNL     1     -10.964   7.661  71.707  1.00  0.00    -0.276 C  
BRANCH   3   4
HETATM    4  C   UNL     1     -11.103   9.177  71.594  1.00  0.00    -0.445 C  
BRANCH   4   5
HETATM    5  C   UNL     1     -12.565   9.599  71.712  1.00  0.00    -0.497 C  
BRANCH   5   6
HETATM    6  C   UNL     1     -12.783  10.983  71.111  1.00  0.00    -0.521 C  
BRANCH   6   7
HETATM    7  C   UNL     1     -11.724  11.286  70.055  1.00  0.00    -0.428 C  
BRANCH   7   8
HETATM    8  C   UNL     1     -11.980  12.640  69.403  1.00  0.00    -0.318 C  
BRANCH   8   9
HETATM    9  C   UNL     1     -11.654  12.593  67.914  1.00  0.00    -0.401 C  
BRANCH   9  10
HETATM   10  C   UNL     1     -10.197  12.202  67.693  1.00  0.00    -0.206 C  
BRANCH  10  11
HETATM   11  C   UNL     1      -9.637  12.865  66.438  1.00  0.00    -0.252 C  
BRANCH  11  12
HETATM   12  C   UNL     1     -10.693  13.745  65.778  1.00  0.00    -0.281 C  
BRANCH  12  13
HETATM   13  C   UNL     1     -10.108  15.091  65.357  1.00  0.00    -0.396 C  
BRANCH  13  14
HETATM   14  C   UNL     1     -10.019  16.037  66.553  1.00  0.00    -0.293 C  
BRANCH  14  15
HETATM   15  C   UNL     1     -10.368  17.468  66.154  1.00  0.00    -0.330 C  
HETATM   16  C   UNL     1     -10.527  18.361  67.362  1.00  0.00    -0.415 C  
HETATM   17  O   UNL     1     -10.836  19.634  67.018  1.00  0.00    -0.487 OA 
HETATM   18  O   UNL     1     -10.400  18.012  68.524  1.00  0.00    -0.373 OA 
ENDBRANCH  14  15
ENDBRANCH  13  14
ENDBRANCH  12  13
ENDBRANCH  11  12
ENDBRANCH  10  11
ENDBRANCH   9  10
ENDBRANCH   8   9
ENDBRANCH   7   8
ENDBRANCH   6   7
ENDBRANCH   5   6
ENDBRANCH   4   5
ENDBRANCH   3   4
ENDBRANCH   2   3
TORSDOF 13
ENDMDL
MODEL      160
REMARK 921   NORMALIZED FREE ENERGY PREDICTED BY IDOCK:   -3.61 KCAL/MOL
REMARK 922        TOTAL FREE ENERGY PREDICTED BY IDOCK:   -7.76 KCAL/MOL
REMARK 923 INTER-LIGAND FREE ENERGY PREDICTED BY IDOCK:   -6.31 KCAL/MOL
REMARK 924 INTRA-LIGAND FREE ENERGY PREDICTED BY IDOCK:   -1.45 KCAL/MOL
REMARK 927      BINDING AFFINITY PREDICTED BY RF-SCORE:    0.00 PKD
ROOT
HETATM    1  C   UNL     1      -7.271  18.488  68.914  1.00  0.00    -0.301 C  
HETATM    2  C   UNL     1      -8.317  19.580  68.767  1.00  0.00    -0.346 C  
ENDROOT
BRANCH   2   3
HETATM    3  C   UNL     1      -8.808  19.682  67.326  1.00  0.00    -0.380 C  
BRANCH   3   4
HETATM    4  C   UNL     1     -10.256  19.214  67.204  1.00  0.00    -0.489 C  
BRANCH   4   5
HETATM    5  C   UNL     1     -10.401  18.183  66.088  1.00  0.00    -0.394 C  
BRANCH   5   6
HETATM    6  C   UNL     1     -10.513  16.773  66.661  1.00  0.00    -0.258 C  
BRANCH   6   7
HETATM    7  C   UNL     1      -9.500  15.842  66.003  1.00  0.00    -0.392 C  
BRANCH   7   8
HETATM    8  C   UNL     1      -8.416  15.433  66.994  1.00  0.00    -0.262 C  
BRANCH   8   9
HETATM    9  C   UNL     1      -9.025  14.717  68.195  1.00  0.00    -0.179 C  
BRANCH   9  10
HETATM   10  C   UNL     1      -8.791  13.213  68.102  1.00  0.00    -0.194 C  
BRANCH  10  11
HETATM   11  C   UNL     1      -9.976  12.516  67.440  1.00  0.00    -0.207 C  
BRANCH  11  12
HETATM   12  C   UNL     1      -9.632  11.066  67.112  1.00  0.00    -0.189 C  
BRANCH  12  13
HETATM   13  C   UNL     1      -9.847  10.768  65.631  1.00  0.00    -0.299 C  
BRANCH  13  14
HETATM   14  C   UNL     1     -10.199  12.043  64.869  1.00  0.00    -0.302 C  
BRANCH  14  15
HETATM   15  C   UNL     1     -11.095  11.744  63.672  1.00  0.00    -0.518 C  
HETATM   16  C   UNL     1     -12.523  12.172  63.922  1.00  0.00    -0.478 C  
HETATM   17  O   UNL     1     -13.326  11.912  62.864  1.00  0.00    -0.288 OA 
HETATM   18  O   UNL     1     -12.938  12.693  64.944  1.00  0.00    -0.830 OA 
ENDBRANCH  14  15
ENDBRANCH  13  14
ENDBRANCH  12  13
ENDBRANCH  11  12
ENDBRANCH  10  11
ENDBRANCH   9  10
ENDBRANCH   8   9
ENDBRANCH   7   8
ENDBRANCH   6   7
ENDBRANCH   5   6
ENDBRANCH   4   5
ENDBRANCH   3   4
ENDBRANCH   2   3
TORSDOF 13
ENDMDL
MODEL      161
REMARK 921   NORMALIZED FREE ENERGY PREDICTED BY IDOCK:   -3.60 KCAL/MOL
REMARK 922        TOTAL FREE ENERGY PREDICTED BY IDOCK:   -7.75 KCAL/MOL
REMARK 923 INTER-LIGAND FREE ENERGY PREDICTED BY IDOCK:   -6.51 KCAL/MOL
REMARK 924 INTRA-LIGAND FREE ENERGY PREDICTED BY IDOCK:   -1.24 KCAL/MOL
REMARK 927      BINDING AFFINITY PREDICTED BY RF-SCORE:    0.00 PKD
ROOT
HETATM    1  C   UNL     1     -12.267  14.313  70.354  1.00  0.00    -0.411 C  
HETATM    2  C   UNL     1     -11.700  13.474  69.222  1.00  0.00    -0.382 C  
ENDROOT
BRANCH   2   3
HETATM    3  C   UNL     1     -11.706  11.990  69.580  1.00  0.00    -0.405 C  
BRANCH   3   4
HETATM    4  C   UNL     1     -10.581  11.247  68.866  1.00  0.00    -0.239 C  
BRANCH   4   5
HETATM    5  C   UNL     1     -11.000  10.859  67.451  1.00  0.00    -0.353 C  
BRANCH   5   6
HETATM    6  C   UNL     1     -10.079  11.495  66.415  1.00  0.00    -0.250 C  
BRANCH   6   7
HETATM    7  C   UNL     1     -10.255  10.829  65.054  1.00  0.00    -0.373 C  
BRANCH   7   8
HETATM    8  C   UNL     1     -10.911  11.783  64.064  1.00  0.00    -0.451 C  
BRANCH   8   9
HETATM    9  C   UNL     1     -12.102  12.490  64.704  1.00  0.00    -0.496 C  
BRANCH   9  10
HETATM   10  C   UNL     1     -12.187  13.938  64.233  1.00  0.00    -0.447 C  
BRANCH  10  11
HETATM   11  C   UNL     1     -11.784  14.900  65.347  1.00  0.00    -0.238 C  
BRANCH  11  12
HETATM   12  C   UNL     1     -10.327  15.323  65.192  1.00  0.00    -0.413 C  
BRANCH  12  13
HETATM   13  C   UNL     1      -9.751  15.816  66.517  1.00  0.00    -0.285 C  
BRANCH  13  14
HETATM   14  C   UNL     1     -10.496  17.058  67.001  1.00  0.00    -0.279 C  
BRANCH  14  15
HETATM   15  C   UNL     1      -9.842  18.335  66.481  1.00  0.00    -0.363 C  
HETATM   16  C   UNL     1      -9.761  19.396  67.553  1.00  0.00    -0.335 C  
HETATM   17  O   UNL     1      -9.180  20.533  67.102  1.00  0.00    -0.380 OA 
HETATM   18  O   UNL     1     -10.162  19.279  68.699  1.00  0.00    -0.411 OA 
ENDBRANCH  14  15
ENDBRANCH  13  14
ENDBRANCH  12  13
ENDBRANCH  11  12
ENDBRANCH  10  11
ENDBRANCH   9  10
ENDBRANCH   8   9
ENDBRANCH   7   8
ENDBRANCH   6   7
ENDBRANCH   5   6
ENDBRANCH   4   5
ENDBRANCH   3   4
ENDBRANCH   2   3
TORSDOF 13
ENDMDL
MODEL      162
REMARK 921   NORMALIZED FREE ENERGY PREDICTED BY IDOCK:   -3.60 KCAL/MOL
REMARK 922        TOTAL FREE ENERGY PREDICTED BY IDOCK:   -7.75 KCAL/MOL
REMARK 923 INTER-LIGAND FREE ENERGY PREDICTED BY IDOCK:   -5.77 KCAL/MOL
REMARK 924 INTRA-LIGAND FREE ENERGY PREDICTED BY IDOCK:   -1.98 KCAL/MOL
REMARK 927      BINDING AFFINITY PREDICTED BY RF-SCORE:    0.00 PKD
ROOT
HETATM    1  C   UNL     1     -12.372  14.396  64.357  1.00  0.00    -0.428 C  
HETATM    2  C   UNL     1     -12.140  12.905  64.529  1.00  0.00    -0.473 C  
ENDROOT
BRANCH   2   3
HETATM    3  C   UNL     1     -10.883  12.454  63.789  1.00  0.00    -0.500 C  
BRANCH   3   4
HETATM    4  C   UNL     1     -10.608  10.971  64.024  1.00  0.00    -0.395 C  
BRANCH   4   5
HETATM    5  C   UNL     1      -9.109  10.707  64.127  1.00  0.00    -0.245 C  
BRANCH   5   6
HETATM    6  C   UNL     1      -8.752  10.109  65.485  1.00  0.00    -0.173 C  
BRANCH   6   7
HETATM    7  C   UNL     1     -10.013   9.812  66.291  1.00  0.00    -0.331 C  
BRANCH   7   8
HETATM    8  C   UNL     1     -10.112  10.733  67.501  1.00  0.00    -0.218 C  
BRANCH   8   9
HETATM    9  C   UNL     1      -8.724  11.125  67.997  1.00  0.00    -0.141 C  
BRANCH   9  10
HETATM   10  C   UNL     1      -8.548  12.638  67.971  1.00  0.00    -0.189 C  
BRANCH  10  11
HETATM   11  C   UNL     1      -9.851  13.334  67.589  1.00  0.00    -0.230 C  
BRANCH  11  12
HETATM   12  C   UNL     1      -9.575  14.546  66.705  1.00  0.00    -0.291 C  
BRANCH  12  13
HETATM   13  C   UNL     1     -10.443  15.734  67.108  1.00  0.00    -0.309 C  
BRANCH  13  14
HETATM   14  C   UNL     1     -11.559  15.292  68.051  1.00  0.00    -0.325 C  
BRANCH  14  15
HETATM   15  C   UNL     1     -11.520  16.074  69.361  1.00  0.00    -0.336 C  
HETATM   16  C   UNL     1     -12.299  15.376  70.452  1.00  0.00    -0.402 C  
HETATM   17  O   UNL     1     -12.269  16.061  71.619  1.00  0.00    -0.449 OA 
HETATM   18  O   UNL     1     -12.898  14.319  70.330  1.00  0.00    -0.336 OA 
ENDBRANCH  14  15
ENDBRANCH  13  14
ENDBRANCH  12  13
ENDBRANCH  11  12
ENDBRANCH  10  11
ENDBRANCH   9  10
ENDBRANCH   8   9
ENDBRANCH   7   8
ENDBRANCH   6   7
ENDBRANCH   5   6
ENDBRANCH   4   5
ENDBRANCH   3   4
ENDBRANCH   2   3
TORSDOF 13
ENDMDL
MODEL      163
REMARK 921   NORMALIZED FREE ENERGY PREDICTED BY IDOCK:   -3.60 KCAL/MOL
REMARK 922        TOTAL FREE ENERGY PREDICTED BY IDOCK:   -7.75 KCAL/MOL
REMARK 923 INTER-LIGAND FREE ENERGY PREDICTED BY IDOCK:   -5.53 KCAL/MOL
REMARK 924 INTRA-LIGAND FREE ENERGY PREDICTED BY IDOCK:   -2.22 KCAL/MOL
REMARK 927      BINDING AFFINITY PREDICTED BY RF-SCORE:    0.00 PKD
ROOT
HETATM    1  C   UNL     1      -8.451  11.891  67.594  1.00  0.00    -0.156 C  
HETATM    2  C   UNL     1      -8.079  10.975  66.440  1.00  0.00    -0.166 C  
ENDROOT
BRANCH   2   3
HETATM    3  C   UNL     1      -9.299  10.645  65.584  1.00  0.00    -0.239 C  
BRANCH   3   4
HETATM    4  C   UNL     1     -10.332   9.852  66.380  1.00  0.00    -0.246 C  
BRANCH   4   5
HETATM    5  C   UNL     1      -9.887   8.403  66.556  1.00  0.00    -0.338 C  
BRANCH   5   6
HETATM    6  C   UNL     1     -10.044   7.957  68.005  1.00  0.00    -0.235 C  
BRANCH   6   7
HETATM    7  C   UNL     1      -8.707   8.018  68.736  1.00  0.00    -0.131 C  
BRANCH   7   8
HETATM    8  C   UNL     1      -8.888   8.546  70.154  1.00  0.00    -0.138 C  
BRANCH   8   9
HETATM    9  C   UNL     1      -9.833   9.743  70.168  1.00  0.00    -0.306 C  
BRANCH   9  10
HETATM   10  C   UNL     1     -10.922   9.560  71.218  1.00  0.00    -0.440 C  
BRANCH  10  11
HETATM   11  C   UNL     1     -12.114  10.468  70.935  1.00  0.00    -0.487 C  
BRANCH  11  12
HETATM   12  C   UNL     1     -11.914  11.227  69.627  1.00  0.00    -0.423 C  
BRANCH  12  13
HETATM   13  C   UNL     1     -11.714  12.719  69.877  1.00  0.00    -0.321 C  
BRANCH  13  14
HETATM   14  C   UNL     1     -11.693  13.489  68.559  1.00  0.00    -0.392 C  
BRANCH  14  15
HETATM   15  C   UNL     1     -12.146  12.611  67.397  1.00  0.00    -0.179 C  
HETATM   16  C   UNL     1     -12.237  13.394  66.108  1.00  0.00    -0.415 C  
HETATM   17  O   UNL     1     -12.637  12.622  65.069  1.00  0.00    -0.545 OA 
HETATM   18  O   UNL     1     -11.989  14.581  65.980  1.00  0.00    -0.370 OA 
ENDBRANCH  14  15
ENDBRANCH  13  14
ENDBRANCH  12  13
ENDBRANCH  11  12
ENDBRANCH  10  11
ENDBRANCH   9  10
ENDBRANCH   8   9
ENDBRANCH   7   8
ENDBRANCH   6   7
ENDBRANCH   5   6
ENDBRANCH   4   5
ENDBRANCH   3   4
ENDBRANCH   2   3
TORSDOF 13
ENDMDL
MODEL      164
REMARK 921   NORMALIZED FREE ENERGY PREDICTED BY IDOCK:   -3.60 KCAL/MOL
REMARK 922        TOTAL FREE ENERGY PREDICTED BY IDOCK:   -7.74 KCAL/MOL
REMARK 923 INTER-LIGAND FREE ENERGY PREDICTED BY IDOCK:   -6.42 KCAL/MOL
REMARK 924 INTRA-LIGAND FREE ENERGY PREDICTED BY IDOCK:   -1.32 KCAL/MOL
REMARK 927      BINDING AFFINITY PREDICTED BY RF-SCORE:    0.00 PKD
ROOT
HETATM    1  C   UNL     1     -10.878  11.399  67.564  1.00  0.00    -0.291 C  
HETATM    2  C   UNL     1     -10.066  10.305  68.237  1.00  0.00    -0.176 C  
ENDROOT
BRANCH   2   3
HETATM    3  C   UNL     1     -10.925   9.501  69.210  1.00  0.00    -0.167 C  
BRANCH   3   4
HETATM    4  C   UNL     1     -10.411   9.640  70.640  1.00  0.00    -0.379 C  
BRANCH   4   5
HETATM    5  C   UNL     1     -11.561   9.917  71.605  1.00  0.00    -0.268 C  
BRANCH   5   6
HETATM    6  C   UNL     1     -12.724  10.593  70.887  1.00  0.00    -0.498 C  
BRANCH   6   7
HETATM    7  C   UNL     1     -12.956  11.997  71.438  1.00  0.00    -0.362 C  
BRANCH   7   8
HETATM    8  C   UNL     1     -12.287  13.043  70.554  1.00  0.00    -0.365 C  
BRANCH   8   9
HETATM    9  C   UNL     1     -12.705  14.449  70.972  1.00  0.00    -0.416 C  
BRANCH   9  10
HETATM   10  C   UNL     1     -11.799  15.494  70.332  1.00  0.00    -0.379 C  
BRANCH  10  11
HETATM   11  C   UNL     1     -10.722  14.834  69.475  1.00  0.00    -0.229 C  
BRANCH  11  12
HETATM   12  C   UNL     1     -10.845  15.276  68.021  1.00  0.00    -0.288 C  
BRANCH  12  13
HETATM   13  C   UNL     1     -11.894  14.452  67.279  1.00  0.00    -0.434 C  
BRANCH  13  14
HETATM   14  C   UNL     1     -11.866  14.763  65.784  1.00  0.00    -0.202 C  
BRANCH  14  15
HETATM   15  C   UNL     1     -10.893  13.849  65.046  1.00  0.00    -0.389 C  
HETATM   16  C   UNL     1     -11.579  13.081  63.940  1.00  0.00    -0.449 C  
HETATM   17  O   UNL     1     -10.723  12.268  63.277  1.00  0.00    -0.427 OA 
HETATM   18  O   UNL     1     -12.762  13.158  63.651  1.00  0.00    -0.706 OA 
ENDBRANCH  14  15
ENDBRANCH  13  14
ENDBRANCH  12  13
ENDBRANCH  11  12
ENDBRANCH  10  11
ENDBRANCH   9  10
ENDBRANCH   8   9
ENDBRANCH   7   8
ENDBRANCH   6   7
ENDBRANCH   5   6
ENDBRANCH   4   5
ENDBRANCH   3   4
ENDBRANCH   2   3
TORSDOF 13
ENDMDL
MODEL      165
REMARK 921   NORMALIZED FREE ENERGY PREDICTED BY IDOCK:   -3.59 KCAL/MOL
REMARK 922        TOTAL FREE ENERGY PREDICTED BY IDOCK:   -7.73 KCAL/MOL
REMARK 923 INTER-LIGAND FREE ENERGY PREDICTED BY IDOCK:   -6.53 KCAL/MOL
REMARK 924 INTRA-LIGAND FREE ENERGY PREDICTED BY IDOCK:   -1.21 KCAL/MOL
REMARK 927      BINDING AFFINITY PREDICTED BY RF-SCORE:    0.00 PKD
ROOT
HETATM    1  C   UNL     1     -11.985   6.842  71.092  1.00  0.00    -0.421 C  
HETATM    2  C   UNL     1     -11.194   6.172  69.981  1.00  0.00    -0.471 C  
ENDROOT
BRANCH   2   3
HETATM    3  C   UNL     1      -9.726   6.590  70.021  1.00  0.00    -0.178 C  
BRANCH   3   4
HETATM    4  C   UNL     1      -9.372   7.231  71.360  1.00  0.00    -0.153 C  
BRANCH   4   5
HETATM    5  C   UNL     1      -8.705   8.588  71.153  1.00  0.00    -0.215 C  
BRANCH   5   6
HETATM    6  C   UNL     1      -8.849   9.051  69.707  1.00  0.00    -0.155 C  
BRANCH   6   7
HETATM    7  C   UNL     1      -9.693  10.319  69.628  1.00  0.00    -0.216 C  
BRANCH   7   8
HETATM    8  C   UNL     1     -10.871  10.128  68.680  1.00  0.00    -0.272 C  
BRANCH   8   9
HETATM    9  C   UNL     1     -10.413   9.501  67.368  1.00  0.00    -0.336 C  
BRANCH   9  10
HETATM   10  C   UNL     1     -10.478  10.516  66.233  1.00  0.00    -0.250 C  
BRANCH  10  11
HETATM   11  C   UNL     1     -10.970  11.870  66.737  1.00  0.00    -0.337 C  
BRANCH  11  12
HETATM   12  C   UNL     1     -12.008  12.454  65.784  1.00  0.00    -0.437 C  
BRANCH  12  13
HETATM   13  C   UNL     1     -11.912  13.976  65.728  1.00  0.00    -0.417 C  
BRANCH  13  14
HETATM   14  C   UNL     1     -10.492  14.415  65.382  1.00  0.00    -0.391 C  
BRANCH  14  15
HETATM   15  C   UNL     1     -10.174  15.784  65.977  1.00  0.00    -0.352 C  
HETATM   16  C   UNL     1     -10.730  16.904  65.129  1.00  0.00    -0.103 C  
HETATM   17  O   UNL     1     -10.455  18.123  65.650  1.00  0.00    -0.626 OA 
HETATM   18  O   UNL     1     -11.357  16.764  64.091  1.00  0.00    -1.194 OA 
ENDBRANCH  14  15
ENDBRANCH  13  14
ENDBRANCH  12  13
ENDBRANCH  11  12
ENDBRANCH  10  11
ENDBRANCH   9  10
ENDBRANCH   8   9
ENDBRANCH   7   8
ENDBRANCH   6   7
ENDBRANCH   5   6
ENDBRANCH   4   5
ENDBRANCH   3   4
ENDBRANCH   2   3
TORSDOF 13
ENDMDL
MODEL      166
REMARK 921   NORMALIZED FREE ENERGY PREDICTED BY IDOCK:   -3.59 KCAL/MOL
REMARK 922        TOTAL FREE ENERGY PREDICTED BY IDOCK:   -7.73 KCAL/MOL
REMARK 923 INTER-LIGAND FREE ENERGY PREDICTED BY IDOCK:   -6.89 KCAL/MOL
REMARK 924 INTRA-LIGAND FREE ENERGY PREDICTED BY IDOCK:   -0.84 KCAL/MOL
REMARK 927      BINDING AFFINITY PREDICTED BY RF-SCORE:    0.00 PKD
ROOT
HETATM    1  C   UNL     1     -10.884   2.842  73.264  1.00  0.00    -0.275 C  
HETATM    2  C   UNL     1     -10.582   4.281  73.644  1.00  0.00    -0.304 C  
ENDROOT
BRANCH   2   3
HETATM    3  C   UNL     1     -11.511   5.250  72.916  1.00  0.00    -0.339 C  
BRANCH   3   4
HETATM    4  C   UNL     1     -10.810   5.892  71.722  1.00  0.00    -0.316 C  
BRANCH   4   5
HETATM    5  C   UNL     1     -11.817   6.596  70.816  1.00  0.00    -0.441 C  
BRANCH   5   6
HETATM    6  C   UNL     1     -12.854   7.353  71.638  1.00  0.00    -0.406 C  
BRANCH   6   7
HETATM    7  C   UNL     1     -12.275   8.664  72.162  1.00  0.00    -0.453 C  
BRANCH   7   8
HETATM    8  C   UNL     1     -13.321   9.772  72.124  1.00  0.00    -0.527 C  
BRANCH   8   9
HETATM    9  C   UNL     1     -12.761  11.021  71.452  1.00  0.00    -0.534 C  
BRANCH   9  10
HETATM   10  C   UNL     1     -11.648  10.657  70.477  1.00  0.00    -0.444 C  
BRANCH  10  11
HETATM   11  C   UNL     1     -12.053  10.973  69.041  1.00  0.00    -0.285 C  
BRANCH  11  12
HETATM   12  C   UNL     1     -11.005  11.853  68.368  1.00  0.00    -0.273 C  
BRANCH  12  13
HETATM   13  C   UNL     1     -10.990  11.638  66.857  1.00  0.00    -0.342 C  
BRANCH  13  14
HETATM   14  C   UNL     1     -11.876  12.665  66.156  1.00  0.00    -0.477 C  
BRANCH  14  15
HETATM   15  C   UNL     1     -11.831  14.014  66.869  1.00  0.00    -0.458 C  
HETATM   16  C   UNL     1     -10.828  14.948  66.232  1.00  0.00    -0.331 C  
HETATM   17  O   UNL     1     -10.781  16.149  66.856  1.00  0.00    -0.314 OA 
HETATM   18  O   UNL     1     -10.126  14.685  65.269  1.00  0.00    -0.371 OA 
ENDBRANCH  14  15
ENDBRANCH  13  14
ENDBRANCH  12  13
ENDBRANCH  11  12
ENDBRANCH  10  11
ENDBRANCH   9  10
ENDBRANCH   8   9
ENDBRANCH   7   8
ENDBRANCH   6   7
ENDBRANCH   5   6
ENDBRANCH   4   5
ENDBRANCH   3   4
ENDBRANCH   2   3
TORSDOF 13
ENDMDL
MODEL      167
REMARK 921   NORMALIZED FREE ENERGY PREDICTED BY IDOCK:   -3.59 KCAL/MOL
REMARK 922        TOTAL FREE ENERGY PREDICTED BY IDOCK:   -7.72 KCAL/MOL
REMARK 923 INTER-LIGAND FREE ENERGY PREDICTED BY IDOCK:   -6.33 KCAL/MOL
REMARK 924 INTRA-LIGAND FREE ENERGY PREDICTED BY IDOCK:   -1.39 KCAL/MOL
REMARK 927      BINDING AFFINITY PREDICTED BY RF-SCORE:    0.00 PKD
ROOT
HETATM    1  C   UNL     1     -11.988  15.743  70.706  1.00  0.00    -0.444 C  
HETATM    2  C   UNL     1     -12.313  14.281  70.449  1.00  0.00    -0.419 C  
ENDROOT
BRANCH   2   3
HETATM    3  C   UNL     1     -12.032  13.902  68.997  1.00  0.00    -0.402 C  
BRANCH   3   4
HETATM    4  C   UNL     1     -10.708  13.153  68.870  1.00  0.00    -0.202 C  
BRANCH   4   5
HETATM    5  C   UNL     1     -10.932  11.744  68.327  1.00  0.00    -0.274 C  
BRANCH   5   6
HETATM    6  C   UNL     1     -12.086  11.059  69.051  1.00  0.00    -0.285 C  
BRANCH   6   7
HETATM    7  C   UNL     1     -11.661  10.617  70.448  1.00  0.00    -0.441 C  
BRANCH   7   8
HETATM    8  C   UNL     1     -12.766  10.887  71.461  1.00  0.00    -0.533 C  
BRANCH   8   9
HETATM    9  C   UNL     1     -13.292   9.582  72.049  1.00  0.00    -0.535 C  
BRANCH   9  10
HETATM   10  C   UNL     1     -12.450   8.401  71.579  1.00  0.00    -0.342 C  
BRANCH  10  11
HETATM   11  C   UNL     1     -11.481   7.953  72.669  1.00  0.00    -0.454 C  
BRANCH  11  12
HETATM   12  C   UNL     1     -10.697   6.724  72.219  1.00  0.00    -0.250 C  
BRANCH  12  13
HETATM   13  C   UNL     1     -11.400   6.010  71.068  1.00  0.00    -0.299 C  
BRANCH  13  14
HETATM   14  C   UNL     1     -10.429   5.755  69.918  1.00  0.00    -0.360 C  
BRANCH  14  15
HETATM   15  C   UNL     1     -10.964   6.323  68.606  1.00  0.00    -0.423 C  
HETATM   16  C   UNL     1     -10.314   7.643  68.262  1.00  0.00    -0.198 C  
HETATM   17  O   UNL     1     -10.781   8.154  67.099  1.00  0.00    -0.316 OA 
HETATM   18  O   UNL     1      -9.466   8.211  68.931  1.00  0.00    -0.150 OA 
ENDBRANCH  14  15
ENDBRANCH  13  14
ENDBRANCH  12  13
ENDBRANCH  11  12
ENDBRANCH  10  11
ENDBRANCH   9  10
ENDBRANCH   8   9
ENDBRANCH   7   8
ENDBRANCH   6   7
ENDBRANCH   5   6
ENDBRANCH   4   5
ENDBRANCH   3   4
ENDBRANCH   2   3
TORSDOF 13
ENDMDL
MODEL      168
REMARK 921   NORMALIZED FREE ENERGY PREDICTED BY IDOCK:   -3.58 KCAL/MOL
REMARK 922        TOTAL FREE ENERGY PREDICTED BY IDOCK:   -7.71 KCAL/MOL
REMARK 923 INTER-LIGAND FREE ENERGY PREDICTED BY IDOCK:   -6.06 KCAL/MOL
REMARK 924 INTRA-LIGAND FREE ENERGY PREDICTED BY IDOCK:   -1.65 KCAL/MOL
REMARK 927      BINDING AFFINITY PREDICTED BY RF-SCORE:    0.00 PKD
ROOT
HETATM    1  C   UNL     1     -13.448  12.514  72.123  1.00  0.00    -0.523 C  
HETATM    2  C   UNL     1     -13.769  13.963  72.448  1.00  0.00    -0.678 C  
ENDROOT
BRANCH   2   3
HETATM    3  C   UNL     1     -12.744  14.550  73.416  1.00  0.00    -0.428 C  
BRANCH   3   4
HETATM    4  C   UNL     1     -11.810  15.524  72.704  1.00  0.00    -0.575 C  
BRANCH   4   5
HETATM    5  C   UNL     1     -12.363  15.903  71.333  1.00  0.00    -0.485 C  
BRANCH   5   6
HETATM    6  C   UNL     1     -11.250  15.953  70.291  1.00  0.00    -0.388 C  
BRANCH   6   7
HETATM    7  C   UNL     1     -11.777  15.543  68.920  1.00  0.00    -0.385 C  
BRANCH   7   8
HETATM    8  C   UNL     1     -12.217  14.084  68.922  1.00  0.00    -0.261 C  
BRANCH   8   9
HETATM    9  C   UNL     1     -11.136  13.193  68.319  1.00  0.00    -0.295 C  
BRANCH   9  10
HETATM   10  C   UNL     1     -10.472  13.878  67.131  1.00  0.00    -0.269 C  
BRANCH  10  11
HETATM   11  C   UNL     1     -10.672  13.072  65.852  1.00  0.00    -0.292 C  
BRANCH  11  12
HETATM   12  C   UNL     1     -11.108  11.647  66.176  1.00  0.00    -0.335 C  
BRANCH  12  13
HETATM   13  C   UNL     1     -10.182  10.623  65.526  1.00  0.00    -0.329 C  
BRANCH  13  14
HETATM   14  C   UNL     1      -8.954  10.376  66.400  1.00  0.00    -0.166 C  
BRANCH  14  15
HETATM   15  C   UNL     1      -9.342   9.745  67.734  1.00  0.00    -0.148 C  
HETATM   16  C   UNL     1      -8.654  10.425  68.894  1.00  0.00    -0.149 C  
HETATM   17  O   UNL     1      -8.992   9.874  70.083  1.00  0.00    -0.216 OA 
HETATM   18  O   UNL     1      -7.878  11.363  68.808  1.00  0.00    -0.136 OA 
ENDBRANCH  14  15
ENDBRANCH  13  14
ENDBRANCH  12  13
ENDBRANCH  11  12
ENDBRANCH  10  11
ENDBRANCH   9  10
ENDBRANCH   8   9
ENDBRANCH   7   8
ENDBRANCH   6   7
ENDBRANCH   5   6
ENDBRANCH   4   5
ENDBRANCH   3   4
ENDBRANCH   2   3
TORSDOF 13
ENDMDL
MODEL      169
REMARK 921   NORMALIZED FREE ENERGY PREDICTED BY IDOCK:   -3.58 KCAL/MOL
REMARK 922        TOTAL FREE ENERGY PREDICTED BY IDOCK:   -7.71 KCAL/MOL
REMARK 923 INTER-LIGAND FREE ENERGY PREDICTED BY IDOCK:   -6.43 KCAL/MOL
REMARK 924 INTRA-LIGAND FREE ENERGY PREDICTED BY IDOCK:   -1.29 KCAL/MOL
REMARK 927      BINDING AFFINITY PREDICTED BY RF-SCORE:    0.00 PKD
ROOT
HETATM    1  C   UNL     1     -10.028   8.177  67.662  1.00  0.00    -0.240 C  
HETATM    2  C   UNL     1     -10.242   9.132  66.500  1.00  0.00    -0.322 C  
ENDROOT
BRANCH   2   3
HETATM    3  C   UNL     1      -9.264   8.846  65.364  1.00  0.00    -0.202 C  
BRANCH   3   4
HETATM    4  C   UNL     1      -9.360   9.909  64.274  1.00  0.00    -0.313 C  
BRANCH   4   5
HETATM    5  C   UNL     1     -10.393  10.971  64.641  1.00  0.00    -0.410 C  
BRANCH   5   6
HETATM    6  C   UNL     1     -11.073  11.525  63.393  1.00  0.00    -0.370 C  
BRANCH   6   7
HETATM    7  C   UNL     1     -12.345  12.281  63.763  1.00  0.00    -0.637 C  
BRANCH   7   8
HETATM    8  C   UNL     1     -12.298  12.744  65.214  1.00  0.00    -0.546 C  
BRANCH   8   9
HETATM    9  C   UNL     1     -12.372  14.265  65.299  1.00  0.00    -0.427 C  
BRANCH   9  10
HETATM   10  C   UNL     1     -11.044  14.894  64.893  1.00  0.00    -0.424 C  
BRANCH  10  11
HETATM   11  C   UNL     1      -9.934  14.502  65.863  1.00  0.00    -0.352 C  
BRANCH  11  12
HETATM   12  C   UNL     1      -8.982  15.672  66.092  1.00  0.00    -0.362 C  
BRANCH  12  13
HETATM   13  C   UNL     1      -9.086  16.198  67.520  1.00  0.00    -0.207 C  
BRANCH  13  14
HETATM   14  C   UNL     1     -10.508  16.667  67.821  1.00  0.00    -0.316 C  
BRANCH  14  15
HETATM   15  C   UNL     1     -10.764  16.731  69.324  1.00  0.00    -0.324 C  
HETATM   16  C   UNL     1     -11.572  15.548  69.804  1.00  0.00    -0.334 C  
HETATM   17  O   UNL     1     -11.803  15.596  71.137  1.00  0.00    -0.331 OA 
HETATM   18  O   UNL     1     -11.984  14.639  69.102  1.00  0.00    -0.308 OA 
ENDBRANCH  14  15
ENDBRANCH  13  14
ENDBRANCH  12  13
ENDBRANCH  11  12
ENDBRANCH  10  11
ENDBRANCH   9  10
ENDBRANCH   8   9
ENDBRANCH   7   8
ENDBRANCH   6   7
ENDBRANCH   5   6
ENDBRANCH   4   5
ENDBRANCH   3   4
ENDBRANCH   2   3
TORSDOF 13
ENDMDL
MODEL      170
REMARK 921   NORMALIZED FREE ENERGY PREDICTED BY IDOCK:   -3.58 KCAL/MOL
REMARK 922        TOTAL FREE ENERGY PREDICTED BY IDOCK:   -7.71 KCAL/MOL
REMARK 923 INTER-LIGAND FREE ENERGY PREDICTED BY IDOCK:   -5.97 KCAL/MOL
REMARK 924 INTRA-LIGAND FREE ENERGY PREDICTED BY IDOCK:   -1.75 KCAL/MOL
REMARK 927      BINDING AFFINITY PREDICTED BY RF-SCORE:    0.00 PKD
ROOT
HETATM    1  C   UNL     1      -6.951  18.763  66.096  1.00  0.00    -0.285 C  
HETATM    2  C   UNL     1      -8.264  19.527  66.117  1.00  0.00    -0.336 C  
ENDROOT
BRANCH   2   3
HETATM    3  C   UNL     1      -8.527  20.133  67.493  1.00  0.00    -0.394 C  
BRANCH   3   4
HETATM    4  C   UNL     1      -8.903  19.054  68.506  1.00  0.00    -0.398 C  
BRANCH   4   5
HETATM    5  C   UNL     1     -10.399  18.759  68.453  1.00  0.00    -0.360 C  
BRANCH   5   6
HETATM    6  C   UNL     1     -10.655  17.259  68.345  1.00  0.00    -0.368 C  
BRANCH   6   7
HETATM    7  C   UNL     1     -10.863  16.851  66.890  1.00  0.00    -0.021 C  
BRANCH   7   8
HETATM    8  C   UNL     1      -9.671  16.052  66.376  1.00  0.00    -0.307 C  
BRANCH   8   9
HETATM    9  C   UNL     1     -10.037  15.292  65.105  1.00  0.00    -0.323 C  
BRANCH   9  10
HETATM   10  C   UNL     1     -11.410  15.719  64.598  1.00  0.00    -0.343 C  
BRANCH  10  11
HETATM   11  C   UNL     1     -12.301  14.506  64.344  1.00  0.00    -0.437 C  
BRANCH  11  12
HETATM   12  C   UNL     1     -11.468  13.230  64.283  1.00  0.00    -0.435 C  
BRANCH  12  13
HETATM   13  C   UNL     1     -12.068  12.135  65.160  1.00  0.00    -0.285 C  
BRANCH  13  14
HETATM   14  C   UNL     1     -11.166  11.848  66.358  1.00  0.00    -0.387 C  
BRANCH  14  15
HETATM   15  C   UNL     1     -11.531  12.727  67.550  1.00  0.00    -0.390 C  
HETATM   16  C   UNL     1     -11.763  11.908  68.798  1.00  0.00    -0.321 C  
HETATM   17  O   UNL     1     -12.087  12.679  69.863  1.00  0.00    -0.304 OA 
HETATM   18  O   UNL     1     -11.679  10.693  68.874  1.00  0.00    -0.272 OA 
ENDBRANCH  14  15
ENDBRANCH  13  14
ENDBRANCH  12  13
ENDBRANCH  11  12
ENDBRANCH  10  11
ENDBRANCH   9  10
ENDBRANCH   8   9
ENDBRANCH   7   8
ENDBRANCH   6   7
ENDBRANCH   5   6
ENDBRANCH   4   5
ENDBRANCH   3   4
ENDBRANCH   2   3
TORSDOF 13
ENDMDL
MODEL      171
REMARK 921   NORMALIZED FREE ENERGY PREDICTED BY IDOCK:   -3.58 KCAL/MOL
REMARK 922        TOTAL FREE ENERGY PREDICTED BY IDOCK:   -7.71 KCAL/MOL
REMARK 923 INTER-LIGAND FREE ENERGY PREDICTED BY IDOCK:   -6.82 KCAL/MOL
REMARK 924 INTRA-LIGAND FREE ENERGY PREDICTED BY IDOCK:   -0.89 KCAL/MOL
REMARK 927      BINDING AFFINITY PREDICTED BY RF-SCORE:    0.00 PKD
ROOT
HETATM    1  C   UNL     1     -12.423   7.303  71.350  1.00  0.00    -0.418 C  
HETATM    2  C   UNL     1     -12.013   8.481  72.218  1.00  0.00    -0.454 C  
ENDROOT
BRANCH   2   3
HETATM    3  C   UNL     1     -12.462   9.803  71.600  1.00  0.00    -0.500 C  
BRANCH   3   4
HETATM    4  C   UNL     1     -11.473  10.278  70.538  1.00  0.00    -0.427 C  
BRANCH   4   5
HETATM    5  C   UNL     1     -12.083  11.389  69.688  1.00  0.00    -0.373 C  
BRANCH   5   6
HETATM    6  C   UNL     1     -12.243  12.670  70.499  1.00  0.00    -0.383 C  
BRANCH   6   7
HETATM    7  C   UNL     1     -12.110  13.897  69.602  1.00  0.00    -0.404 C  
BRANCH   7   8
HETATM    8  C   UNL     1     -11.513  13.517  68.251  1.00  0.00    -0.345 C  
BRANCH   8   9
HETATM    9  C   UNL     1     -12.146  14.338  67.132  1.00  0.00    -0.412 C  
BRANCH   9  10
HETATM   10  C   UNL     1     -11.078  15.079  66.336  1.00  0.00    -0.329 C  
BRANCH  10  11
HETATM   11  C   UNL     1     -10.043  15.709  67.264  1.00  0.00    -0.255 C  
BRANCH  11  12
HETATM   12  C   UNL     1     -10.538  17.053  67.789  1.00  0.00    -0.350 C  
BRANCH  12  13
HETATM   13  C   UNL     1     -10.539  18.110  66.688  1.00  0.00    -0.296 C  
BRANCH  13  14
HETATM   14  C   UNL     1     -10.112  19.467  67.244  1.00  0.00    -0.523 C  
BRANCH  14  15
HETATM   15  C   UNL     1      -9.298  19.310  68.525  1.00  0.00    -0.443 C  
HETATM   16  C   UNL     1      -7.850  19.687  68.316  1.00  0.00    -0.320 C  
HETATM   17  O   UNL     1      -7.120  19.552  69.448  1.00  0.00    -0.350 OA 
HETATM   18  O   UNL     1      -7.361  20.070  67.266  1.00  0.00    -0.236 OA 
ENDBRANCH  14  15
ENDBRANCH  13  14
ENDBRANCH  12  13
ENDBRANCH  11  12
ENDBRANCH  10  11
ENDBRANCH   9  10
ENDBRANCH   8   9
ENDBRANCH   7   8
ENDBRANCH   6   7
ENDBRANCH   5   6
ENDBRANCH   4   5
ENDBRANCH   3   4
ENDBRANCH   2   3
TORSDOF 13
ENDMDL
MODEL      172
REMARK 921   NORMALIZED FREE ENERGY PREDICTED BY IDOCK:   -3.58 KCAL/MOL
REMARK 922        TOTAL FREE ENERGY PREDICTED BY IDOCK:   -7.71 KCAL/MOL
REMARK 923 INTER-LIGAND FREE ENERGY PREDICTED BY IDOCK:   -6.00 KCAL/MOL
REMARK 924 INTRA-LIGAND FREE ENERGY PREDICTED BY IDOCK:   -1.70 KCAL/MOL
REMARK 927      BINDING AFFINITY PREDICTED BY RF-SCORE:    0.00 PKD
ROOT
HETATM    1  C   UNL     1     -11.043   6.150  68.639  1.00  0.00    -0.378 C  
HETATM    2  C   UNL     1     -10.513   7.573  68.587  1.00  0.00    -0.207 C  
ENDROOT
BRANCH   2   3
HETATM    3  C   UNL     1     -10.399   8.065  67.146  1.00  0.00    -0.395 C  
BRANCH   3   4
HETATM    4  C   UNL     1      -9.065   8.768  66.908  1.00  0.00    -0.169 C  
BRANCH   4   5
HETATM    5  C   UNL     1      -8.921   9.176  65.445  1.00  0.00    -0.255 C  
BRANCH   5   6
HETATM    6  C   UNL     1      -9.120  10.679  65.277  1.00  0.00    -0.221 C  
BRANCH   6   7
HETATM    7  C   UNL     1     -10.478  10.975  64.646  1.00  0.00    -0.398 C  
BRANCH   7   8
HETATM    8  C   UNL     1     -10.384  12.157  63.688  1.00  0.00    -0.482 C  
BRANCH   8   9
HETATM    9  C   UNL     1     -11.262  13.310  64.165  1.00  0.00    -0.412 C  
BRANCH   9  10
HETATM   10  C   UNL     1     -12.306  12.818  65.159  1.00  0.00    -0.555 C  
BRANCH  10  11
HETATM   11  C   UNL     1     -12.310  13.677  66.420  1.00  0.00    -0.441 C  
BRANCH  11  12
HETATM   12  C   UNL     1     -10.892  13.854  66.954  1.00  0.00    -0.286 C  
BRANCH  12  13
HETATM   13  C   UNL     1     -10.775  13.347  68.389  1.00  0.00    -0.271 C  
BRANCH  13  14
HETATM   14  C   UNL     1     -10.725  11.821  68.419  1.00  0.00    -0.249 C  
BRANCH  14  15
HETATM   15  C   UNL     1     -11.984  11.238  69.054  1.00  0.00    -0.393 C  
HETATM   16  C   UNL     1     -11.657  10.366  70.244  1.00  0.00    -0.327 C  
HETATM   17  O   UNL     1     -12.768   9.845  70.816  1.00  0.00    -0.292 OA 
HETATM   18  O   UNL     1     -10.536  10.135  70.667  1.00  0.00    -0.272 OA 
ENDBRANCH  14  15
ENDBRANCH  13  14
ENDBRANCH  12  13
ENDBRANCH  11  12
ENDBRANCH  10  11
ENDBRANCH   9  10
ENDBRANCH   8   9
ENDBRANCH   7   8
ENDBRANCH   6   7
ENDBRANCH   5   6
ENDBRANCH   4   5
ENDBRANCH   3   4
ENDBRANCH   2   3
TORSDOF 13
ENDMDL
MODEL      173
REMARK 921   NORMALIZED FREE ENERGY PREDICTED BY IDOCK:   -3.58 KCAL/MOL
REMARK 922        TOTAL FREE ENERGY PREDICTED BY IDOCK:   -7.70 KCAL/MOL
REMARK 923 INTER-LIGAND FREE ENERGY PREDICTED BY IDOCK:   -6.06 KCAL/MOL
REMARK 924 INTRA-LIGAND FREE ENERGY PREDICTED BY IDOCK:   -1.64 KCAL/MOL
REMARK 927      BINDING AFFINITY PREDICTED BY RF-SCORE:    0.00 PKD
ROOT
HETATM    1  C   UNL     1     -10.674   7.020  67.226  1.00  0.00    -0.412 C  
HETATM    2  C   UNL     1     -10.611   6.024  68.371  1.00  0.00    -0.322 C  
ENDROOT
BRANCH   2   3
HETATM    3  C   UNL     1     -10.313   6.725  69.694  1.00  0.00    -0.223 C  
BRANCH   3   4
HETATM    4  C   UNL     1     -11.237   6.227  70.802  1.00  0.00    -0.387 C  
BRANCH   4   5
HETATM    5  C   UNL     1     -10.829   6.809  72.152  1.00  0.00    -0.257 C  
BRANCH   5   6
HETATM    6  C   UNL     1     -11.655   8.048  72.483  1.00  0.00    -0.464 C  
BRANCH   6   7
HETATM    7  C   UNL     1     -13.014   7.991  71.794  1.00  0.00    -0.354 C  
BRANCH   7   8
HETATM    8  C   UNL     1     -13.651   9.374  71.736  1.00  0.00    -0.461 C  
BRANCH   8   9
HETATM    9  C   UNL     1     -12.583  10.456  71.617  1.00  0.00    -0.521 C  
BRANCH   9  10
HETATM   10  C   UNL     1     -12.139  10.620  70.169  1.00  0.00    -0.414 C  
BRANCH  10  11
HETATM   11  C   UNL     1     -10.652  10.313  70.015  1.00  0.00    -0.321 C  
BRANCH  11  12
HETATM   12  C   UNL     1     -10.205  10.528  68.573  1.00  0.00    -0.190 C  
BRANCH  12  13
HETATM   13  C   UNL     1     -11.402  10.636  67.632  1.00  0.00    -0.284 C  
BRANCH  13  14
HETATM   14  C   UNL     1     -11.357  11.947  66.850  1.00  0.00    -0.392 C  
BRANCH  14  15
HETATM   15  C   UNL     1     -10.288  12.885  67.402  1.00  0.00    -0.233 C  
HETATM   16  C   UNL     1     -10.864  13.863  68.400  1.00  0.00    -0.254 C  
HETATM   17  O   UNL     1      -9.923  14.699  68.897  1.00  0.00    -0.232 OA 
HETATM   18  O   UNL     1     -12.035  13.921  68.740  1.00  0.00    -0.341 OA 
ENDBRANCH  14  15
ENDBRANCH  13  14
ENDBRANCH  12  13
ENDBRANCH  11  12
ENDBRANCH  10  11
ENDBRANCH   9  10
ENDBRANCH   8   9
ENDBRANCH   7   8
ENDBRANCH   6   7
ENDBRANCH   5   6
ENDBRANCH   4   5
ENDBRANCH   3   4
ENDBRANCH   2   3
TORSDOF 13
ENDMDL
MODEL      174
REMARK 921   NORMALIZED FREE ENERGY PREDICTED BY IDOCK:   -3.57 KCAL/MOL
REMARK 922        TOTAL FREE ENERGY PREDICTED BY IDOCK:   -7.69 KCAL/MOL
REMARK 923 INTER-LIGAND FREE ENERGY PREDICTED BY IDOCK:   -6.70 KCAL/MOL
REMARK 924 INTRA-LIGAND FREE ENERGY PREDICTED BY IDOCK:   -0.99 KCAL/MOL
REMARK 927      BINDING AFFINITY PREDICTED BY RF-SCORE:    0.00 PKD
ROOT
HETATM    1  C   UNL     1     -11.196   4.905  73.097  1.00  0.00    -0.403 C  
HETATM    2  C   UNL     1     -10.994   5.775  71.868  1.00  0.00    -0.318 C  
ENDROOT
BRANCH   2   3
HETATM    3  C   UNL     1     -12.076   6.847  71.768  1.00  0.00    -0.385 C  
BRANCH   3   4
HETATM    4  C   UNL     1     -11.642   8.133  72.465  1.00  0.00    -0.468 C  
BRANCH   4   5
HETATM    5  C   UNL     1     -10.389   8.709  71.810  1.00  0.00    -0.386 C  
BRANCH   5   6
HETATM    6  C   UNL     1     -10.754   9.761  70.768  1.00  0.00    -0.393 C  
BRANCH   6   7
HETATM    7  C   UNL     1      -9.779   9.720  69.596  1.00  0.00    -0.242 C  
BRANCH   7   8
HETATM    8  C   UNL     1     -10.012  10.897  68.656  1.00  0.00    -0.196 C  
BRANCH   8   9
HETATM    9  C   UNL     1     -11.137  10.589  67.673  1.00  0.00    -0.375 C  
BRANCH   9  10
HETATM   10  C   UNL     1     -11.900  11.857  67.311  1.00  0.00    -0.222 C  
BRANCH  10  11
HETATM   11  C   UNL     1     -11.393  13.050  68.117  1.00  0.00    -0.329 C  
BRANCH  11  12
HETATM   12  C   UNL     1     -11.651  14.354  67.369  1.00  0.00    -0.398 C  
BRANCH  12  13
HETATM   13  C   UNL     1     -12.538  14.125  66.148  1.00  0.00    -0.355 C  
BRANCH  13  14
HETATM   14  C   UNL     1     -11.831  14.583  64.875  1.00  0.00    -0.417 C  
BRANCH  14  15
HETATM   15  C   UNL     1     -10.704  13.628  64.492  1.00  0.00    -0.420 C  
HETATM   16  C   UNL     1     -11.205  12.490  63.632  1.00  0.00    -0.483 C  
HETATM   17  O   UNL     1     -10.212  11.638  63.286  1.00  0.00    -0.386 OA 
HETATM   18  O   UNL     1     -12.360  12.327  63.274  1.00  0.00    -0.522 OA 
ENDBRANCH  14  15
ENDBRANCH  13  14
ENDBRANCH  12  13
ENDBRANCH  11  12
ENDBRANCH  10  11
ENDBRANCH   9  10
ENDBRANCH   8   9
ENDBRANCH   7   8
ENDBRANCH   6   7
ENDBRANCH   5   6
ENDBRANCH   4   5
ENDBRANCH   3   4
ENDBRANCH   2   3
TORSDOF 13
ENDMDL
MODEL      175
REMARK 921   NORMALIZED FREE ENERGY PREDICTED BY IDOCK:   -3.57 KCAL/MOL
REMARK 922        TOTAL FREE ENERGY PREDICTED BY IDOCK:   -7.69 KCAL/MOL
REMARK 923 INTER-LIGAND FREE ENERGY PREDICTED BY IDOCK:   -6.13 KCAL/MOL
REMARK 924 INTRA-LIGAND FREE ENERGY PREDICTED BY IDOCK:   -1.56 KCAL/MOL
REMARK 927      BINDING AFFINITY PREDICTED BY RF-SCORE:    0.00 PKD
ROOT
HETATM    1  C   UNL     1     -11.933  10.489  71.016  1.00  0.00    -0.466 C  
HETATM    2  C   UNL     1     -11.959  10.726  69.516  1.00  0.00    -0.364 C  
ENDROOT
BRANCH   2   3
HETATM    3  C   UNL     1     -10.771  10.054  68.832  1.00  0.00    -0.243 C  
BRANCH   3   4
HETATM    4  C   UNL     1      -9.667   9.735  69.835  1.00  0.00    -0.273 C  
BRANCH   4   5
HETATM    5  C   UNL     1      -8.334  10.324  69.380  1.00  0.00    -0.169 C  
BRANCH   5   6
HETATM    6  C   UNL     1      -8.496  11.092  68.072  1.00  0.00    -0.129 C  
BRANCH   6   7
HETATM    7  C   UNL     1      -7.569  12.303  68.040  1.00  0.00    -0.126 C  
BRANCH   7   8
HETATM    8  C   UNL     1      -8.334  13.560  67.643  1.00  0.00    -0.179 C  
BRANCH   8   9
HETATM    9  C   UNL     1      -9.823  13.399  67.930  1.00  0.00    -0.237 C  
BRANCH   9  10
HETATM   10  C   UNL     1     -10.655  14.172  66.913  1.00  0.00    -0.280 C  
BRANCH  10  11
HETATM   11  C   UNL     1     -11.276  15.414  67.545  1.00  0.00    -0.302 C  
BRANCH  11  12
HETATM   12  C   UNL     1     -11.701  15.133  68.982  1.00  0.00    -0.358 C  
BRANCH  12  13
HETATM   13  C   UNL     1     -11.142  16.181  69.940  1.00  0.00    -0.357 C  
BRANCH  13  14
HETATM   14  C   UNL     1     -11.707  15.983  71.345  1.00  0.00    -0.536 C  
BRANCH  14  15
HETATM   15  C   UNL     1     -12.353  14.609  71.494  1.00  0.00    -0.415 C  
HETATM   16  C   UNL     1     -13.616  14.673  72.322  1.00  0.00    -0.433 C  
HETATM   17  O   UNL     1     -14.198  13.458  72.459  1.00  0.00    -0.721 OA 
HETATM   18  O   UNL     1     -14.084  15.681  72.824  1.00  0.00    -0.544 OA 
ENDBRANCH  14  15
ENDBRANCH  13  14
ENDBRANCH  12  13
ENDBRANCH  11  12
ENDBRANCH  10  11
ENDBRANCH   9  10
ENDBRANCH   8   9
ENDBRANCH   7   8
ENDBRANCH   6   7
ENDBRANCH   5   6
ENDBRANCH   4   5
ENDBRANCH   3   4
ENDBRANCH   2   3
TORSDOF 13
ENDMDL
MODEL      176
REMARK 921   NORMALIZED FREE ENERGY PREDICTED BY IDOCK:   -3.56 KCAL/MOL
REMARK 922        TOTAL FREE ENERGY PREDICTED BY IDOCK:   -7.68 KCAL/MOL
REMARK 923 INTER-LIGAND FREE ENERGY PREDICTED BY IDOCK:   -6.08 KCAL/MOL
REMARK 924 INTRA-LIGAND FREE ENERGY PREDICTED BY IDOCK:   -1.60 KCAL/MOL
REMARK 927      BINDING AFFINITY PREDICTED BY RF-SCORE:    0.00 PKD
ROOT
HETATM    1  C   UNL     1     -11.496  16.041  70.128  1.00  0.00    -0.350 C  
HETATM    2  C   UNL     1     -12.425  14.840  70.176  1.00  0.00    -0.359 C  
ENDROOT
BRANCH   2   3
HETATM    3  C   UNL     1     -13.355  14.911  71.385  1.00  0.00    -0.487 C  
BRANCH   3   4
HETATM    4  C   UNL     1     -13.253  13.645  72.231  1.00  0.00    -0.565 C  
BRANCH   4   5
HETATM    5  C   UNL     1     -12.668  12.494  71.418  1.00  0.00    -0.345 C  
BRANCH   5   6
HETATM    6  C   UNL     1     -13.000  11.150  72.059  1.00  0.00    -0.385 C  
BRANCH   6   7
HETATM    7  C   UNL     1     -12.621  10.001  71.129  1.00  0.00    -0.480 C  
BRANCH   7   8
HETATM    8  C   UNL     1     -12.074   8.821  71.923  1.00  0.00    -0.433 C  
BRANCH   8   9
HETATM    9  C   UNL     1     -10.550   8.793  71.868  1.00  0.00    -0.425 C  
BRANCH   9  10
HETATM   10  C   UNL     1     -10.068   8.260  70.524  1.00  0.00    -0.210 C  
BRANCH  10  11
HETATM   11  C   UNL     1      -8.959   9.138  69.953  1.00  0.00    -0.183 C  
BRANCH  11  12
HETATM   12  C   UNL     1      -9.548  10.289  69.144  1.00  0.00    -0.229 C  
BRANCH  12  13
HETATM   13  C   UNL     1     -10.599   9.791  68.156  1.00  0.00    -0.276 C  
BRANCH  13  14
HETATM   14  C   UNL     1     -11.021  10.911  67.207  1.00  0.00    -0.355 C  
BRANCH  14  15
HETATM   15  C   UNL     1     -10.764  12.284  67.821  1.00  0.00    -0.246 C  
HETATM   16  C   UNL     1     -10.223  13.259  66.802  1.00  0.00    -0.254 C  
HETATM   17  O   UNL     1      -9.993  14.481  67.337  1.00  0.00    -0.226 OA 
HETATM   18  O   UNL     1     -10.005  13.009  65.627  1.00  0.00    -0.275 OA 
ENDBRANCH  14  15
ENDBRANCH  13  14
ENDBRANCH  12  13
ENDBRANCH  11  12
ENDBRANCH  10  11
ENDBRANCH   9  10
ENDBRANCH   8   9
ENDBRANCH   7   8
ENDBRANCH   6   7
ENDBRANCH   5   6
ENDBRANCH   4   5
ENDBRANCH   3   4
ENDBRANCH   2   3
TORSDOF 13
ENDMDL
MODEL      177
REMARK 921   NORMALIZED FREE ENERGY PREDICTED BY IDOCK:   -3.56 KCAL/MOL
REMARK 922        TOTAL FREE ENERGY PREDICTED BY IDOCK:   -7.67 KCAL/MOL
REMARK 923 INTER-LIGAND FREE ENERGY PREDICTED BY IDOCK:   -6.49 KCAL/MOL
REMARK 924 INTRA-LIGAND FREE ENERGY PREDICTED BY IDOCK:   -1.18 KCAL/MOL
REMARK 927      BINDING AFFINITY PREDICTED BY RF-SCORE:    0.00 PKD
ROOT
HETATM    1  C   UNL     1     -12.477  11.302  70.837  1.00  0.00    -0.493 C  
HETATM    2  C   UNL     1     -12.991  10.109  71.623  1.00  0.00    -0.561 C  
ENDROOT
BRANCH   2   3
HETATM    3  C   UNL     1     -11.893   9.066  71.822  1.00  0.00    -0.442 C  
BRANCH   3   4
HETATM    4  C   UNL     1     -10.621   9.457  71.076  1.00  0.00    -0.400 C  
BRANCH   4   5
HETATM    5  C   UNL     1     -10.302   8.445  69.979  1.00  0.00    -0.211 C  
BRANCH   5   6
HETATM    6  C   UNL     1      -9.623   9.122  68.793  1.00  0.00    -0.161 C  
BRANCH   6   7
HETATM    7  C   UNL     1     -10.593   9.266  67.625  1.00  0.00    -0.324 C  
BRANCH   7   8
HETATM    8  C   UNL     1      -9.877   9.052  66.297  1.00  0.00    -0.361 C  
BRANCH   8   9
HETATM    9  C   UNL     1      -9.400  10.380  65.720  1.00  0.00    -0.230 C  
BRANCH   9  10
HETATM   10  C   UNL     1     -10.229  10.769  64.502  1.00  0.00    -0.428 C  
BRANCH  10  11
HETATM   11  C   UNL     1     -10.597  12.249  64.540  1.00  0.00    -0.346 C  
BRANCH  11  12
HETATM   12  C   UNL     1     -11.961  12.448  65.193  1.00  0.00    -0.454 C  
BRANCH  12  13
HETATM   13  C   UNL     1     -11.826  12.684  66.695  1.00  0.00    -0.449 C  
BRANCH  13  14
HETATM   14  C   UNL     1     -12.266  14.100  67.061  1.00  0.00    -0.374 C  
BRANCH  14  15
HETATM   15  C   UNL     1     -11.093  15.074  67.016  1.00  0.00    -0.334 C  
HETATM   16  C   UNL     1     -10.960  15.848  68.306  1.00  0.00    -0.329 C  
HETATM   17  O   UNL     1      -9.920  16.715  68.276  1.00  0.00    -0.244 OA 
HETATM   18  O   UNL     1     -11.686  15.734  69.280  1.00  0.00    -0.353 OA 
ENDBRANCH  14  15
ENDBRANCH  13  14
ENDBRANCH  12  13
ENDBRANCH  11  12
ENDBRANCH  10  11
ENDBRANCH   9  10
ENDBRANCH   8   9
ENDBRANCH   7   8
ENDBRANCH   6   7
ENDBRANCH   5   6
ENDBRANCH   4   5
ENDBRANCH   3   4
ENDBRANCH   2   3
TORSDOF 13
ENDMDL
MODEL      178
REMARK 921   NORMALIZED FREE ENERGY PREDICTED BY IDOCK:   -3.55 KCAL/MOL
REMARK 922        TOTAL FREE ENERGY PREDICTED BY IDOCK:   -7.66 KCAL/MOL
REMARK 923 INTER-LIGAND FREE ENERGY PREDICTED BY IDOCK:   -6.17 KCAL/MOL
REMARK 924 INTRA-LIGAND FREE ENERGY PREDICTED BY IDOCK:   -1.48 KCAL/MOL
REMARK 927      BINDING AFFINITY PREDICTED BY RF-SCORE:    0.00 PKD
ROOT
HETATM    1  C   UNL     1     -10.293  16.836  65.892  1.00  0.00    -0.341 C  
HETATM    2  C   UNL     1     -10.627  15.581  66.679  1.00  0.00    -0.307 C  
ENDROOT
BRANCH   2   3
HETATM    3  C   UNL     1     -11.136  15.926  68.077  1.00  0.00    -0.334 C  
BRANCH   3   4
HETATM    4  C   UNL     1     -11.588  14.673  68.822  1.00  0.00    -0.346 C  
BRANCH   4   5
HETATM    5  C   UNL     1     -10.891  13.432  68.272  1.00  0.00    -0.275 C  
BRANCH   5   6
HETATM    6  C   UNL     1     -11.899  12.327  67.975  1.00  0.00    -0.368 C  
BRANCH   6   7
HETATM    7  C   UNL     1     -11.195  10.984  67.814  1.00  0.00    -0.374 C  
BRANCH   7   8
HETATM    8  C   UNL     1     -10.431  10.617  69.081  1.00  0.00    -0.245 C  
BRANCH   8   9
HETATM    9  C   UNL     1      -8.944  10.447  68.785  1.00  0.00    -0.157 C  
BRANCH   9  10
HETATM   10  C   UNL     1      -8.720   9.328  67.774  1.00  0.00    -0.120 C  
BRANCH  10  11
HETATM   11  C   UNL     1      -8.156   9.877  66.467  1.00  0.00    -0.117 C  
BRANCH  11  12
HETATM   12  C   UNL     1      -9.144   9.664  65.324  1.00  0.00    -0.269 C  
BRANCH  12  13
HETATM   13  C   UNL     1      -9.173  10.868  64.386  1.00  0.00    -0.223 C  
BRANCH  13  14
HETATM   14  C   UNL     1     -10.609  11.223  64.008  1.00  0.00    -0.450 C  
BRANCH  14  15
HETATM   15  C   UNL     1     -10.860  12.723  64.129  1.00  0.00    -0.437 C  
HETATM   16  C   UNL     1     -12.335  13.048  64.081  1.00  0.00    -0.358 C  
HETATM   17  O   UNL     1     -12.567  14.378  64.189  1.00  0.00    -0.692 OA 
HETATM   18  O   UNL     1     -13.236  12.236  63.958  1.00  0.00    -0.757 OA 
ENDBRANCH  14  15
ENDBRANCH  13  14
ENDBRANCH  12  13
ENDBRANCH  11  12
ENDBRANCH  10  11
ENDBRANCH   9  10
ENDBRANCH   8   9
ENDBRANCH   7   8
ENDBRANCH   6   7
ENDBRANCH   5   6
ENDBRANCH   4   5
ENDBRANCH   3   4
ENDBRANCH   2   3
TORSDOF 13
ENDMDL
MODEL      179
REMARK 921   NORMALIZED FREE ENERGY PREDICTED BY IDOCK:   -3.55 KCAL/MOL
REMARK 922        TOTAL FREE ENERGY PREDICTED BY IDOCK:   -7.66 KCAL/MOL
REMARK 923 INTER-LIGAND FREE ENERGY PREDICTED BY IDOCK:   -6.31 KCAL/MOL
REMARK 924 INTRA-LIGAND FREE ENERGY PREDICTED BY IDOCK:   -1.34 KCAL/MOL
REMARK 927      BINDING AFFINITY PREDICTED BY RF-SCORE:    0.00 PKD
ROOT
HETATM    1  C   UNL     1     -12.948  14.860  72.957  1.00  0.00    -0.599 C  
HETATM    2  C   UNL     1     -12.022  15.042  71.766  1.00  0.00    -0.442 C  
ENDROOT
BRANCH   2   3
HETATM    3  C   UNL     1     -12.766  15.647  70.578  1.00  0.00    -0.391 C  
BRANCH   3   4
HETATM    4  C   UNL     1     -11.900  15.631  69.321  1.00  0.00    -0.378 C  
BRANCH   4   5
HETATM    5  C   UNL     1     -10.421  15.533  69.683  1.00  0.00    -0.289 C  
BRANCH   5   6
HETATM    6  C   UNL     1      -9.612  16.609  68.966  1.00  0.00    -0.246 C  
BRANCH   6   7
HETATM    7  C   UNL     1     -10.523  17.500  68.128  1.00  0.00    -0.386 C  
BRANCH   7   8
HETATM    8  C   UNL     1      -9.854  17.870  66.809  1.00  0.00    -0.333 C  
BRANCH   8   9
HETATM    9  C   UNL     1     -10.592  17.237  65.634  1.00  0.00    -0.173 C  
BRANCH   9  10
HETATM   10  C   UNL     1     -10.499  15.717  65.693  1.00  0.00    -0.402 C  
BRANCH  10  11
HETATM   11  C   UNL     1     -11.628  15.068  64.898  1.00  0.00    -0.374 C  
BRANCH  11  12
HETATM   12  C   UNL     1     -12.320  13.991  65.727  1.00  0.00    -0.506 C  
BRANCH  12  13
HETATM   13  C   UNL     1     -12.373  12.664  64.976  1.00  0.00    -0.561 C  
BRANCH  13  14
HETATM   14  C   UNL     1     -11.367  11.673  65.558  1.00  0.00    -0.224 C  
BRANCH  14  15
HETATM   15  C   UNL     1     -11.430  11.651  67.082  1.00  0.00    -0.344 C  
HETATM   16  C   UNL     1     -11.141  10.274  67.633  1.00  0.00    -0.251 C  
HETATM   17  O   UNL     1     -11.193  10.245  68.986  1.00  0.00    -0.230 OA 
HETATM   18  O   UNL     1     -10.888   9.283  66.968  1.00  0.00    -0.186 OA 
ENDBRANCH  14  15
ENDBRANCH  13  14
ENDBRANCH  12  13
ENDBRANCH  11  12
ENDBRANCH  10  11
ENDBRANCH   9  10
ENDBRANCH   8   9
ENDBRANCH   7   8
ENDBRANCH   6   7
ENDBRANCH   5   6
ENDBRANCH   4   5
ENDBRANCH   3   4
ENDBRANCH   2   3
TORSDOF 13
ENDMDL
MODEL      180
REMARK 921   NORMALIZED FREE ENERGY PREDICTED BY IDOCK:   -3.55 KCAL/MOL
REMARK 922        TOTAL FREE ENERGY PREDICTED BY IDOCK:   -7.65 KCAL/MOL
REMARK 923 INTER-LIGAND FREE ENERGY PREDICTED BY IDOCK:   -6.15 KCAL/MOL
REMARK 924 INTRA-LIGAND FREE ENERGY PREDICTED BY IDOCK:   -1.50 KCAL/MOL
REMARK 927      BINDING AFFINITY PREDICTED BY RF-SCORE:    0.00 PKD
ROOT
HETATM    1  C   UNL     1      -9.909   8.100  72.639  1.00  0.00    -0.364 C  
HETATM    2  C   UNL     1     -10.417   9.001  71.526  1.00  0.00    -0.410 C  
ENDROOT
BRANCH   2   3
HETATM    3  C   UNL     1     -11.876   9.388  71.754  1.00  0.00    -0.452 C  
BRANCH   3   4
HETATM    4  C   UNL     1     -12.287  10.544  70.846  1.00  0.00    -0.490 C  
BRANCH   4   5
HETATM    5  C   UNL     1     -11.615  10.427  69.481  1.00  0.00    -0.288 C  
BRANCH   5   6
HETATM    6  C   UNL     1     -11.088  11.780  69.015  1.00  0.00    -0.301 C  
BRANCH   6   7
HETATM    7  C   UNL     1      -9.822  11.609  68.183  1.00  0.00    -0.191 C  
BRANCH   7   8
HETATM    8  C   UNL     1      -8.694  11.026  69.025  1.00  0.00    -0.072 C  
BRANCH   8   9
HETATM    9  C   UNL     1      -8.274   9.659  68.494  1.00  0.00    -0.105 C  
BRANCH   9  10
HETATM   10  C   UNL     1      -9.147   9.247  67.314  1.00  0.00    -0.143 C  
BRANCH  10  11
HETATM   11  C   UNL     1      -8.294   8.907  66.095  1.00  0.00    -0.125 C  
BRANCH  11  12
HETATM   12  C   UNL     1      -8.860   9.567  64.842  1.00  0.00    -0.240 C  
BRANCH  12  13
HETATM   13  C   UNL     1     -10.219  10.204  65.118  1.00  0.00    -0.233 C  
BRANCH  13  14
HETATM   14  C   UNL     1     -10.460  11.387  64.183  1.00  0.00    -0.421 C  
BRANCH  14  15
HETATM   15  C   UNL     1     -11.099  12.558  64.924  1.00  0.00    -0.336 C  
HETATM   16  C   UNL     1     -12.529  12.781  64.489  1.00  0.00    -0.428 C  
HETATM   17  O   UNL     1     -13.105  13.817  65.143  1.00  0.00    -0.762 OA 
HETATM   18  O   UNL     1     -13.125  12.125  63.650  1.00  0.00    -0.787 OA 
ENDBRANCH  14  15
ENDBRANCH  13  14
ENDBRANCH  12  13
ENDBRANCH  11  12
ENDBRANCH  10  11
ENDBRANCH   9  10
ENDBRANCH   8   9
ENDBRANCH   7   8
ENDBRANCH   6   7
ENDBRANCH   5   6
ENDBRANCH   4   5
ENDBRANCH   3   4
ENDBRANCH   2   3
TORSDOF 13
ENDMDL
MODEL      181
REMARK 921   NORMALIZED FREE ENERGY PREDICTED BY IDOCK:   -3.55 KCAL/MOL
REMARK 922        TOTAL FREE ENERGY PREDICTED BY IDOCK:   -7.65 KCAL/MOL
REMARK 923 INTER-LIGAND FREE ENERGY PREDICTED BY IDOCK:   -6.79 KCAL/MOL
REMARK 924 INTRA-LIGAND FREE ENERGY PREDICTED BY IDOCK:   -0.86 KCAL/MOL
REMARK 927      BINDING AFFINITY PREDICTED BY RF-SCORE:    0.00 PKD
ROOT
HETATM    1  C   UNL     1      -6.273  18.415  66.167  1.00  0.00    -0.235 C  
HETATM    2  C   UNL     1      -6.931  19.718  65.750  1.00  0.00    -0.316 C  
ENDROOT
BRANCH   2   3
HETATM    3  C   UNL     1      -7.311  20.558  66.967  1.00  0.00    -0.372 C  
BRANCH   3   4
HETATM    4  C   UNL     1      -8.579  20.025  67.629  1.00  0.00    -0.385 C  
BRANCH   4   5
HETATM    5  C   UNL     1      -9.733  19.978  66.632  1.00  0.00    -0.566 C  
BRANCH   5   6
HETATM    6  C   UNL     1     -10.886  19.138  67.171  1.00  0.00    -0.507 C  
BRANCH   6   7
HETATM    7  C   UNL     1     -10.635  17.654  66.920  1.00  0.00    -0.235 C  
BRANCH   7   8
HETATM    8  C   UNL     1     -10.572  16.885  68.234  1.00  0.00    -0.363 C  
BRANCH   8   9
HETATM    9  C   UNL     1     -11.551  15.716  68.224  1.00  0.00    -0.326 C  
BRANCH   9  10
HETATM   10  C   UNL     1     -12.080  15.442  69.627  1.00  0.00    -0.354 C  
BRANCH  10  11
HETATM   11  C   UNL     1     -12.161  13.942  69.898  1.00  0.00    -0.406 C  
BRANCH  11  12
HETATM   12  C   UNL     1     -11.899  13.150  68.621  1.00  0.00    -0.363 C  
BRANCH  12  13
HETATM   13  C   UNL     1     -11.823  11.653  68.905  1.00  0.00    -0.392 C  
BRANCH  13  14
HETATM   14  C   UNL     1     -12.240  11.355  70.344  1.00  0.00    -0.450 C  
BRANCH  14  15
HETATM   15  C   UNL     1     -11.652  10.033  70.829  1.00  0.00    -0.444 C  
HETATM   16  C   UNL     1     -12.618   9.284  71.717  1.00  0.00    -0.382 C  
HETATM   17  O   UNL     1     -12.105   8.109  72.152  1.00  0.00    -0.319 OA 
HETATM   18  O   UNL     1     -13.735   9.664  72.028  1.00  0.00    -0.379 OA 
ENDBRANCH  14  15
ENDBRANCH  13  14
ENDBRANCH  12  13
ENDBRANCH  11  12
ENDBRANCH  10  11
ENDBRANCH   9  10
ENDBRANCH   8   9
ENDBRANCH   7   8
ENDBRANCH   6   7
ENDBRANCH   5   6
ENDBRANCH   4   5
ENDBRANCH   3   4
ENDBRANCH   2   3
TORSDOF 13
ENDMDL
MODEL      182
REMARK 921   NORMALIZED FREE ENERGY PREDICTED BY IDOCK:   -3.54 KCAL/MOL
REMARK 922        TOTAL FREE ENERGY PREDICTED BY IDOCK:   -7.65 KCAL/MOL
REMARK 923 INTER-LIGAND FREE ENERGY PREDICTED BY IDOCK:   -6.60 KCAL/MOL
REMARK 924 INTRA-LIGAND FREE ENERGY PREDICTED BY IDOCK:   -1.04 KCAL/MOL
REMARK 927      BINDING AFFINITY PREDICTED BY RF-SCORE:    0.00 PKD
ROOT
HETATM    1  C   UNL     1     -10.716   7.414  73.231  1.00  0.00    -0.441 C  
HETATM    2  C   UNL     1     -10.088   8.197  72.090  1.00  0.00    -0.320 C  
ENDROOT
BRANCH   2   3
HETATM    3  C   UNL     1     -11.138   8.606  71.060  1.00  0.00    -0.316 C  
BRANCH   3   4
HETATM    4  C   UNL     1     -10.778   9.937  70.406  1.00  0.00    -0.379 C  
BRANCH   4   5
HETATM    5  C   UNL     1     -12.026  10.637  69.876  1.00  0.00    -0.385 C  
BRANCH   5   6
HETATM    6  C   UNL     1     -11.772  11.233  68.495  1.00  0.00    -0.378 C  
BRANCH   6   7
HETATM    7  C   UNL     1     -10.769  10.387  67.718  1.00  0.00    -0.327 C  
BRANCH   7   8
HETATM    8  C   UNL     1     -10.114  11.205  66.611  1.00  0.00    -0.256 C  
BRANCH   8   9
HETATM    9  C   UNL     1     -10.029  10.396  65.321  1.00  0.00    -0.376 C  
BRANCH   9  10
HETATM   10  C   UNL     1     -10.561  11.203  64.142  1.00  0.00    -0.436 C  
BRANCH  10  11
HETATM   11  C   UNL     1     -11.762  12.049  64.555  1.00  0.00    -0.380 C  
BRANCH  11  12
HETATM   12  C   UNL     1     -12.081  13.089  63.486  1.00  0.00    -0.617 C  
BRANCH  12  13
HETATM   13  C   UNL     1     -12.341  14.458  64.107  1.00  0.00    -0.340 C  
BRANCH  13  14
HETATM   14  C   UNL     1     -11.567  14.614  65.414  1.00  0.00    -0.345 C  
BRANCH  14  15
HETATM   15  C   UNL     1     -10.571  15.768  65.334  1.00  0.00    -0.441 C  
HETATM   16  C   UNL     1     -10.297  16.365  66.695  1.00  0.00    -0.292 C  
HETATM   17  O   UNL     1      -9.413  17.388  66.634  1.00  0.00    -0.255 OA 
HETATM   18  O   UNL     1     -10.797  15.995  67.745  1.00  0.00    -0.318 OA 
ENDBRANCH  14  15
ENDBRANCH  13  14
ENDBRANCH  12  13
ENDBRANCH  11  12
ENDBRANCH  10  11
ENDBRANCH   9  10
ENDBRANCH   8   9
ENDBRANCH   7   8
ENDBRANCH   6   7
ENDBRANCH   5   6
ENDBRANCH   4   5
ENDBRANCH   3   4
ENDBRANCH   2   3
TORSDOF 13
ENDMDL
MODEL      183
REMARK 921   NORMALIZED FREE ENERGY PREDICTED BY IDOCK:   -3.54 KCAL/MOL
REMARK 922        TOTAL FREE ENERGY PREDICTED BY IDOCK:   -7.64 KCAL/MOL
REMARK 923 INTER-LIGAND FREE ENERGY PREDICTED BY IDOCK:   -6.70 KCAL/MOL
REMARK 924 INTRA-LIGAND FREE ENERGY PREDICTED BY IDOCK:   -0.94 KCAL/MOL
REMARK 927      BINDING AFFINITY PREDICTED BY RF-SCORE:    0.00 PKD
ROOT
HETATM    1  C   UNL     1     -10.466   5.940  73.996  1.00  0.00    -0.276 C  
HETATM    2  C   UNL     1     -11.316   5.593  72.786  1.00  0.00    -0.350 C  
ENDROOT
BRANCH   2   3
HETATM    3  C   UNL     1     -11.459   6.791  71.851  1.00  0.00    -0.318 C  
BRANCH   3   4
HETATM    4  C   UNL     1     -10.867   8.051  72.477  1.00  0.00    -0.415 C  
BRANCH   4   5
HETATM    5  C   UNL     1     -10.809   9.187  71.459  1.00  0.00    -0.436 C  
BRANCH   5   6
HETATM    6  C   UNL     1     -12.211   9.675  71.108  1.00  0.00    -0.437 C  
BRANCH   6   7
HETATM    7  C   UNL     1     -12.155  10.730  70.007  1.00  0.00    -0.423 C  
BRANCH   7   8
HETATM    8  C   UNL     1     -10.973  10.479  69.077  1.00  0.00    -0.289 C  
BRANCH   8   9
HETATM    9  C   UNL     1     -10.597  11.753  68.327  1.00  0.00    -0.236 C  
BRANCH   9  10
HETATM   10  C   UNL     1     -11.756  12.230  67.459  1.00  0.00    -0.402 C  
BRANCH  10  11
HETATM   11  C   UNL     1     -11.368  12.236  65.984  1.00  0.00    -0.398 C  
BRANCH  11  12
HETATM   12  C   UNL     1     -12.511  12.776  65.130  1.00  0.00    -0.565 C  
BRANCH  12  13
HETATM   13  C   UNL     1     -12.076  14.006  64.337  1.00  0.00    -0.486 C  
BRANCH  13  14
HETATM   14  C   UNL     1     -10.689  14.468  64.777  1.00  0.00    -0.414 C  
BRANCH  14  15
HETATM   15  C   UNL     1     -10.666  15.969  65.050  1.00  0.00    -0.400 C  
HETATM   16  C   UNL     1     -10.547  16.267  66.527  1.00  0.00    -0.256 C  
HETATM   17  O   UNL     1     -10.524  17.597  66.779  1.00  0.00    -0.334 OA 
HETATM   18  O   UNL     1     -10.478  15.433  67.415  1.00  0.00    -0.266 OA 
ENDBRANCH  14  15
ENDBRANCH  13  14
ENDBRANCH  12  13
ENDBRANCH  11  12
ENDBRANCH  10  11
ENDBRANCH   9  10
ENDBRANCH   8   9
ENDBRANCH   7   8
ENDBRANCH   6   7
ENDBRANCH   5   6
ENDBRANCH   4   5
ENDBRANCH   3   4
ENDBRANCH   2   3
TORSDOF 13
ENDMDL
MODEL      184
REMARK 921   NORMALIZED FREE ENERGY PREDICTED BY IDOCK:   -3.54 KCAL/MOL
REMARK 922        TOTAL FREE ENERGY PREDICTED BY IDOCK:   -7.63 KCAL/MOL
REMARK 923 INTER-LIGAND FREE ENERGY PREDICTED BY IDOCK:   -6.52 KCAL/MOL
REMARK 924 INTRA-LIGAND FREE ENERGY PREDICTED BY IDOCK:   -1.11 KCAL/MOL
REMARK 927      BINDING AFFINITY PREDICTED BY RF-SCORE:    0.00 PKD
ROOT
HETATM    1  C   UNL     1     -13.651  13.266  72.415  1.00  0.00    -0.694 C  
HETATM    2  C   UNL     1     -12.747  12.672  71.348  1.00  0.00    -0.347 C  
ENDROOT
BRANCH   2   3
HETATM    3  C   UNL     1     -12.756  11.146  71.406  1.00  0.00    -0.524 C  
BRANCH   3   4
HETATM    4  C   UNL     1     -11.779  10.552  70.396  1.00  0.00    -0.434 C  
BRANCH   4   5
HETATM    5  C   UNL     1     -12.130  10.993  68.977  1.00  0.00    -0.285 C  
BRANCH   5   6
HETATM    6  C   UNL     1     -11.067  10.533  67.985  1.00  0.00    -0.361 C  
BRANCH   6   7
HETATM    7  C   UNL     1     -10.646  11.682  67.074  1.00  0.00    -0.272 C  
BRANCH   7   8
HETATM    8  C   UNL     1     -11.838  12.219  66.292  1.00  0.00    -0.387 C  
BRANCH   8   9
HETATM    9  C   UNL     1     -12.067  13.695  66.601  1.00  0.00    -0.459 C  
BRANCH   9  10
HETATM   10  C   UNL     1     -10.883  14.277  67.364  1.00  0.00    -0.288 C  
BRANCH  10  11
HETATM   11  C   UNL     1     -11.257  14.571  68.813  1.00  0.00    -0.281 C  
BRANCH  11  12
HETATM   12  C   UNL     1     -11.525  16.059  69.009  1.00  0.00    -0.360 C  
BRANCH  12  13
HETATM   13  C   UNL     1     -10.758  16.898  67.990  1.00  0.00    -0.364 C  
BRANCH  13  14
HETATM   14  C   UNL     1      -9.482  17.464  68.608  1.00  0.00    -0.280 C  
BRANCH  14  15
HETATM   15  C   UNL     1      -8.247  17.033  67.823  1.00  0.00    -0.196 C  
HETATM   16  C   UNL     1      -8.066  17.857  66.569  1.00  0.00    -0.272 C  
HETATM   17  O   UNL     1      -6.972  17.483  65.866  1.00  0.00    -0.277 OA 
HETATM   18  O   UNL     1      -8.801  18.760  66.202  1.00  0.00    -0.440 OA 
ENDBRANCH  14  15
ENDBRANCH  13  14
ENDBRANCH  12  13
ENDBRANCH  11  12
ENDBRANCH  10  11
ENDBRANCH   9  10
ENDBRANCH   8   9
ENDBRANCH   7   8
ENDBRANCH   6   7
ENDBRANCH   5   6
ENDBRANCH   4   5
ENDBRANCH   3   4
ENDBRANCH   2   3
TORSDOF 13
ENDMDL
MODEL      185
REMARK 921   NORMALIZED FREE ENERGY PREDICTED BY IDOCK:   -3.54 KCAL/MOL
REMARK 922        TOTAL FREE ENERGY PREDICTED BY IDOCK:   -7.63 KCAL/MOL
REMARK 923 INTER-LIGAND FREE ENERGY PREDICTED BY IDOCK:   -6.36 KCAL/MOL
REMARK 924 INTRA-LIGAND FREE ENERGY PREDICTED BY IDOCK:   -1.27 KCAL/MOL
REMARK 927      BINDING AFFINITY PREDICTED BY RF-SCORE:    0.00 PKD
ROOT
HETATM    1  C   UNL     1     -14.389   8.321  71.641  1.00  0.00    -0.561 C  
HETATM    2  C   UNL     1     -13.342   9.347  72.038  1.00  0.00    -0.525 C  
ENDROOT
BRANCH   2   3
HETATM    3  C   UNL     1     -12.117   9.263  71.130  1.00  0.00    -0.389 C  
BRANCH   3   4
HETATM    4  C   UNL     1     -11.984  10.517  70.269  1.00  0.00    -0.411 C  
BRANCH   4   5
HETATM    5  C   UNL     1     -10.831  10.374  69.279  1.00  0.00    -0.280 C  
BRANCH   5   6
HETATM    6  C   UNL     1     -10.476  11.721  68.659  1.00  0.00    -0.242 C  
BRANCH   6   7
HETATM    7  C   UNL     1     -11.683  12.654  68.665  1.00  0.00    -0.364 C  
BRANCH   7   8
HETATM    8  C   UNL     1     -11.250  14.103  68.479  1.00  0.00    -0.285 C  
BRANCH   8   9
HETATM    9  C   UNL     1      -9.731  14.206  68.393  1.00  0.00    -0.226 C  
BRANCH   9  10
HETATM   10  C   UNL     1      -9.318  15.281  67.395  1.00  0.00    -0.202 C  
BRANCH  10  11
HETATM   11  C   UNL     1     -10.541  15.965  66.790  1.00  0.00    -0.309 C  
BRANCH  11  12
HETATM   12  C   UNL     1     -10.449  15.985  65.268  1.00  0.00    -0.384 C  
BRANCH  12  13
HETATM   13  C   UNL     1     -11.805  15.701  64.628  1.00  0.00    -0.127 C  
BRANCH  13  14
HETATM   14  C   UNL     1     -12.068  14.198  64.565  1.00  0.00    -0.489 C  
BRANCH  14  15
HETATM   15  C   UNL     1     -10.764  13.411  64.469  1.00  0.00    -0.434 C  
HETATM   16  C   UNL     1     -10.964  12.082  63.780  1.00  0.00    -0.426 C  
HETATM   17  O   UNL     1      -9.811  11.376  63.689  1.00  0.00    -0.283 OA 
HETATM   18  O   UNL     1     -12.023  11.660  63.346  1.00  0.00    -0.424 OA 
ENDBRANCH  14  15
ENDBRANCH  13  14
ENDBRANCH  12  13
ENDBRANCH  11  12
ENDBRANCH  10  11
ENDBRANCH   9  10
ENDBRANCH   8   9
ENDBRANCH   7   8
ENDBRANCH   6   7
ENDBRANCH   5   6
ENDBRANCH   4   5
ENDBRANCH   3   4
ENDBRANCH   2   3
TORSDOF 13
ENDMDL
MODEL      186
REMARK 921   NORMALIZED FREE ENERGY PREDICTED BY IDOCK:   -3.53 KCAL/MOL
REMARK 922        TOTAL FREE ENERGY PREDICTED BY IDOCK:   -7.61 KCAL/MOL
REMARK 923 INTER-LIGAND FREE ENERGY PREDICTED BY IDOCK:   -6.14 KCAL/MOL
REMARK 924 INTRA-LIGAND FREE ENERGY PREDICTED BY IDOCK:   -1.47 KCAL/MOL
REMARK 927      BINDING AFFINITY PREDICTED BY RF-SCORE:    0.00 PKD
ROOT
HETATM    1  C   UNL     1      -6.953   6.535  70.470  1.00  0.00    -0.064 C  
HETATM    2  C   UNL     1      -7.282   6.397  71.947  1.00  0.00    -0.087 C  
ENDROOT
BRANCH   2   3
HETATM    3  C   UNL     1      -8.359   5.339  72.174  1.00  0.00    -0.125 C  
BRANCH   3   4
HETATM    4  C   UNL     1      -8.648   4.563  70.892  1.00  0.00    -0.115 C  
BRANCH   4   5
HETATM    5  C   UNL     1     -10.147   4.525  70.607  1.00  0.00    -0.232 C  
BRANCH   5   6
HETATM    6  C   UNL     1     -10.843   5.754  71.184  1.00  0.00    -0.316 C  
BRANCH   6   7
HETATM    7  C   UNL     1     -11.293   6.692  70.068  1.00  0.00    -0.440 C  
BRANCH   7   8
HETATM    8  C   UNL     1     -10.285   7.816  69.865  1.00  0.00    -0.213 C  
BRANCH   8   9
HETATM    9  C   UNL     1     -10.177   8.678  71.118  1.00  0.00    -0.294 C  
BRANCH   9  10
HETATM   10  C   UNL     1     -11.454   9.480  71.333  1.00  0.00    -0.462 C  
BRANCH  10  11
HETATM   11  C   UNL     1     -11.716  10.419  70.159  1.00  0.00    -0.394 C  
BRANCH  11  12
HETATM   12  C   UNL     1     -12.038  11.824  70.654  1.00  0.00    -0.407 C  
BRANCH  12  13
HETATM   13  C   UNL     1     -13.140  11.800  71.710  1.00  0.00    -0.480 C  
BRANCH  13  14
HETATM   14  C   UNL     1     -13.540  13.220  72.105  1.00  0.00    -0.655 C  
BRANCH  14  15
HETATM   15  C   UNL     1     -12.510  14.239  71.626  1.00  0.00    -0.419 C  
HETATM   16  C   UNL     1     -12.578  15.520  72.425  1.00  0.00    -0.400 C  
HETATM   17  O   UNL     1     -11.667  16.430  72.008  1.00  0.00    -0.499 OA 
HETATM   18  O   UNL     1     -13.350  15.742  73.343  1.00  0.00    -0.544 OA 
ENDBRANCH  14  15
ENDBRANCH  13  14
ENDBRANCH  12  13
ENDBRANCH  11  12
ENDBRANCH  10  11
ENDBRANCH   9  10
ENDBRANCH   8   9
ENDBRANCH   7   8
ENDBRANCH   6   7
ENDBRANCH   5   6
ENDBRANCH   4   5
ENDBRANCH   3   4
ENDBRANCH   2   3
TORSDOF 13
ENDMDL
MODEL      187
REMARK 921   NORMALIZED FREE ENERGY PREDICTED BY IDOCK:   -3.52 KCAL/MOL
REMARK 922        TOTAL FREE ENERGY PREDICTED BY IDOCK:   -7.61 KCAL/MOL
REMARK 923 INTER-LIGAND FREE ENERGY PREDICTED BY IDOCK:   -6.01 KCAL/MOL
REMARK 924 INTRA-LIGAND FREE ENERGY PREDICTED BY IDOCK:   -1.60 KCAL/MOL
REMARK 927      BINDING AFFINITY PREDICTED BY RF-SCORE:    0.00 PKD
ROOT
HETATM    1  C   UNL     1     -12.541  13.989  65.562  1.00  0.00    -0.543 C  
HETATM    2  C   UNL     1     -11.635  13.033  66.319  1.00  0.00    -0.408 C  
ENDROOT
BRANCH   2   3
HETATM    3  C   UNL     1     -10.486  12.549  65.438  1.00  0.00    -0.308 C  
BRANCH   3   4
HETATM    4  C   UNL     1     -10.778  11.165  64.865  1.00  0.00    -0.318 C  
BRANCH   4   5
HETATM    5  C   UNL     1      -9.514  10.543  64.278  1.00  0.00    -0.337 C  
BRANCH   5   6
HETATM    6  C   UNL     1      -8.981   9.436  65.181  1.00  0.00    -0.258 C  
BRANCH   6   7
HETATM    7  C   UNL     1     -10.028   9.032  66.214  1.00  0.00    -0.352 C  
BRANCH   7   8
HETATM    8  C   UNL     1      -9.392   8.853  67.588  1.00  0.00    -0.156 C  
BRANCH   8   9
HETATM    9  C   UNL     1      -8.743  10.151  68.056  1.00  0.00    -0.122 C  
BRANCH   9  10
HETATM   10  C   UNL     1      -9.764  11.047  68.746  1.00  0.00    -0.199 C  
BRANCH  10  11
HETATM   11  C   UNL     1     -10.603  10.254  69.744  1.00  0.00    -0.312 C  
BRANCH  11  12
HETATM   12  C   UNL     1     -12.031  10.786  69.789  1.00  0.00    -0.397 C  
BRANCH  12  13
HETATM   13  C   UNL     1     -12.595  10.738  71.207  1.00  0.00    -0.532 C  
BRANCH  13  14
HETATM   14  C   UNL     1     -13.299   9.408  71.463  1.00  0.00    -0.458 C  
BRANCH  14  15
HETATM   15  C   UNL     1     -12.476   8.513  72.385  1.00  0.00    -0.416 C  
HETATM   16  C   UNL     1     -12.054   7.238  71.693  1.00  0.00    -0.325 C  
HETATM   17  O   UNL     1     -11.321   6.437  72.503  1.00  0.00    -0.261 OA 
HETATM   18  O   UNL     1     -12.325   6.931  70.544  1.00  0.00    -0.312 OA 
ENDBRANCH  14  15
ENDBRANCH  13  14
ENDBRANCH  12  13
ENDBRANCH  11  12
ENDBRANCH  10  11
ENDBRANCH   9  10
ENDBRANCH   8   9
ENDBRANCH   7   8
ENDBRANCH   6   7
ENDBRANCH   5   6
ENDBRANCH   4   5
ENDBRANCH   3   4
ENDBRANCH   2   3
TORSDOF 13
ENDMDL
MODEL      188
REMARK 921   NORMALIZED FREE ENERGY PREDICTED BY IDOCK:   -3.51 KCAL/MOL
REMARK 922        TOTAL FREE ENERGY PREDICTED BY IDOCK:   -7.59 KCAL/MOL
REMARK 923 INTER-LIGAND FREE ENERGY PREDICTED BY IDOCK:   -6.16 KCAL/MOL
REMARK 924 INTRA-LIGAND FREE ENERGY PREDICTED BY IDOCK:   -1.43 KCAL/MOL
REMARK 927      BINDING AFFINITY PREDICTED BY RF-SCORE:    0.00 PKD
ROOT
HETATM    1  C   UNL     1     -12.569   7.438  71.473  1.00  0.00    -0.401 C  
HETATM    2  C   UNL     1     -12.794   8.891  71.853  1.00  0.00    -0.437 C  
ENDROOT
BRANCH   2   3
HETATM    3  C   UNL     1     -11.640   9.770  71.375  1.00  0.00    -0.452 C  
BRANCH   3   4
HETATM    4  C   UNL     1     -12.157  11.020  70.668  1.00  0.00    -0.471 C  
BRANCH   4   5
HETATM    5  C   UNL     1     -11.361  11.292  69.395  1.00  0.00    -0.360 C  
BRANCH   5   6
HETATM    6  C   UNL     1     -10.733  10.009  68.861  1.00  0.00    -0.243 C  
BRANCH   6   7
HETATM    7  C   UNL     1     -10.706  10.016  67.336  1.00  0.00    -0.336 C  
BRANCH   7   8
HETATM    8  C   UNL     1      -9.929  11.218  66.812  1.00  0.00    -0.238 C  
BRANCH   8   9
HETATM    9  C   UNL     1      -8.433  10.924  66.786  1.00  0.00    -0.139 C  
BRANCH   9  10
HETATM   10  C   UNL     1      -7.627  12.203  66.985  1.00  0.00    -0.093 C  
BRANCH  10  11
HETATM   11  C   UNL     1      -7.667  12.653  68.442  1.00  0.00    -0.133 C  
BRANCH  11  12
HETATM   12  C   UNL     1      -8.074  14.120  68.541  1.00  0.00    -0.143 C  
BRANCH  12  13
HETATM   13  C   UNL     1      -8.593  14.641  67.204  1.00  0.00    -0.244 C  
BRANCH  13  14
HETATM   14  C   UNL     1     -10.102  14.867  67.262  1.00  0.00    -0.235 C  
BRANCH  14  15
HETATM   15  C   UNL     1     -10.508  16.110  66.476  1.00  0.00    -0.298 C  
HETATM   16  C   UNL     1     -10.869  15.774  65.048  1.00  0.00    -0.443 C  
HETATM   17  O   UNL     1     -11.232  16.871  64.341  1.00  0.00    -1.159 OA 
HETATM   18  O   UNL     1     -10.847  14.658  64.554  1.00  0.00    -0.338 OA 
ENDBRANCH  14  15
ENDBRANCH  13  14
ENDBRANCH  12  13
ENDBRANCH  11  12
ENDBRANCH  10  11
ENDBRANCH   9  10
ENDBRANCH   8   9
ENDBRANCH   7   8
ENDBRANCH   6   7
ENDBRANCH   5   6
ENDBRANCH   4   5
ENDBRANCH   3   4
ENDBRANCH   2   3
TORSDOF 13
ENDMDL
MODEL      189
REMARK 921   NORMALIZED FREE ENERGY PREDICTED BY IDOCK:   -3.50 KCAL/MOL
REMARK 922        TOTAL FREE ENERGY PREDICTED BY IDOCK:   -7.57 KCAL/MOL
REMARK 923 INTER-LIGAND FREE ENERGY PREDICTED BY IDOCK:   -6.46 KCAL/MOL
REMARK 924 INTRA-LIGAND FREE ENERGY PREDICTED BY IDOCK:   -1.12 KCAL/MOL
REMARK 927      BINDING AFFINITY PREDICTED BY RF-SCORE:    0.00 PKD
ROOT
HETATM    1  C   UNL     1      -8.530   7.995  72.104  1.00  0.00    -0.194 C  
HETATM    2  C   UNL     1      -9.176   7.989  73.479  1.00  0.00    -0.312 C  
ENDROOT
BRANCH   2   3
HETATM    3  C   UNL     1     -10.120   6.800  73.639  1.00  0.00    -0.324 C  
BRANCH   3   4
HETATM    4  C   UNL     1     -10.414   6.146  72.292  1.00  0.00    -0.229 C  
BRANCH   4   5
HETATM    5  C   UNL     1     -11.900   6.236  71.957  1.00  0.00    -0.370 C  
BRANCH   5   6
HETATM    6  C   UNL     1     -12.176   7.400  71.010  1.00  0.00    -0.315 C  
BRANCH   6   7
HETATM    7  C   UNL     1     -12.638   8.629  71.787  1.00  0.00    -0.396 C  
BRANCH   7   8
HETATM    8  C   UNL     1     -11.758   9.832  71.469  1.00  0.00    -0.450 C  
BRANCH   8   9
HETATM    9  C   UNL     1     -12.506  10.833  70.595  1.00  0.00    -0.461 C  
BRANCH   9  10
HETATM   10  C   UNL     1     -12.816  12.105  71.375  1.00  0.00    -0.378 C  
BRANCH  10  11
HETATM   11  C   UNL     1     -12.373  13.343  70.601  1.00  0.00    -0.423 C  
BRANCH  11  12
HETATM   12  C   UNL     1     -11.563  12.948  69.371  1.00  0.00    -0.363 C  
BRANCH  12  13
HETATM   13  C   UNL     1     -11.900  13.837  68.177  1.00  0.00    -0.411 C  
BRANCH  13  14
HETATM   14  C   UNL     1     -11.333  15.241  68.373  1.00  0.00    -0.338 C  
BRANCH  14  15
HETATM   15  C   UNL     1     -10.751  15.789  67.073  1.00  0.00    -0.306 C  
HETATM   16  C   UNL     1     -10.299  17.223  67.225  1.00  0.00    -0.331 C  
HETATM   17  O   UNL     1      -9.780  17.718  66.077  1.00  0.00    -0.496 OA 
HETATM   18  O   UNL     1     -10.378  17.887  68.245  1.00  0.00    -0.362 OA 
ENDBRANCH  14  15
ENDBRANCH  13  14
ENDBRANCH  12  13
ENDBRANCH  11  12
ENDBRANCH  10  11
ENDBRANCH   9  10
ENDBRANCH   8   9
ENDBRANCH   7   8
ENDBRANCH   6   7
ENDBRANCH   5   6
ENDBRANCH   4   5
ENDBRANCH   3   4
ENDBRANCH   2   3
TORSDOF 13
ENDMDL
MODEL      190
REMARK 921   NORMALIZED FREE ENERGY PREDICTED BY IDOCK:   -3.50 KCAL/MOL
REMARK 922        TOTAL FREE ENERGY PREDICTED BY IDOCK:   -7.56 KCAL/MOL
REMARK 923 INTER-LIGAND FREE ENERGY PREDICTED BY IDOCK:   -6.08 KCAL/MOL
REMARK 924 INTRA-LIGAND FREE ENERGY PREDICTED BY IDOCK:   -1.48 KCAL/MOL
REMARK 927      BINDING AFFINITY PREDICTED BY RF-SCORE:    0.00 PKD
ROOT
HETATM    1  C   UNL     1     -11.616  15.760  68.633  1.00  0.00    -0.392 C  
HETATM    2  C   UNL     1     -10.928  14.771  67.707  1.00  0.00    -0.294 C  
ENDROOT
BRANCH   2   3
HETATM    3  C   UNL     1     -11.625  14.711  66.350  1.00  0.00    -0.343 C  
BRANCH   3   4
HETATM    4  C   UNL     1     -11.073  13.571  65.498  1.00  0.00    -0.303 C  
BRANCH   4   5
HETATM    5  C   UNL     1     -11.792  12.262  65.811  1.00  0.00    -0.417 C  
BRANCH   5   6
HETATM    6  C   UNL     1     -10.826  11.234  66.390  1.00  0.00    -0.306 C  
BRANCH   6   7
HETATM    7  C   UNL     1     -11.052  11.063  67.889  1.00  0.00    -0.347 C  
BRANCH   7   8
HETATM    8  C   UNL     1      -9.727  11.068  68.641  1.00  0.00    -0.198 C  
BRANCH   8   9
HETATM    9  C   UNL     1      -9.078   9.688  68.600  1.00  0.00    -0.132 C  
BRANCH   9  10
HETATM   10  C   UNL     1      -8.782   9.189  70.010  1.00  0.00    -0.186 C  
BRANCH  10  11
HETATM   11  C   UNL     1      -9.939   9.500  70.955  1.00  0.00    -0.308 C  
BRANCH  11  12
HETATM   12  C   UNL     1     -11.058   8.476  70.790  1.00  0.00    -0.288 C  
BRANCH  12  13
HETATM   13  C   UNL     1     -12.355   8.968  71.426  1.00  0.00    -0.380 C  
BRANCH  13  14
HETATM   14  C   UNL     1     -12.698  10.372  70.935  1.00  0.00    -0.477 C  
BRANCH  14  15
HETATM   15  C   UNL     1     -13.253  11.234  72.065  1.00  0.00    -0.437 C  
HETATM   16  C   UNL     1     -12.967  12.701  71.841  1.00  0.00    -0.297 C  
HETATM   17  O   UNL     1     -13.458  13.474  72.839  1.00  0.00    -0.611 OA 
HETATM   18  O   UNL     1     -12.367  13.169  70.887  1.00  0.00    -0.364 OA 
ENDBRANCH  14  15
ENDBRANCH  13  14
ENDBRANCH  12  13
ENDBRANCH  11  12
ENDBRANCH  10  11
ENDBRANCH   9  10
ENDBRANCH   8   9
ENDBRANCH   7   8
ENDBRANCH   6   7
ENDBRANCH   5   6
ENDBRANCH   4   5
ENDBRANCH   3   4
ENDBRANCH   2   3
TORSDOF 13
ENDMDL
MODEL      191
REMARK 921   NORMALIZED FREE ENERGY PREDICTED BY IDOCK:   -3.49 KCAL/MOL
REMARK 922        TOTAL FREE ENERGY PREDICTED BY IDOCK:   -7.55 KCAL/MOL
REMARK 923 INTER-LIGAND FREE ENERGY PREDICTED BY IDOCK:   -5.84 KCAL/MOL
REMARK 924 INTRA-LIGAND FREE ENERGY PREDICTED BY IDOCK:   -1.71 KCAL/MOL
REMARK 927      BINDING AFFINITY PREDICTED BY RF-SCORE:    0.00 PKD
ROOT
HETATM    1  C   UNL     1     -12.459  14.209  70.160  1.00  0.00    -0.391 C  
HETATM    2  C   UNL     1     -11.285  14.088  69.204  1.00  0.00    -0.308 C  
ENDROOT
BRANCH   2   3
HETATM    3  C   UNL     1     -10.802  12.643  69.105  1.00  0.00    -0.127 C  
BRANCH   3   4
HETATM    4  C   UNL     1      -9.453  12.562  68.397  1.00  0.00    -0.167 C  
BRANCH   4   5
HETATM    5  C   UNL     1      -9.549  13.119  66.979  1.00  0.00    -0.241 C  
BRANCH   5   6
HETATM    6  C   UNL     1      -9.043  14.557  66.923  1.00  0.00    -0.274 C  
BRANCH   6   7
HETATM    7  C   UNL     1      -9.622  15.285  65.715  1.00  0.00    -0.359 C  
BRANCH   7   8
HETATM    8  C   UNL     1     -11.104  15.578  65.917  1.00  0.00    -0.205 C  
BRANCH   8   9
HETATM    9  C   UNL     1     -11.938  14.927  64.818  1.00  0.00    -0.364 C  
BRANCH   9  10
HETATM   10  C   UNL     1     -12.784  13.792  65.383  1.00  0.00    -0.513 C  
BRANCH  10  11
HETATM   11  C   UNL     1     -12.512  12.486  64.643  1.00  0.00    -0.539 C  
BRANCH  11  12
HETATM   12  C   UNL     1     -11.578  12.722  63.460  1.00  0.00    -0.565 C  
BRANCH  12  13
HETATM   13  C   UNL     1     -10.351  11.818  63.535  1.00  0.00    -0.490 C  
BRANCH  13  14
HETATM   14  C   UNL     1     -10.429  10.902  64.754  1.00  0.00    -0.373 C  
BRANCH  14  15
HETATM   15  C   UNL     1      -9.225   9.967  64.823  1.00  0.00    -0.301 C  
HETATM   16  C   UNL     1      -9.378   8.939  65.919  1.00  0.00    -0.236 C  
HETATM   17  O   UNL     1      -8.315   8.104  65.988  1.00  0.00    -0.116 OA 
HETATM   18  O   UNL     1     -10.333   8.843  66.673  1.00  0.00    -0.271 OA 
ENDBRANCH  14  15
ENDBRANCH  13  14
ENDBRANCH  12  13
ENDBRANCH  11  12
ENDBRANCH  10  11
ENDBRANCH   9  10
ENDBRANCH   8   9
ENDBRANCH   7   8
ENDBRANCH   6   7
ENDBRANCH   5   6
ENDBRANCH   4   5
ENDBRANCH   3   4
ENDBRANCH   2   3
TORSDOF 13
ENDMDL
MODEL      192
REMARK 921   NORMALIZED FREE ENERGY PREDICTED BY IDOCK:   -3.49 KCAL/MOL
REMARK 922        TOTAL FREE ENERGY PREDICTED BY IDOCK:   -7.55 KCAL/MOL
REMARK 923 INTER-LIGAND FREE ENERGY PREDICTED BY IDOCK:   -5.66 KCAL/MOL
REMARK 924 INTRA-LIGAND FREE ENERGY PREDICTED BY IDOCK:   -1.89 KCAL/MOL
REMARK 927      BINDING AFFINITY PREDICTED BY RF-SCORE:    0.00 PKD
ROOT
HETATM    1  C   UNL     1     -12.722  11.720  63.362  1.00  0.00    -0.395 C  
HETATM    2  C   UNL     1     -11.324  11.334  63.814  1.00  0.00    -0.153 C  
ENDROOT
BRANCH   2   3
HETATM    3  C   UNL     1     -10.355  12.504  63.667  1.00  0.00    -0.382 C  
BRANCH   3   4
HETATM    4  C   UNL     1     -10.395  13.408  64.896  1.00  0.00    -0.382 C  
BRANCH   4   5
HETATM    5  C   UNL     1     -11.437  14.510  64.725  1.00  0.00    -0.408 C  
BRANCH   5   6
HETATM    6  C   UNL     1     -12.531  14.394  65.781  1.00  0.00    -0.334 C  
BRANCH   6   7
HETATM    7  C   UNL     1     -12.036  13.599  66.986  1.00  0.00    -0.448 C  
BRANCH   7   8
HETATM    8  C   UNL     1     -11.913  14.494  68.213  1.00  0.00    -0.303 C  
BRANCH   8   9
HETATM    9  C   UNL     1     -10.455  14.628  68.641  1.00  0.00    -0.244 C  
BRANCH   9  10
HETATM   10  C   UNL     1      -9.911  16.005  68.281  1.00  0.00    -0.219 C  
BRANCH  10  11
HETATM   11  C   UNL     1      -8.850  15.907  67.189  1.00  0.00    -0.228 C  
BRANCH  11  12
HETATM   12  C   UNL     1      -9.030  17.020  66.162  1.00  0.00    -0.243 C  
BRANCH  12  13
HETATM   13  C   UNL     1     -10.196  17.932  66.533  1.00  0.00    -0.379 C  
BRANCH  13  14
HETATM   14  C   UNL     1      -9.728  19.379  66.666  1.00  0.00    -0.441 C  
BRANCH  14  15
HETATM   15  C   UNL     1      -8.293  19.452  67.180  1.00  0.00    -0.315 C  
HETATM   16  C   UNL     1      -8.244  19.598  68.683  1.00  0.00    -0.276 C  
HETATM   17  O   UNL     1      -6.974  19.662  69.148  1.00  0.00    -0.338 OA 
HETATM   18  O   UNL     1      -9.214  19.657  69.421  1.00  0.00    -0.170 OA 
ENDBRANCH  14  15
ENDBRANCH  13  14
ENDBRANCH  12  13
ENDBRANCH  11  12
ENDBRANCH  10  11
ENDBRANCH   9  10
ENDBRANCH   8   9
ENDBRANCH   7   8
ENDBRANCH   6   7
ENDBRANCH   5   6
ENDBRANCH   4   5
ENDBRANCH   3   4
ENDBRANCH   2   3
TORSDOF 13
ENDMDL
MODEL      193
REMARK 921   NORMALIZED FREE ENERGY PREDICTED BY IDOCK:   -3.49 KCAL/MOL
REMARK 922        TOTAL FREE ENERGY PREDICTED BY IDOCK:   -7.55 KCAL/MOL
REMARK 923 INTER-LIGAND FREE ENERGY PREDICTED BY IDOCK:   -6.17 KCAL/MOL
REMARK 924 INTRA-LIGAND FREE ENERGY PREDICTED BY IDOCK:   -1.38 KCAL/MOL
REMARK 927      BINDING AFFINITY PREDICTED BY RF-SCORE:    0.00 PKD
ROOT
HETATM    1  C   UNL     1      -7.919   9.159  70.583  1.00  0.00    -0.177 C  
HETATM    2  C   UNL     1      -7.637   8.502  71.923  1.00  0.00    -0.139 C  
ENDROOT
BRANCH   2   3
HETATM    3  C   UNL     1      -8.700   7.458  72.258  1.00  0.00    -0.138 C  
BRANCH   3   4
HETATM    4  C   UNL     1      -9.056   6.622  71.032  1.00  0.00    -0.156 C  
BRANCH   4   5
HETATM    5  C   UNL     1     -10.115   5.579  71.376  1.00  0.00    -0.258 C  
BRANCH   5   6
HETATM    6  C   UNL     1     -11.324   6.228  72.040  1.00  0.00    -0.348 C  
BRANCH   6   7
HETATM    7  C   UNL     1     -12.239   6.861  70.996  1.00  0.00    -0.427 C  
BRANCH   7   8
HETATM    8  C   UNL     1     -12.938   8.092  71.562  1.00  0.00    -0.326 C  
BRANCH   8   9
HETATM    9  C   UNL     1     -11.921   9.164  71.939  1.00  0.00    -0.443 C  
BRANCH   9  10
HETATM   10  C   UNL     1     -12.185  10.453  71.170  1.00  0.00    -0.498 C  
BRANCH  10  11
HETATM   11  C   UNL     1     -11.664  10.354  69.740  1.00  0.00    -0.310 C  
BRANCH  11  12
HETATM   12  C   UNL     1     -11.556  11.738  69.109  1.00  0.00    -0.372 C  
BRANCH  12  13
HETATM   13  C   UNL     1     -10.308  11.854  68.239  1.00  0.00    -0.211 C  
BRANCH  13  14
HETATM   14  C   UNL     1     -10.521  12.873  67.122  1.00  0.00    -0.241 C  
BRANCH  14  15
HETATM   15  C   UNL     1     -11.274  12.257  65.946  1.00  0.00    -0.381 C  
HETATM   16  C   UNL     1     -12.449  13.110  65.527  1.00  0.00    -0.458 C  
HETATM   17  O   UNL     1     -13.123  12.573  64.483  1.00  0.00    -0.816 OA 
HETATM   18  O   UNL     1     -12.782  14.163  66.046  1.00  0.00    -0.469 OA 
ENDBRANCH  14  15
ENDBRANCH  13  14
ENDBRANCH  12  13
ENDBRANCH  11  12
ENDBRANCH  10  11
ENDBRANCH   9  10
ENDBRANCH   8   9
ENDBRANCH   7   8
ENDBRANCH   6   7
ENDBRANCH   5   6
ENDBRANCH   4   5
ENDBRANCH   3   4
ENDBRANCH   2   3
TORSDOF 13
ENDMDL
MODEL      194
REMARK 921   NORMALIZED FREE ENERGY PREDICTED BY IDOCK:   -3.49 KCAL/MOL
REMARK 922        TOTAL FREE ENERGY PREDICTED BY IDOCK:   -7.55 KCAL/MOL
REMARK 923 INTER-LIGAND FREE ENERGY PREDICTED BY IDOCK:   -6.20 KCAL/MOL
REMARK 924 INTRA-LIGAND FREE ENERGY PREDICTED BY IDOCK:   -1.34 KCAL/MOL
REMARK 927      BINDING AFFINITY PREDICTED BY RF-SCORE:    0.00 PKD
ROOT
HETATM    1  C   UNL     1     -12.068  16.260  73.129  1.00  0.00    -0.608 C  
HETATM    2  C   UNL     1     -13.050  15.110  73.277  1.00  0.00    -0.622 C  
ENDROOT
BRANCH   2   3
HETATM    3  C   UNL     1     -14.184  15.220  72.260  1.00  0.00    -0.642 C  
BRANCH   3   4
HETATM    4  C   UNL     1     -14.116  14.092  71.235  1.00  0.00    -0.145 C  
BRANCH   4   5
HETATM    5  C   UNL     1     -12.804  13.323  71.361  1.00  0.00    -0.411 C  
BRANCH   5   6
HETATM    6  C   UNL     1     -12.023  13.357  70.052  1.00  0.00    -0.407 C  
BRANCH   6   7
HETATM    7  C   UNL     1     -11.308  14.693  69.884  1.00  0.00    -0.302 C  
BRANCH   7   8
HETATM    8  C   UNL     1     -11.840  15.444  68.669  1.00  0.00    -0.317 C  
BRANCH   8   9
HETATM    9  C   UNL     1     -11.865  14.538  67.443  1.00  0.00    -0.416 C  
BRANCH   9  10
HETATM   10  C   UNL     1     -10.668  14.816  66.542  1.00  0.00    -0.319 C  
BRANCH  10  11
HETATM   11  C   UNL     1     -10.002  13.516  66.100  1.00  0.00    -0.310 C  
BRANCH  11  12
HETATM   12  C   UNL     1     -10.501  12.344  66.938  1.00  0.00    -0.243 C  
BRANCH  12  13
HETATM   13  C   UNL     1     -11.026  11.216  66.055  1.00  0.00    -0.189 C  
BRANCH  13  14
HETATM   14  C   UNL     1     -10.156   9.969  66.198  1.00  0.00    -0.317 C  
BRANCH  14  15
HETATM   15  C   UNL     1     -10.235   9.398  67.611  1.00  0.00    -0.281 C  
HETATM   16  C   UNL     1     -10.347   7.891  67.599  1.00  0.00    -0.241 C  
HETATM   17  O   UNL     1     -10.416   7.375  68.848  1.00  0.00    -0.204 OA 
HETATM   18  O   UNL     1     -10.377   7.190  66.600  1.00  0.00    -0.229 OA 
ENDBRANCH  14  15
ENDBRANCH  13  14
ENDBRANCH  12  13
ENDBRANCH  11  12
ENDBRANCH  10  11
ENDBRANCH   9  10
ENDBRANCH   8   9
ENDBRANCH   7   8
ENDBRANCH   6   7
ENDBRANCH   5   6
ENDBRANCH   4   5
ENDBRANCH   3   4
ENDBRANCH   2   3
TORSDOF 13
ENDMDL
MODEL      195
REMARK 921   NORMALIZED FREE ENERGY PREDICTED BY IDOCK:   -3.47 KCAL/MOL
REMARK 922        TOTAL FREE ENERGY PREDICTED BY IDOCK:   -7.52 KCAL/MOL
REMARK 923 INTER-LIGAND FREE ENERGY PREDICTED BY IDOCK:   -5.63 KCAL/MOL
REMARK 924 INTRA-LIGAND FREE ENERGY PREDICTED BY IDOCK:   -1.89 KCAL/MOL
REMARK 927      BINDING AFFINITY PREDICTED BY RF-SCORE:    0.00 PKD
ROOT
HETATM    1  C   UNL     1      -6.048  12.469  67.865  1.00  0.00    -0.101 C  
HETATM    2  C   UNL     1      -6.790  11.386  67.100  1.00  0.00    -0.124 C  
ENDROOT
BRANCH   2   3
HETATM    3  C   UNL     1      -8.277  11.713  66.986  1.00  0.00    -0.170 C  
BRANCH   3   4
HETATM    4  C   UNL     1      -9.063  10.519  66.451  1.00  0.00    -0.181 C  
BRANCH   4   5
HETATM    5  C   UNL     1      -9.199  10.596  64.933  1.00  0.00    -0.252 C  
BRANCH   5   6
HETATM    6  C   UNL     1     -10.637  10.908  64.530  1.00  0.00    -0.335 C  
BRANCH   6   7
HETATM    7  C   UNL     1     -10.671  11.956  63.422  1.00  0.00    -0.476 C  
BRANCH   7   8
HETATM    8  C   UNL     1     -11.800  12.953  63.653  1.00  0.00    -0.599 C  
BRANCH   8   9
HETATM    9  C   UNL     1     -12.118  13.074  65.140  1.00  0.00    -0.476 C  
BRANCH   9  10
HETATM   10  C   UNL     1     -11.291  14.184  65.780  1.00  0.00    -0.317 C  
BRANCH  10  11
HETATM   11  C   UNL     1     -11.107  13.936  67.274  1.00  0.00    -0.312 C  
BRANCH  11  12
HETATM   12  C   UNL     1     -12.032  12.823  67.753  1.00  0.00    -0.316 C  
BRANCH  12  13
HETATM   13  C   UNL     1     -11.562  12.250  69.088  1.00  0.00    -0.373 C  
BRANCH  13  14
HETATM   14  C   UNL     1     -11.579  10.723  69.055  1.00  0.00    -0.370 C  
BRANCH  14  15
HETATM   15  C   UNL     1     -11.462  10.137  70.459  1.00  0.00    -0.417 C  
HETATM   16  C   UNL     1     -10.095   9.544  70.704  1.00  0.00    -0.286 C  
HETATM   17  O   UNL     1      -9.981   9.023  71.948  1.00  0.00    -0.332 OA 
HETATM   18  O   UNL     1      -9.178   9.519  69.899  1.00  0.00    -0.187 OA 
ENDBRANCH  14  15
ENDBRANCH  13  14
ENDBRANCH  12  13
ENDBRANCH  11  12
ENDBRANCH  10  11
ENDBRANCH   9  10
ENDBRANCH   8   9
ENDBRANCH   7   8
ENDBRANCH   6   7
ENDBRANCH   5   6
ENDBRANCH   4   5
ENDBRANCH   3   4
ENDBRANCH   2   3
TORSDOF 13
ENDMDL
MODEL      196
REMARK 921   NORMALIZED FREE ENERGY PREDICTED BY IDOCK:   -3.47 KCAL/MOL
REMARK 922        TOTAL FREE ENERGY PREDICTED BY IDOCK:   -7.52 KCAL/MOL
REMARK 923 INTER-LIGAND FREE ENERGY PREDICTED BY IDOCK:   -5.61 KCAL/MOL
REMARK 924 INTRA-LIGAND FREE ENERGY PREDICTED BY IDOCK:   -1.91 KCAL/MOL
REMARK 927      BINDING AFFINITY PREDICTED BY RF-SCORE:    0.00 PKD
ROOT
HETATM    1  C   UNL     1      -9.826  19.356  69.313  1.00  0.00    -0.330 C  
HETATM    2  C   UNL     1      -8.538  19.167  68.531  1.00  0.00    -0.398 C  
ENDROOT
BRANCH   2   3
HETATM    3  C   UNL     1      -8.719  19.558  67.067  1.00  0.00    -0.349 C  
BRANCH   3   4
HETATM    4  C   UNL     1     -10.168  19.940  66.775  1.00  0.00    -0.603 C  
BRANCH   4   5
HETATM    5  C   UNL     1     -10.781  18.995  65.746  1.00  0.00    -0.350 C  
BRANCH   5   6
HETATM    6  C   UNL     1     -10.877  17.576  66.297  1.00  0.00     0.062 C  
BRANCH   6   7
HETATM    7  C   UNL     1     -10.931  16.559  65.162  1.00  0.00    -0.201 C  
BRANCH   7   8
HETATM    8  C   UNL     1      -9.867  15.483  65.346  1.00  0.00    -0.291 C  
BRANCH   8   9
HETATM    9  C   UNL     1      -8.654  16.044  66.082  1.00  0.00    -0.315 C  
BRANCH   9  10
HETATM   10  C   UNL     1      -8.243  15.123  67.225  1.00  0.00    -0.234 C  
BRANCH  10  11
HETATM   11  C   UNL     1      -8.470  13.660  66.858  1.00  0.00    -0.073 C  
BRANCH  11  12
HETATM   12  C   UNL     1      -9.037  12.889  68.045  1.00  0.00    -0.211 C  
BRANCH  12  13
HETATM   13  C   UNL     1     -10.412  13.419  68.443  1.00  0.00    -0.257 C  
BRANCH  13  14
HETATM   14  C   UNL     1     -11.518  12.559  67.836  1.00  0.00    -0.369 C  
BRANCH  14  15
HETATM   15  C   UNL     1     -12.273  13.315  66.747  1.00  0.00    -0.340 C  
HETATM   16  C   UNL     1     -12.122  12.650  65.398  1.00  0.00    -0.462 C  
HETATM   17  O   UNL     1     -12.790  13.314  64.425  1.00  0.00    -0.657 OA 
HETATM   18  O   UNL     1     -11.482  11.636  65.176  1.00  0.00    -0.231 OA 
ENDBRANCH  14  15
ENDBRANCH  13  14
ENDBRANCH  12  13
ENDBRANCH  11  12
ENDBRANCH  10  11
ENDBRANCH   9  10
ENDBRANCH   8   9
ENDBRANCH   7   8
ENDBRANCH   6   7
ENDBRANCH   5   6
ENDBRANCH   4   5
ENDBRANCH   3   4
ENDBRANCH   2   3
TORSDOF 13
ENDMDL
MODEL      197
REMARK 921   NORMALIZED FREE ENERGY PREDICTED BY IDOCK:   -3.47 KCAL/MOL
REMARK 922        TOTAL FREE ENERGY PREDICTED BY IDOCK:   -7.51 KCAL/MOL
REMARK 923 INTER-LIGAND FREE ENERGY PREDICTED BY IDOCK:   -6.56 KCAL/MOL
REMARK 924 INTRA-LIGAND FREE ENERGY PREDICTED BY IDOCK:   -0.95 KCAL/MOL
REMARK 927      BINDING AFFINITY PREDICTED BY RF-SCORE:    0.00 PKD
ROOT
HETATM    1  C   UNL     1     -10.925   8.436  72.073  1.00  0.00    -0.394 C  
HETATM    2  C   UNL     1     -10.821   6.934  72.273  1.00  0.00    -0.262 C  
ENDROOT
BRANCH   2   3
HETATM    3  C   UNL     1     -10.954   6.191  70.946  1.00  0.00    -0.359 C  
BRANCH   3   4
HETATM    4  C   UNL     1     -10.728   7.131  69.764  1.00  0.00    -0.257 C  
BRANCH   4   5
HETATM    5  C   UNL     1     -11.019   6.422  68.444  1.00  0.00    -0.390 C  
BRANCH   5   6
HETATM    6  C   UNL     1     -10.308   7.114  67.286  1.00  0.00    -0.342 C  
BRANCH   6   7
HETATM    7  C   UNL     1      -9.942   8.548  67.657  1.00  0.00    -0.253 C  
BRANCH   7   8
HETATM    8  C   UNL     1     -10.082   9.471  66.452  1.00  0.00    -0.328 C  
BRANCH   8   9
HETATM    9  C   UNL     1     -10.979  10.660  66.784  1.00  0.00    -0.182 C  
BRANCH   9  10
HETATM   10  C   UNL     1     -11.257  10.725  68.281  1.00  0.00    -0.358 C  
BRANCH  10  11
HETATM   11  C   UNL     1     -10.794  12.056  68.866  1.00  0.00    -0.252 C  
BRANCH  11  12
HETATM   12  C   UNL     1     -11.990  12.942  69.200  1.00  0.00    -0.308 C  
BRANCH  12  13
HETATM   13  C   UNL     1     -11.541  14.295  69.743  1.00  0.00    -0.350 C  
BRANCH  13  14
HETATM   14  C   UNL     1     -12.665  14.958  70.537  1.00  0.00    -0.399 C  
BRANCH  14  15
HETATM   15  C   UNL     1     -12.116  15.749  71.720  1.00  0.00    -0.541 C  
HETATM   16  C   UNL     1     -12.686  15.260  73.031  1.00  0.00    -0.441 C  
HETATM   17  O   UNL     1     -12.203  15.956  74.088  1.00  0.00    -0.521 OA 
HETATM   18  O   UNL     1     -13.489  14.351  73.160  1.00  0.00    -0.625 OA 
ENDBRANCH  14  15
ENDBRANCH  13  14
ENDBRANCH  12  13
ENDBRANCH  11  12
ENDBRANCH  10  11
ENDBRANCH   9  10
ENDBRANCH   8   9
ENDBRANCH   7   8
ENDBRANCH   6   7
ENDBRANCH   5   6
ENDBRANCH   4   5
ENDBRANCH   3   4
ENDBRANCH   2   3
TORSDOF 13
ENDMDL
MODEL      198
REMARK 921   NORMALIZED FREE ENERGY PREDICTED BY IDOCK:   -3.46 KCAL/MOL
REMARK 922        TOTAL FREE ENERGY PREDICTED BY IDOCK:   -7.50 KCAL/MOL
REMARK 923 INTER-LIGAND FREE ENERGY PREDICTED BY IDOCK:   -6.00 KCAL/MOL
REMARK 924 INTRA-LIGAND FREE ENERGY PREDICTED BY IDOCK:   -1.51 KCAL/MOL
REMARK 927      BINDING AFFINITY PREDICTED BY RF-SCORE:    0.00 PKD
ROOT
HETATM    1  C   UNL     1     -10.614   9.378  70.951  1.00  0.00    -0.390 C  
HETATM    2  C   UNL     1     -11.930   9.716  71.632  1.00  0.00    -0.470 C  
ENDROOT
BRANCH   2   3
HETATM    3  C   UNL     1     -12.744  10.702  70.799  1.00  0.00    -0.468 C  
BRANCH   3   4
HETATM    4  C   UNL     1     -11.843  11.517  69.875  1.00  0.00    -0.430 C  
BRANCH   4   5
HETATM    5  C   UNL     1     -12.181  13.003  69.960  1.00  0.00    -0.306 C  
BRANCH   5   6
HETATM    6  C   UNL     1     -11.180  13.836  69.166  1.00  0.00    -0.307 C  
BRANCH   6   7
HETATM    7  C   UNL     1     -11.875  14.570  68.024  1.00  0.00    -0.350 C  
BRANCH   7   8
HETATM    8  C   UNL     1     -10.862  15.042  66.988  1.00  0.00    -0.311 C  
BRANCH   8   9
HETATM    9  C   UNL     1     -11.337  14.708  65.577  1.00  0.00    -0.341 C  
BRANCH   9  10
HETATM   10  C   UNL     1     -12.634  13.908  65.619  1.00  0.00    -0.553 C  
BRANCH  10  11
HETATM   11  C   UNL     1     -12.505  12.614  64.822  1.00  0.00    -0.555 C  
BRANCH  11  12
HETATM   12  C   UNL     1     -11.163  11.943  65.097  1.00  0.00    -0.346 C  
BRANCH  12  13
HETATM   13  C   UNL     1     -11.149  11.278  66.471  1.00  0.00    -0.280 C  
BRANCH  13  14
HETATM   14  C   UNL     1     -10.248  10.045  66.464  1.00  0.00    -0.291 C  
BRANCH  14  15
HETATM   15  C   UNL     1      -8.774  10.435  66.435  1.00  0.00    -0.149 C  
HETATM   16  C   UNL     1      -8.087   9.930  65.187  1.00  0.00    -0.138 C  
HETATM   17  O   UNL     1      -6.777  10.274  65.152  1.00  0.00    -0.126 OA 
HETATM   18  O   UNL     1      -8.617   9.286  64.297  1.00  0.00    -0.185 OA 
ENDBRANCH  14  15
ENDBRANCH  13  14
ENDBRANCH  12  13
ENDBRANCH  11  12
ENDBRANCH  10  11
ENDBRANCH   9  10
ENDBRANCH   8   9
ENDBRANCH   7   8
ENDBRANCH   6   7
ENDBRANCH   5   6
ENDBRANCH   4   5
ENDBRANCH   3   4
ENDBRANCH   2   3
TORSDOF 13
ENDMDL
MODEL      199
REMARK 921   NORMALIZED FREE ENERGY PREDICTED BY IDOCK:   -3.46 KCAL/MOL
REMARK 922        TOTAL FREE ENERGY PREDICTED BY IDOCK:   -7.50 KCAL/MOL
REMARK 923 INTER-LIGAND FREE ENERGY PREDICTED BY IDOCK:   -6.60 KCAL/MOL
REMARK 924 INTRA-LIGAND FREE ENERGY PREDICTED BY IDOCK:   -0.91 KCAL/MOL
REMARK 927      BINDING AFFINITY PREDICTED BY RF-SCORE:    0.00 PKD
ROOT
HETATM    1  C   UNL     1     -14.017  15.495  72.448  1.00  0.00    -0.653 C  
HETATM    2  C   UNL     1     -13.047  14.680  71.610  1.00  0.00    -0.423 C  
ENDROOT
BRANCH   2   3
HETATM    3  C   UNL     1     -11.630  15.240  71.708  1.00  0.00    -0.498 C  
BRANCH   3   4
HETATM    4  C   UNL     1     -10.889  15.095  70.382  1.00  0.00    -0.249 C  
BRANCH   4   5
HETATM    5  C   UNL     1     -11.358  16.145  69.379  1.00  0.00    -0.323 C  
BRANCH   5   6
HETATM    6  C   UNL     1     -10.993  15.741  67.955  1.00  0.00    -0.324 C  
BRANCH   6   7
HETATM    7  C   UNL     1     -11.823  14.543  67.504  1.00  0.00    -0.404 C  
BRANCH   7   8
HETATM    8  C   UNL     1     -11.876  14.463  65.983  1.00  0.00    -0.379 C  
BRANCH   8   9
HETATM    9  C   UNL     1     -11.546  13.053  65.504  1.00  0.00    -0.382 C  
BRANCH   9  10
HETATM   10  C   UNL     1     -12.462  12.643  64.357  1.00  0.00    -0.509 C  
BRANCH  10  11
HETATM   11  C   UNL     1     -11.676  11.941  63.253  1.00  0.00    -0.397 C  
BRANCH  11  12
HETATM   12  C   UNL     1     -10.191  11.897  63.595  1.00  0.00    -0.466 C  
BRANCH  12  13
HETATM   13  C   UNL     1      -9.738  10.476  63.915  1.00  0.00    -0.384 C  
BRANCH  13  14
HETATM   14  C   UNL     1      -9.141  10.403  65.319  1.00  0.00    -0.227 C  
BRANCH  14  15
HETATM   15  C   UNL     1     -10.155   9.868  66.326  1.00  0.00    -0.311 C  
HETATM   16  C   UNL     1      -9.983   8.385  66.556  1.00  0.00    -0.265 C  
HETATM   17  O   UNL     1     -10.878   7.901  67.450  1.00  0.00    -0.237 OA 
HETATM   18  O   UNL     1      -9.149   7.675  66.018  1.00  0.00    -0.166 OA 
ENDBRANCH  14  15
ENDBRANCH  13  14
ENDBRANCH  12  13
ENDBRANCH  11  12
ENDBRANCH  10  11
ENDBRANCH   9  10
ENDBRANCH   8   9
ENDBRANCH   7   8
ENDBRANCH   6   7
ENDBRANCH   5   6
ENDBRANCH   4   5
ENDBRANCH   3   4
ENDBRANCH   2   3
TORSDOF 13
ENDMDL
MODEL      200
REMARK 921   NORMALIZED FREE ENERGY PREDICTED BY IDOCK:   -3.46 KCAL/MOL
REMARK 922        TOTAL FREE ENERGY PREDICTED BY IDOCK:   -7.49 KCAL/MOL
REMARK 923 INTER-LIGAND FREE ENERGY PREDICTED BY IDOCK:   -6.56 KCAL/MOL
REMARK 924 INTRA-LIGAND FREE ENERGY PREDICTED BY IDOCK:   -0.94 KCAL/MOL
REMARK 927      BINDING AFFINITY PREDICTED BY RF-SCORE:    0.00 PKD
ROOT
HETATM    1  C   UNL     1     -14.293   7.255  71.530  1.00  0.00    -0.558 C  
HETATM    2  C   UNL     1     -14.248   8.691  72.022  1.00  0.00    -0.524 C  
ENDROOT
BRANCH   2   3
HETATM    3  C   UNL     1     -13.053   9.438  71.434  1.00  0.00    -0.419 C  
BRANCH   3   4
HETATM    4  C   UNL     1     -13.077  10.912  71.831  1.00  0.00    -0.537 C  
BRANCH   4   5
HETATM    5  C   UNL     1     -12.367  11.766  70.785  1.00  0.00    -0.433 C  
BRANCH   5   6
HETATM    6  C   UNL     1     -11.735  10.894  69.705  1.00  0.00    -0.413 C  
BRANCH   6   7
HETATM    7  C   UNL     1     -11.776  11.596  68.352  1.00  0.00    -0.374 C  
BRANCH   7   8
HETATM    8  C   UNL     1     -10.631  11.125  67.462  1.00  0.00    -0.258 C  
BRANCH   8   9
HETATM    9  C   UNL     1      -9.716  12.289  67.097  1.00  0.00    -0.203 C  
BRANCH   9  10
HETATM   10  C   UNL     1      -8.639  12.483  68.158  1.00  0.00    -0.189 C  
BRANCH  10  11
HETATM   11  C   UNL     1      -8.387  13.965  68.417  1.00  0.00    -0.157 C  
BRANCH  11  12
HETATM   12  C   UNL     1      -9.693  14.750  68.364  1.00  0.00    -0.214 C  
BRANCH  12  13
HETATM   13  C   UNL     1      -9.503  16.176  68.876  1.00  0.00    -0.244 C  
BRANCH  13  14
HETATM   14  C   UNL     1     -10.716  17.038  68.534  1.00  0.00    -0.352 C  
BRANCH  14  15
HETATM   15  C   UNL     1     -10.522  17.767  67.208  1.00  0.00    -0.356 C  
HETATM   16  C   UNL     1     -10.443  19.264  67.400  1.00  0.00    -0.459 C  
HETATM   17  O   UNL     1     -10.269  19.920  66.229  1.00  0.00    -0.446 OA 
HETATM   18  O   UNL     1     -10.524  19.847  68.469  1.00  0.00    -0.423 OA 
ENDBRANCH  14  15
ENDBRANCH  13  14
ENDBRANCH  12  13
ENDBRANCH  11  12
ENDBRANCH  10  11
ENDBRANCH   9  10
ENDBRANCH   8   9
ENDBRANCH   7   8
ENDBRANCH   6   7
ENDBRANCH   5   6
ENDBRANCH   4   5
ENDBRANCH   3   4
ENDBRANCH   2   3
TORSDOF 13
ENDMDL
MODEL      201
REMARK 921   NORMALIZED FREE ENERGY PREDICTED BY IDOCK:   -3.46 KCAL/MOL
REMARK 922        TOTAL FREE ENERGY PREDICTED BY IDOCK:   -7.49 KCAL/MOL
REMARK 923 INTER-LIGAND FREE ENERGY PREDICTED BY IDOCK:   -6.39 KCAL/MOL
REMARK 924 INTRA-LIGAND FREE ENERGY PREDICTED BY IDOCK:   -1.10 KCAL/MOL
REMARK 927      BINDING AFFINITY PREDICTED BY RF-SCORE:    0.00 PKD
ROOT
HETATM    1  C   UNL     1     -14.207  15.105  71.512  1.00  0.00    -0.647 C  
HETATM    2  C   UNL     1     -12.905  14.556  70.953  1.00  0.00    -0.425 C  
ENDROOT
BRANCH   2   3
HETATM    3  C   UNL     1     -11.946  15.684  70.582  1.00  0.00    -0.438 C  
BRANCH   3   4
HETATM    4  C   UNL     1     -11.460  15.541  69.142  1.00  0.00    -0.356 C  
BRANCH   4   5
HETATM    5  C   UNL     1     -12.033  14.282  68.498  1.00  0.00    -0.352 C  
BRANCH   5   6
HETATM    6  C   UNL     1     -11.962  14.367  66.977  1.00  0.00    -0.424 C  
BRANCH   6   7
HETATM    7  C   UNL     1     -11.187  13.184  66.406  1.00  0.00    -0.328 C  
BRANCH   7   8
HETATM    8  C   UNL     1     -10.455  13.581  65.129  1.00  0.00    -0.375 C  
BRANCH   8   9
HETATM    9  C   UNL     1     -11.008  12.818  63.930  1.00  0.00    -0.458 C  
BRANCH   9  10
HETATM   10  C   UNL     1     -10.963  11.315  64.180  1.00  0.00    -0.376 C  
BRANCH  10  11
HETATM   11  C   UNL     1      -9.529  10.796  64.138  1.00  0.00    -0.309 C  
BRANCH  11  12
HETATM   12  C   UNL     1      -9.348   9.634  65.109  1.00  0.00    -0.322 C  
BRANCH  12  13
HETATM   13  C   UNL     1      -9.368  10.116  66.557  1.00  0.00    -0.200 C  
BRANCH  13  14
HETATM   14  C   UNL     1     -10.243   9.206  67.416  1.00  0.00    -0.310 C  
BRANCH  14  15
HETATM   15  C   UNL     1     -10.358   7.812  66.808  1.00  0.00    -0.348 C  
HETATM   16  C   UNL     1     -10.676   6.770  67.856  1.00  0.00    -0.256 C  
HETATM   17  O   UNL     1     -10.781   5.529  67.325  1.00  0.00    -0.241 OA 
HETATM   18  O   UNL     1     -10.825   6.985  69.047  1.00  0.00    -0.222 OA 
ENDBRANCH  14  15
ENDBRANCH  13  14
ENDBRANCH  12  13
ENDBRANCH  11  12
ENDBRANCH  10  11
ENDBRANCH   9  10
ENDBRANCH   8   9
ENDBRANCH   7   8
ENDBRANCH   6   7
ENDBRANCH   5   6
ENDBRANCH   4   5
ENDBRANCH   3   4
ENDBRANCH   2   3
TORSDOF 13
ENDMDL
MODEL      202
REMARK 921   NORMALIZED FREE ENERGY PREDICTED BY IDOCK:   -3.45 KCAL/MOL
REMARK 922        TOTAL FREE ENERGY PREDICTED BY IDOCK:   -7.47 KCAL/MOL
REMARK 923 INTER-LIGAND FREE ENERGY PREDICTED BY IDOCK:   -5.99 KCAL/MOL
REMARK 924 INTRA-LIGAND FREE ENERGY PREDICTED BY IDOCK:   -1.49 KCAL/MOL
REMARK 927      BINDING AFFINITY PREDICTED BY RF-SCORE:    0.00 PKD
ROOT
HETATM    1  C   UNL     1     -10.741  14.196  66.856  1.00  0.00    -0.286 C  
HETATM    2  C   UNL     1     -12.197  13.790  66.701  1.00  0.00    -0.454 C  
ENDROOT
BRANCH   2   3
HETATM    3  C   UNL     1     -12.474  13.258  65.296  1.00  0.00    -0.543 C  
BRANCH   3   4
HETATM    4  C   UNL     1     -11.322  13.581  64.349  1.00  0.00    -0.407 C  
BRANCH   4   5
HETATM    5  C   UNL     1     -10.880  12.335  63.587  1.00  0.00    -0.522 C  
BRANCH   5   6
HETATM    6  C   UNL     1     -10.895  11.108  64.493  1.00  0.00    -0.320 C  
BRANCH   6   7
HETATM    7  C   UNL     1      -9.577  10.346  64.391  1.00  0.00    -0.375 C  
BRANCH   7   8
HETATM    8  C   UNL     1      -9.231   9.681  65.718  1.00  0.00    -0.264 C  
BRANCH   8   9
HETATM    9  C   UNL     1     -10.492   9.415  66.534  1.00  0.00    -0.199 C  
BRANCH   9  10
HETATM   10  C   UNL     1     -10.476   8.003  67.107  1.00  0.00    -0.408 C  
BRANCH  10  11
HETATM   11  C   UNL     1      -9.154   7.713  67.811  1.00  0.00    -0.131 C  
BRANCH  11  12
HETATM   12  C   UNL     1      -9.137   8.337  69.202  1.00  0.00    -0.148 C  
BRANCH  12  13
HETATM   13  C   UNL     1     -10.055   7.582  70.159  1.00  0.00    -0.195 C  
BRANCH  13  14
HETATM   14  C   UNL     1     -10.997   8.546  70.877  1.00  0.00    -0.292 C  
BRANCH  14  15
HETATM   15  C   UNL     1     -10.784   9.982  70.407  1.00  0.00    -0.369 C  
HETATM   16  C   UNL     1     -12.017  10.829  70.622  1.00  0.00    -0.367 C  
HETATM   17  O   UNL     1     -11.837  12.106  70.209  1.00  0.00    -0.329 OA 
HETATM   18  O   UNL     1     -13.068  10.441  71.107  1.00  0.00    -0.379 OA 
ENDBRANCH  14  15
ENDBRANCH  13  14
ENDBRANCH  12  13
ENDBRANCH  11  12
ENDBRANCH  10  11
ENDBRANCH   9  10
ENDBRANCH   8   9
ENDBRANCH   7   8
ENDBRANCH   6   7
ENDBRANCH   5   6
ENDBRANCH   4   5
ENDBRANCH   3   4
ENDBRANCH   2   3
TORSDOF 13
ENDMDL
MODEL      203
REMARK 921   NORMALIZED FREE ENERGY PREDICTED BY IDOCK:   -3.44 KCAL/MOL
REMARK 922        TOTAL FREE ENERGY PREDICTED BY IDOCK:   -7.46 KCAL/MOL
REMARK 923 INTER-LIGAND FREE ENERGY PREDICTED BY IDOCK:   -5.45 KCAL/MOL
REMARK 924 INTRA-LIGAND FREE ENERGY PREDICTED BY IDOCK:   -2.01 KCAL/MOL
REMARK 927      BINDING AFFINITY PREDICTED BY RF-SCORE:    0.00 PKD
ROOT
HETATM    1  C   UNL     1     -10.348   6.373  66.619  1.00  0.00    -0.223 C  
HETATM    2  C   UNL     1      -9.705   7.257  67.674  1.00  0.00    -0.173 C  
ENDROOT
BRANCH   2   3
HETATM    3  C   UNL     1     -10.101   6.814  69.080  1.00  0.00    -0.180 C  
BRANCH   3   4
HETATM    4  C   UNL     1     -10.857   7.919  69.813  1.00  0.00    -0.202 C  
BRANCH   4   5
HETATM    5  C   UNL     1      -9.887   8.931  70.416  1.00  0.00    -0.224 C  
BRANCH   5   6
HETATM    6  C   UNL     1     -10.163  10.334  69.884  1.00  0.00    -0.250 C  
BRANCH   6   7
HETATM    7  C   UNL     1     -11.559  10.415  69.274  1.00  0.00    -0.246 C  
BRANCH   7   8
HETATM    8  C   UNL     1     -11.540  11.226  67.984  1.00  0.00    -0.343 C  
BRANCH   8   9
HETATM    9  C   UNL     1     -10.269  10.947  67.189  1.00  0.00    -0.249 C  
BRANCH   9  10
HETATM   10  C   UNL     1     -10.604  10.366  65.820  1.00  0.00    -0.100 C  
BRANCH  10  11
HETATM   11  C   UNL     1      -9.486  10.642  64.820  1.00  0.00    -0.306 C  
BRANCH  11  12
HETATM   12  C   UNL     1      -9.911  11.710  63.818  1.00  0.00    -0.378 C  
BRANCH  12  13
HETATM   13  C   UNL     1     -11.431  11.771  63.686  1.00  0.00    -0.524 C  
BRANCH  13  14
HETATM   14  C   UNL     1     -11.919  13.217  63.740  1.00  0.00    -0.572 C  
BRANCH  14  15
HETATM   15  C   UNL     1     -12.489  13.559  65.113  1.00  0.00    -0.495 C  
HETATM   16  C   UNL     1     -11.547  14.435  65.906  1.00  0.00    -0.361 C  
HETATM   17  O   UNL     1     -12.045  14.745  67.126  1.00  0.00    -0.308 OA 
HETATM   18  O   UNL     1     -10.459  14.833  65.525  1.00  0.00    -0.311 OA 
ENDBRANCH  14  15
ENDBRANCH  13  14
ENDBRANCH  12  13
ENDBRANCH  11  12
ENDBRANCH  10  11
ENDBRANCH   9  10
ENDBRANCH   8   9
ENDBRANCH   7   8
ENDBRANCH   6   7
ENDBRANCH   5   6
ENDBRANCH   4   5
ENDBRANCH   3   4
ENDBRANCH   2   3
TORSDOF 13
ENDMDL
MODEL      204
REMARK 921   NORMALIZED FREE ENERGY PREDICTED BY IDOCK:   -3.43 KCAL/MOL
REMARK 922        TOTAL FREE ENERGY PREDICTED BY IDOCK:   -7.45 KCAL/MOL
REMARK 923 INTER-LIGAND FREE ENERGY PREDICTED BY IDOCK:   -6.19 KCAL/MOL
REMARK 924 INTRA-LIGAND FREE ENERGY PREDICTED BY IDOCK:   -1.26 KCAL/MOL
REMARK 927      BINDING AFFINITY PREDICTED BY RF-SCORE:    0.00 PKD
ROOT
HETATM    1  C   UNL     1      -7.353  14.360  67.471  1.00  0.00    -0.208 C  
HETATM    2  C   UNL     1      -7.524  15.869  67.506  1.00  0.00    -0.194 C  
ENDROOT
BRANCH   2   3
HETATM    3  C   UNL     1      -8.217  16.374  66.243  1.00  0.00    -0.343 C  
BRANCH   3   4
HETATM    4  C   UNL     1      -9.391  15.476  65.863  1.00  0.00    -0.355 C  
BRANCH   4   5
HETATM    5  C   UNL     1     -10.678  15.954  66.531  1.00  0.00    -0.258 C  
BRANCH   5   6
HETATM    6  C   UNL     1     -11.309  14.839  67.358  1.00  0.00    -0.361 C  
BRANCH   6   7
HETATM    7  C   UNL     1     -12.076  13.872  66.462  1.00  0.00    -0.484 C  
BRANCH   7   8
HETATM    8  C   UNL     1     -11.773  12.427  66.840  1.00  0.00    -0.432 C  
BRANCH   8   9
HETATM    9  C   UNL     1     -10.350  12.296  67.373  1.00  0.00    -0.219 C  
BRANCH   9  10
HETATM   10  C   UNL     1     -10.308  11.362  68.578  1.00  0.00    -0.219 C  
BRANCH  10  11
HETATM   11  C   UNL     1     -11.717  11.010  69.046  1.00  0.00    -0.402 C  
BRANCH  11  12
HETATM   12  C   UNL     1     -11.728  10.711  70.541  1.00  0.00    -0.451 C  
BRANCH  12  13
HETATM   13  C   UNL     1     -13.148  10.484  71.050  1.00  0.00    -0.419 C  
BRANCH  13  14
HETATM   14  C   UNL     1     -13.163   9.435  72.160  1.00  0.00    -0.541 C  
BRANCH  14  15
HETATM   15  C   UNL     1     -12.985   8.029  71.597  1.00  0.00    -0.351 C  
HETATM   16  C   UNL     1     -11.786   7.333  72.197  1.00  0.00    -0.285 C  
HETATM   17  O   UNL     1     -11.621   6.083  71.704  1.00  0.00    -0.277 OA 
HETATM   18  O   UNL     1     -11.032   7.811  73.030  1.00  0.00    -0.386 OA 
ENDBRANCH  14  15
ENDBRANCH  13  14
ENDBRANCH  12  13
ENDBRANCH  11  12
ENDBRANCH  10  11
ENDBRANCH   9  10
ENDBRANCH   8   9
ENDBRANCH   7   8
ENDBRANCH   6   7
ENDBRANCH   5   6
ENDBRANCH   4   5
ENDBRANCH   3   4
ENDBRANCH   2   3
TORSDOF 13
ENDMDL
MODEL      205
REMARK 921   NORMALIZED FREE ENERGY PREDICTED BY IDOCK:   -3.43 KCAL/MOL
REMARK 922        TOTAL FREE ENERGY PREDICTED BY IDOCK:   -7.45 KCAL/MOL
REMARK 923 INTER-LIGAND FREE ENERGY PREDICTED BY IDOCK:   -5.78 KCAL/MOL
REMARK 924 INTRA-LIGAND FREE ENERGY PREDICTED BY IDOCK:   -1.67 KCAL/MOL
REMARK 927      BINDING AFFINITY PREDICTED BY RF-SCORE:    0.00 PKD
ROOT
HETATM    1  C   UNL     1     -10.645   6.669  73.351  1.00  0.00    -0.333 C  
HETATM    2  C   UNL     1     -11.170   5.615  72.391  1.00  0.00    -0.336 C  
ENDROOT
BRANCH   2   3
HETATM    3  C   UNL     1     -10.984   6.049  70.940  1.00  0.00    -0.355 C  
BRANCH   3   4
HETATM    4  C   UNL     1      -9.991   5.143  70.218  1.00  0.00    -0.320 C  
BRANCH   4   5
HETATM    5  C   UNL     1      -9.999   5.417  68.716  1.00  0.00    -0.235 C  
BRANCH   5   6
HETATM    6  C   UNL     1     -11.155   6.336  68.336  1.00  0.00    -0.371 C  
BRANCH   6   7
HETATM    7  C   UNL     1     -10.840   7.096  67.052  1.00  0.00    -0.382 C  
BRANCH   7   8
HETATM    8  C   UNL     1      -9.766   8.149  67.295  1.00  0.00    -0.233 C  
BRANCH   8   9
HETATM    9  C   UNL     1      -9.758   9.182  66.173  1.00  0.00    -0.357 C  
BRANCH   9  10
HETATM   10  C   UNL     1      -9.804  10.596  66.740  1.00  0.00    -0.240 C  
BRANCH  10  11
HETATM   11  C   UNL     1     -11.160  10.886  67.377  1.00  0.00    -0.373 C  
BRANCH  11  12
HETATM   12  C   UNL     1     -11.038  11.991  68.422  1.00  0.00    -0.290 C  
BRANCH  12  13
HETATM   13  C   UNL     1     -11.653  11.564  69.752  1.00  0.00    -0.401 C  
BRANCH  13  14
HETATM   14  C   UNL     1     -11.612  10.045  69.903  1.00  0.00    -0.237 C  
BRANCH  14  15
HETATM   15  C   UNL     1     -11.739   9.630  71.366  1.00  0.00    -0.478 C  
HETATM   16  C   UNL     1     -13.168   9.303  71.731  1.00  0.00    -0.403 C  
HETATM   17  O   UNL     1     -13.292   8.932  73.027  1.00  0.00    -0.308 OA 
HETATM   18  O   UNL     1     -14.124   9.356  70.974  1.00  0.00    -0.123 OA 
ENDBRANCH  14  15
ENDBRANCH  13  14
ENDBRANCH  12  13
ENDBRANCH  11  12
ENDBRANCH  10  11
ENDBRANCH   9  10
ENDBRANCH   8   9
ENDBRANCH   7   8
ENDBRANCH   6   7
ENDBRANCH   5   6
ENDBRANCH   4   5
ENDBRANCH   3   4
ENDBRANCH   2   3
TORSDOF 13
ENDMDL
MODEL      206
REMARK 921   NORMALIZED FREE ENERGY PREDICTED BY IDOCK:   -3.42 KCAL/MOL
REMARK 922        TOTAL FREE ENERGY PREDICTED BY IDOCK:   -7.43 KCAL/MOL
REMARK 923 INTER-LIGAND FREE ENERGY PREDICTED BY IDOCK:   -6.36 KCAL/MOL
REMARK 924 INTRA-LIGAND FREE ENERGY PREDICTED BY IDOCK:   -1.08 KCAL/MOL
REMARK 927      BINDING AFFINITY PREDICTED BY RF-SCORE:    0.00 PKD
ROOT
HETATM    1  C   UNL     1     -10.878   6.021  68.921  1.00  0.00    -0.400 C  
HETATM    2  C   UNL     1     -10.121   7.322  68.715  1.00  0.00    -0.179 C  
ENDROOT
BRANCH   2   3
HETATM    3  C   UNL     1     -10.252   7.814  67.276  1.00  0.00    -0.343 C  
BRANCH   3   4
HETATM    4  C   UNL     1      -8.930   8.377  66.763  1.00  0.00    -0.172 C  
BRANCH   4   5
HETATM    5  C   UNL     1      -9.097   8.972  65.368  1.00  0.00    -0.250 C  
BRANCH   5   6
HETATM    6  C   UNL     1      -9.053  10.495  65.416  1.00  0.00    -0.215 C  
BRANCH   6   7
HETATM    7  C   UNL     1     -10.436  11.084  65.158  1.00  0.00    -0.329 C  
BRANCH   7   8
HETATM    8  C   UNL     1     -10.591  11.481  63.695  1.00  0.00    -0.491 C  
BRANCH   8   9
HETATM    9  C   UNL     1     -11.676  12.541  63.534  1.00  0.00    -0.595 C  
BRANCH   9  10
HETATM   10  C   UNL     1     -12.483  12.686  64.819  1.00  0.00    -0.555 C  
BRANCH  10  11
HETATM   11  C   UNL     1     -12.520  14.139  65.281  1.00  0.00    -0.474 C  
BRANCH  11  12
HETATM   12  C   UNL     1     -11.159  14.799  65.092  1.00  0.00    -0.389 C  
BRANCH  12  13
HETATM   13  C   UNL     1     -10.668  15.438  66.389  1.00  0.00    -0.311 C  
BRANCH  13  14
HETATM   14  C   UNL     1     -10.860  14.484  67.566  1.00  0.00    -0.289 C  
BRANCH  14  15
HETATM   15  C   UNL     1     -11.670  15.138  68.682  1.00  0.00    -0.364 C  
HETATM   16  C   UNL     1     -10.777  15.726  69.749  1.00  0.00    -0.316 C  
HETATM   17  O   UNL     1     -11.486  16.310  70.743  1.00  0.00    -0.401 OA 
HETATM   18  O   UNL     1      -9.557  15.697  69.748  1.00  0.00    -0.281 OA 
ENDBRANCH  14  15
ENDBRANCH  13  14
ENDBRANCH  12  13
ENDBRANCH  11  12
ENDBRANCH  10  11
ENDBRANCH   9  10
ENDBRANCH   8   9
ENDBRANCH   7   8
ENDBRANCH   6   7
ENDBRANCH   5   6
ENDBRANCH   4   5
ENDBRANCH   3   4
ENDBRANCH   2   3
TORSDOF 13
ENDMDL
MODEL      207
REMARK 921   NORMALIZED FREE ENERGY PREDICTED BY IDOCK:   -3.42 KCAL/MOL
REMARK 922        TOTAL FREE ENERGY PREDICTED BY IDOCK:   -7.43 KCAL/MOL
REMARK 923 INTER-LIGAND FREE ENERGY PREDICTED BY IDOCK:   -5.04 KCAL/MOL
REMARK 924 INTRA-LIGAND FREE ENERGY PREDICTED BY IDOCK:   -2.39 KCAL/MOL
REMARK 927      BINDING AFFINITY PREDICTED BY RF-SCORE:    0.00 PKD
ROOT
HETATM    1  C   UNL     1     -10.460  11.818  63.485  1.00  0.00    -0.500 C  
HETATM    2  C   UNL     1     -11.491  12.848  63.915  1.00  0.00    -0.504 C  
ENDROOT
BRANCH   2   3
HETATM    3  C   UNL     1     -10.902  13.825  64.930  1.00  0.00    -0.398 C  
BRANCH   3   4
HETATM    4  C   UNL     1     -11.939  14.218  65.979  1.00  0.00    -0.412 C  
BRANCH   4   5
HETATM    5  C   UNL     1     -12.138  13.094  66.992  1.00  0.00    -0.366 C  
BRANCH   5   6
HETATM    6  C   UNL     1     -11.895  13.592  68.414  1.00  0.00    -0.408 C  
BRANCH   6   7
HETATM    7  C   UNL     1     -11.911  15.116  68.461  1.00  0.00    -0.307 C  
BRANCH   7   8
HETATM    8  C   UNL     1     -10.711  15.646  69.238  1.00  0.00    -0.239 C  
BRANCH   8   9
HETATM    9  C   UNL     1      -9.823  16.503  68.342  1.00  0.00    -0.237 C  
BRANCH   9  10
HETATM   10  C   UNL     1      -8.656  15.687  67.799  1.00  0.00    -0.168 C  
BRANCH  10  11
HETATM   11  C   UNL     1      -8.003  14.864  68.905  1.00  0.00    -0.163 C  
BRANCH  11  12
HETATM   12  C   UNL     1      -7.773  13.428  68.443  1.00  0.00    -0.138 C  
BRANCH  12  13
HETATM   13  C   UNL     1      -8.415  13.175  67.082  1.00  0.00    -0.173 C  
BRANCH  13  14
HETATM   14  C   UNL     1      -8.416  11.684  66.755  1.00  0.00    -0.177 C  
BRANCH  14  15
HETATM   15  C   UNL     1      -9.390  10.922  67.649  1.00  0.00    -0.163 C  
HETATM   16  C   UNL     1     -10.062   9.790  66.906  1.00  0.00    -0.226 C  
HETATM   17  O   UNL     1     -10.927   9.106  67.691  1.00  0.00    -0.173 OA 
HETATM   18  O   UNL     1      -9.872   9.499  65.736  1.00  0.00    -0.285 OA 
ENDBRANCH  14  15
ENDBRANCH  13  14
ENDBRANCH  12  13
ENDBRANCH  11  12
ENDBRANCH  10  11
ENDBRANCH   9  10
ENDBRANCH   8   9
ENDBRANCH   7   8
ENDBRANCH   6   7
ENDBRANCH   5   6
ENDBRANCH   4   5
ENDBRANCH   3   4
ENDBRANCH   2   3
TORSDOF 13
ENDMDL
MODEL      208
REMARK 921   NORMALIZED FREE ENERGY PREDICTED BY IDOCK:   -3.42 KCAL/MOL
REMARK 922        TOTAL FREE ENERGY PREDICTED BY IDOCK:   -7.43 KCAL/MOL
REMARK 923 INTER-LIGAND FREE ENERGY PREDICTED BY IDOCK:   -6.13 KCAL/MOL
REMARK 924 INTRA-LIGAND FREE ENERGY PREDICTED BY IDOCK:   -1.30 KCAL/MOL
REMARK 927      BINDING AFFINITY PREDICTED BY RF-SCORE:    0.00 PKD
ROOT
HETATM    1  C   UNL     1     -13.669  13.227  72.229  1.00  0.00    -0.686 C  
HETATM    2  C   UNL     1     -13.653  14.519  71.429  1.00  0.00    -0.452 C  
ENDROOT
BRANCH   2   3
HETATM    3  C   UNL     1     -12.657  15.517  72.015  1.00  0.00    -0.481 C  
BRANCH   3   4
HETATM    4  C   UNL     1     -11.687  16.018  70.948  1.00  0.00    -0.438 C  
BRANCH   4   5
HETATM    5  C   UNL     1     -11.892  15.268  69.634  1.00  0.00    -0.363 C  
BRANCH   5   6
HETATM    6  C   UNL     1     -10.584  15.163  68.857  1.00  0.00    -0.242 C  
BRANCH   6   7
HETATM    7  C   UNL     1     -10.302  13.716  68.467  1.00  0.00    -0.244 C  
BRANCH   7   8
HETATM    8  C   UNL     1     -11.441  13.149  67.628  1.00  0.00    -0.366 C  
BRANCH   8   9
HETATM    9  C   UNL     1     -12.023  11.899  68.281  1.00  0.00    -0.235 C  
BRANCH   9  10
HETATM   10  C   UNL     1     -11.171  11.464  69.468  1.00  0.00    -0.322 C  
BRANCH  10  11
HETATM   11  C   UNL     1     -11.259   9.955  69.680  1.00  0.00    -0.251 C  
BRANCH  11  12
HETATM   12  C   UNL     1     -12.334   9.618  70.708  1.00  0.00    -0.279 C  
BRANCH  12  13
HETATM   13  C   UNL     1     -11.715   9.157  72.025  1.00  0.00    -0.384 C  
BRANCH  13  14
HETATM   14  C   UNL     1     -10.699   8.043  71.782  1.00  0.00    -0.296 C  
BRANCH  14  15
HETATM   15  C   UNL     1      -9.300   8.465  72.219  1.00  0.00    -0.356 C  
HETATM   16  C   UNL     1      -8.946   7.904  73.577  1.00  0.00    -0.281 C  
HETATM   17  O   UNL     1      -7.704   8.272  73.973  1.00  0.00    -0.191 OA 
HETATM   18  O   UNL     1      -9.668   7.201  74.264  1.00  0.00    -0.263 OA 
ENDBRANCH  14  15
ENDBRANCH  13  14
ENDBRANCH  12  13
ENDBRANCH  11  12
ENDBRANCH  10  11
ENDBRANCH   9  10
ENDBRANCH   8   9
ENDBRANCH   7   8
ENDBRANCH   6   7
ENDBRANCH   5   6
ENDBRANCH   4   5
ENDBRANCH   3   4
ENDBRANCH   2   3
TORSDOF 13
ENDMDL
MODEL      209
REMARK 921   NORMALIZED FREE ENERGY PREDICTED BY IDOCK:   -3.42 KCAL/MOL
REMARK 922        TOTAL FREE ENERGY PREDICTED BY IDOCK:   -7.42 KCAL/MOL
REMARK 923 INTER-LIGAND FREE ENERGY PREDICTED BY IDOCK:   -5.64 KCAL/MOL
REMARK 924 INTRA-LIGAND FREE ENERGY PREDICTED BY IDOCK:   -1.78 KCAL/MOL
REMARK 927      BINDING AFFINITY PREDICTED BY RF-SCORE:    0.00 PKD
ROOT
HETATM    1  C   UNL     1      -9.363  10.217  65.034  1.00  0.00    -0.290 C  
HETATM    2  C   UNL     1     -10.680  10.972  65.009  1.00  0.00    -0.264 C  
ENDROOT
BRANCH   2   3
HETATM    3  C   UNL     1     -10.897  11.659  63.663  1.00  0.00    -0.503 C  
BRANCH   3   4
HETATM    4  C   UNL     1     -12.154  12.524  63.682  1.00  0.00    -0.642 C  
BRANCH   4   5
HETATM    5  C   UNL     1     -12.521  12.916  65.111  1.00  0.00    -0.561 C  
BRANCH   5   6
HETATM    6  C   UNL     1     -11.955  14.288  65.462  1.00  0.00    -0.386 C  
BRANCH   6   7
HETATM    7  C   UNL     1     -11.252  14.252  66.815  1.00  0.00    -0.337 C  
BRANCH   7   8
HETATM    8  C   UNL     1     -12.130  13.579  67.864  1.00  0.00    -0.304 C  
BRANCH   8   9
HETATM    9  C   UNL     1     -11.356  12.490  68.598  1.00  0.00    -0.329 C  
BRANCH   9  10
HETATM   10  C   UNL     1      -9.865  12.588  68.294  1.00  0.00    -0.227 C  
BRANCH  10  11
HETATM   11  C   UNL     1      -9.118  11.365  68.817  1.00  0.00    -0.096 C  
BRANCH  11  12
HETATM   12  C   UNL     1     -10.019  10.134  68.796  1.00  0.00    -0.187 C  
BRANCH  12  13
HETATM   13  C   UNL     1      -9.200   8.848  68.862  1.00  0.00    -0.140 C  
BRANCH  13  14
HETATM   14  C   UNL     1      -9.734   7.924  69.954  1.00  0.00    -0.176 C  
BRANCH  14  15
HETATM   15  C   UNL     1     -11.154   8.308  70.359  1.00  0.00    -0.238 C  
HETATM   16  C   UNL     1     -11.887   7.149  70.992  1.00  0.00    -0.333 C  
HETATM   17  O   UNL     1     -13.148   7.481  71.357  1.00  0.00    -0.351 OA 
HETATM   18  O   UNL     1     -11.429   6.032  71.169  1.00  0.00    -0.279 OA 
ENDBRANCH  14  15
ENDBRANCH  13  14
ENDBRANCH  12  13
ENDBRANCH  11  12
ENDBRANCH  10  11
ENDBRANCH   9  10
ENDBRANCH   8   9
ENDBRANCH   7   8
ENDBRANCH   6   7
ENDBRANCH   5   6
ENDBRANCH   4   5
ENDBRANCH   3   4
ENDBRANCH   2   3
TORSDOF 13
ENDMDL
MODEL      210
REMARK 921   NORMALIZED FREE ENERGY PREDICTED BY IDOCK:   -3.41 KCAL/MOL
REMARK 922        TOTAL FREE ENERGY PREDICTED BY IDOCK:   -7.41 KCAL/MOL
REMARK 923 INTER-LIGAND FREE ENERGY PREDICTED BY IDOCK:   -5.92 KCAL/MOL
REMARK 924 INTRA-LIGAND FREE ENERGY PREDICTED BY IDOCK:   -1.49 KCAL/MOL
REMARK 927      BINDING AFFINITY PREDICTED BY RF-SCORE:    0.00 PKD
ROOT
HETATM    1  C   UNL     1     -10.836  12.047  68.521  1.00  0.00    -0.267 C  
HETATM    2  C   UNL     1      -9.690  11.638  67.611  1.00  0.00    -0.186 C  
ENDROOT
BRANCH   2   3
HETATM    3  C   UNL     1      -9.611  10.119  67.473  1.00  0.00    -0.180 C  
BRANCH   3   4
HETATM    4  C   UNL     1     -10.044   9.669  66.081  1.00  0.00    -0.328 C  
BRANCH   4   5
HETATM    5  C   UNL     1      -9.442  10.572  65.007  1.00  0.00    -0.296 C  
BRANCH   5   6
HETATM    6  C   UNL     1     -10.392  10.719  63.823  1.00  0.00    -0.294 C  
BRANCH   6   7
HETATM    7  C   UNL     1     -10.447  12.169  63.352  1.00  0.00    -0.450 C  
BRANCH   7   8
HETATM    8  C   UNL     1     -11.864  12.719  63.458  1.00  0.00    -0.618 C  
BRANCH   8   9
HETATM    9  C   UNL     1     -12.313  12.780  64.915  1.00  0.00    -0.551 C  
BRANCH   9  10
HETATM   10  C   UNL     1     -12.486  14.226  65.366  1.00  0.00    -0.434 C  
BRANCH  10  11
HETATM   11  C   UNL     1     -11.297  15.080  64.935  1.00  0.00    -0.419 C  
BRANCH  11  12
HETATM   12  C   UNL     1     -10.114  14.869  65.874  1.00  0.00    -0.348 C  
BRANCH  12  13
HETATM   13  C   UNL     1      -9.711  16.172  66.558  1.00  0.00    -0.282 C  
BRANCH  13  14
HETATM   14  C   UNL     1      -8.215  16.429  66.390  1.00  0.00    -0.366 C  
BRANCH  14  15
HETATM   15  C   UNL     1      -7.419  15.844  67.553  1.00  0.00    -0.194 C  
HETATM   16  C   UNL     1      -7.211  16.859  68.653  1.00  0.00    -0.215 C  
HETATM   17  O   UNL     1      -6.506  16.348  69.691  1.00  0.00    -0.210 OA 
HETATM   18  O   UNL     1      -7.614  18.010  68.642  1.00  0.00    -0.280 OA 
ENDBRANCH  14  15
ENDBRANCH  13  14
ENDBRANCH  12  13
ENDBRANCH  11  12
ENDBRANCH  10  11
ENDBRANCH   9  10
ENDBRANCH   8   9
ENDBRANCH   7   8
ENDBRANCH   6   7
ENDBRANCH   5   6
ENDBRANCH   4   5
ENDBRANCH   3   4
ENDBRANCH   2   3
TORSDOF 13
ENDMDL
MODEL      211
REMARK 921   NORMALIZED FREE ENERGY PREDICTED BY IDOCK:   -3.41 KCAL/MOL
REMARK 922        TOTAL FREE ENERGY PREDICTED BY IDOCK:   -7.41 KCAL/MOL
REMARK 923 INTER-LIGAND FREE ENERGY PREDICTED BY IDOCK:   -5.79 KCAL/MOL
REMARK 924 INTRA-LIGAND FREE ENERGY PREDICTED BY IDOCK:   -1.62 KCAL/MOL
REMARK 927      BINDING AFFINITY PREDICTED BY RF-SCORE:    0.00 PKD
ROOT
HETATM    1  C   UNL     1     -14.407   7.455  71.474  1.00  0.00    -0.594 C  
HETATM    2  C   UNL     1     -12.906   7.231  71.398  1.00  0.00    -0.425 C  
ENDROOT
BRANCH   2   3
HETATM    3  C   UNL     1     -12.156   8.219  72.288  1.00  0.00    -0.439 C  
BRANCH   3   4
HETATM    4  C   UNL     1     -11.031   7.526  73.052  1.00  0.00    -0.443 C  
BRANCH   4   5
HETATM    5  C   UNL     1      -9.680   8.149  72.710  1.00  0.00    -0.351 C  
BRANCH   5   6
HETATM    6  C   UNL     1      -8.906   7.269  71.734  1.00  0.00    -0.124 C  
BRANCH   6   7
HETATM    7  C   UNL     1      -7.793   8.064  71.058  1.00  0.00    -0.090 C  
BRANCH   7   8
HETATM    8  C   UNL     1      -8.283   8.680  69.753  1.00  0.00    -0.121 C  
BRANCH   8   9
HETATM    9  C   UNL     1      -9.497   7.926  69.222  1.00  0.00    -0.152 C  
BRANCH   9  10
HETATM   10  C   UNL     1     -10.539   8.896  68.678  1.00  0.00    -0.182 C  
BRANCH  10  11
HETATM   11  C   UNL     1     -10.686  10.111  69.589  1.00  0.00    -0.295 C  
BRANCH  11  12
HETATM   12  C   UNL     1     -11.941  10.901  69.235  1.00  0.00    -0.382 C  
BRANCH  12  13
HETATM   13  C   UNL     1     -11.674  11.881  68.096  1.00  0.00    -0.388 C  
BRANCH  13  14
HETATM   14  C   UNL     1     -11.004  13.149  68.620  1.00  0.00    -0.296 C  
BRANCH  14  15
HETATM   15  C   UNL     1     -11.739  13.702  69.838  1.00  0.00    -0.346 C  
HETATM   16  C   UNL     1     -12.134  15.147  69.642  1.00  0.00    -0.304 C  
HETATM   17  O   UNL     1     -12.789  15.646  70.717  1.00  0.00    -0.469 OA 
HETATM   18  O   UNL     1     -11.906  15.816  68.648  1.00  0.00    -0.385 OA 
ENDBRANCH  14  15
ENDBRANCH  13  14
ENDBRANCH  12  13
ENDBRANCH  11  12
ENDBRANCH  10  11
ENDBRANCH   9  10
ENDBRANCH   8   9
ENDBRANCH   7   8
ENDBRANCH   6   7
ENDBRANCH   5   6
ENDBRANCH   4   5
ENDBRANCH   3   4
ENDBRANCH   2   3
TORSDOF 13
ENDMDL
MODEL      212
REMARK 921   NORMALIZED FREE ENERGY PREDICTED BY IDOCK:   -3.41 KCAL/MOL
REMARK 922        TOTAL FREE ENERGY PREDICTED BY IDOCK:   -7.40 KCAL/MOL
REMARK 923 INTER-LIGAND FREE ENERGY PREDICTED BY IDOCK:   -6.10 KCAL/MOL
REMARK 924 INTRA-LIGAND FREE ENERGY PREDICTED BY IDOCK:   -1.30 KCAL/MOL
REMARK 927      BINDING AFFINITY PREDICTED BY RF-SCORE:    0.00 PKD
ROOT
HETATM    1  C   UNL     1     -11.661   6.456  71.512  1.00  0.00    -0.369 C  
HETATM    2  C   UNL     1     -10.559   5.710  70.779  1.00  0.00    -0.335 C  
ENDROOT
BRANCH   2   3
HETATM    3  C   UNL     1     -10.649   5.939  69.272  1.00  0.00    -0.379 C  
BRANCH   3   4
HETATM    4  C   UNL     1      -9.293   5.733  68.603  1.00  0.00    -0.136 C  
BRANCH   4   5
HETATM    5  C   UNL     1      -9.136   6.659  67.400  1.00  0.00    -0.120 C  
BRANCH   5   6
HETATM    6  C   UNL     1     -10.362   7.551  67.234  1.00  0.00    -0.366 C  
BRANCH   6   7
HETATM    7  C   UNL     1      -9.961   8.926  66.710  1.00  0.00    -0.338 C  
BRANCH   7   8
HETATM    8  C   UNL     1      -9.949   9.953  67.837  1.00  0.00    -0.190 C  
BRANCH   8   9
HETATM    9  C   UNL     1     -10.617   9.390  69.088  1.00  0.00    -0.234 C  
BRANCH   9  10
HETATM   10  C   UNL     1     -10.894  10.498  70.096  1.00  0.00    -0.291 C  
BRANCH  10  11
HETATM   11  C   UNL     1     -12.134  11.297  69.705  1.00  0.00    -0.391 C  
BRANCH  11  12
HETATM   12  C   UNL     1     -12.140  12.655  70.397  1.00  0.00    -0.381 C  
BRANCH  12  13
HETATM   13  C   UNL     1     -11.753  13.771  69.431  1.00  0.00    -0.379 C  
BRANCH  13  14
HETATM   14  C   UNL     1     -11.998  13.342  67.986  1.00  0.00    -0.357 C  
BRANCH  14  15
HETATM   15  C   UNL     1     -11.260  14.249  67.006  1.00  0.00    -0.332 C  
HETATM   16  C   UNL     1     -12.007  14.385  65.699  1.00  0.00    -0.354 C  
HETATM   17  O   UNL     1     -11.361  15.189  64.823  1.00  0.00    -0.400 OA 
HETATM   18  O   UNL     1     -13.069  13.847  65.430  1.00  0.00    -0.752 OA 
ENDBRANCH  14  15
ENDBRANCH  13  14
ENDBRANCH  12  13
ENDBRANCH  11  12
ENDBRANCH  10  11
ENDBRANCH   9  10
ENDBRANCH   8   9
ENDBRANCH   7   8
ENDBRANCH   6   7
ENDBRANCH   5   6
ENDBRANCH   4   5
ENDBRANCH   3   4
ENDBRANCH   2   3
TORSDOF 13
ENDMDL
MODEL      213
REMARK 921   NORMALIZED FREE ENERGY PREDICTED BY IDOCK:   -3.40 KCAL/MOL
REMARK 922        TOTAL FREE ENERGY PREDICTED BY IDOCK:   -7.39 KCAL/MOL
REMARK 923 INTER-LIGAND FREE ENERGY PREDICTED BY IDOCK:   -6.20 KCAL/MOL
REMARK 924 INTRA-LIGAND FREE ENERGY PREDICTED BY IDOCK:   -1.19 KCAL/MOL
REMARK 927      BINDING AFFINITY PREDICTED BY RF-SCORE:    0.00 PKD
ROOT
HETATM    1  C   UNL     1     -10.989  12.074  67.475  1.00  0.00    -0.303 C  
HETATM    2  C   UNL     1     -10.124  10.864  67.782  1.00  0.00    -0.203 C  
ENDROOT
BRANCH   2   3
HETATM    3  C   UNL     1     -10.878   9.852  68.643  1.00  0.00    -0.244 C  
BRANCH   3   4
HETATM    4  C   UNL     1     -10.202   9.672  69.999  1.00  0.00    -0.296 C  
BRANCH   4   5
HETATM    5  C   UNL     1     -11.232   9.678  71.124  1.00  0.00    -0.454 C  
BRANCH   5   6
HETATM    6  C   UNL     1     -12.523  10.357  70.677  1.00  0.00    -0.437 C  
BRANCH   6   7
HETATM    7  C   UNL     1     -12.794  11.604  71.512  1.00  0.00    -0.469 C  
BRANCH   7   8
HETATM    8  C   UNL     1     -12.336  12.858  70.777  1.00  0.00    -0.385 C  
BRANCH   8   9
HETATM    9  C   UNL     1     -12.896  14.110  71.444  1.00  0.00    -0.428 C  
BRANCH   9  10
HETATM   10  C   UNL     1     -12.207  15.360  70.910  1.00  0.00    -0.425 C  
BRANCH  10  11
HETATM   11  C   UNL     1     -11.142  15.000  69.877  1.00  0.00    -0.298 C  
BRANCH  11  12
HETATM   12  C   UNL     1     -10.187  16.168  69.659  1.00  0.00    -0.243 C  
BRANCH  12  13
HETATM   13  C   UNL     1     -10.722  17.131  68.603  1.00  0.00    -0.306 C  
BRANCH  13  14
HETATM   14  C   UNL     1      -9.697  18.221  68.297  1.00  0.00    -0.350 C  
BRANCH  14  15
HETATM   15  C   UNL     1      -8.587  17.699  67.390  1.00  0.00    -0.229 C  
HETATM   16  C   UNL     1      -8.246  18.688  66.300  1.00  0.00    -0.237 C  
HETATM   17  O   UNL     1      -7.260  18.235  65.490  1.00  0.00    -0.536 OA 
HETATM   18  O   UNL     1      -8.775  19.776  66.138  1.00  0.00    -0.362 OA 
ENDBRANCH  14  15
ENDBRANCH  13  14
ENDBRANCH  12  13
ENDBRANCH  11  12
ENDBRANCH  10  11
ENDBRANCH   9  10
ENDBRANCH   8   9
ENDBRANCH   7   8
ENDBRANCH   6   7
ENDBRANCH   5   6
ENDBRANCH   4   5
ENDBRANCH   3   4
ENDBRANCH   2   3
TORSDOF 13
ENDMDL
MODEL      214
REMARK 921   NORMALIZED FREE ENERGY PREDICTED BY IDOCK:   -3.40 KCAL/MOL
REMARK 922        TOTAL FREE ENERGY PREDICTED BY IDOCK:   -7.39 KCAL/MOL
REMARK 923 INTER-LIGAND FREE ENERGY PREDICTED BY IDOCK:   -6.78 KCAL/MOL
REMARK 924 INTRA-LIGAND FREE ENERGY PREDICTED BY IDOCK:   -0.61 KCAL/MOL
REMARK 927      BINDING AFFINITY PREDICTED BY RF-SCORE:    0.00 PKD
ROOT
HETATM    1  C   UNL     1      -8.817   9.597  66.010  1.00  0.00    -0.178 C  
HETATM    2  C   UNL     1      -9.415   9.920  64.651  1.00  0.00    -0.343 C  
ENDROOT
BRANCH   2   3
HETATM    3  C   UNL     1     -10.503  10.985  64.767  1.00  0.00    -0.384 C  
BRANCH   3   4
HETATM    4  C   UNL     1     -10.503  11.907  63.551  1.00  0.00    -0.505 C  
BRANCH   4   5
HETATM    5  C   UNL     1     -11.788  12.728  63.492  1.00  0.00    -0.618 C  
BRANCH   5   6
HETATM    6  C   UNL     1     -12.497  12.728  64.842  1.00  0.00    -0.563 C  
BRANCH   6   7
HETATM    7  C   UNL     1     -12.373  14.091  65.516  1.00  0.00    -0.503 C  
BRANCH   7   8
HETATM    8  C   UNL     1     -11.584  15.058  64.642  1.00  0.00    -0.386 C  
BRANCH   8   9
HETATM    9  C   UNL     1     -10.607  15.873  65.483  1.00  0.00    -0.419 C  
BRANCH   9  10
HETATM   10  C   UNL     1     -10.678  15.456  66.947  1.00  0.00    -0.314 C  
BRANCH  10  11
HETATM   11  C   UNL     1     -10.474  16.656  67.868  1.00  0.00    -0.322 C  
BRANCH  11  12
HETATM   12  C   UNL     1      -8.998  17.031  67.944  1.00  0.00    -0.228 C  
BRANCH  12  13
HETATM   13  C   UNL     1      -8.806  18.391  68.610  1.00  0.00    -0.306 C  
BRANCH  13  14
HETATM   14  C   UNL     1      -7.985  19.317  67.717  1.00  0.00    -0.312 C  
BRANCH  14  15
HETATM   15  C   UNL     1      -8.622  19.468  66.339  1.00  0.00    -0.384 C  
HETATM   16  C   UNL     1     -10.024  20.024  66.430  1.00  0.00    -0.481 C  
HETATM   17  O   UNL     1     -10.598  20.163  65.212  1.00  0.00    -0.272 OA 
HETATM   18  O   UNL     1     -10.603  20.323  67.462  1.00  0.00    -0.261 OA 
ENDBRANCH  14  15
ENDBRANCH  13  14
ENDBRANCH  12  13
ENDBRANCH  11  12
ENDBRANCH  10  11
ENDBRANCH   9  10
ENDBRANCH   8   9
ENDBRANCH   7   8
ENDBRANCH   6   7
ENDBRANCH   5   6
ENDBRANCH   4   5
ENDBRANCH   3   4
ENDBRANCH   2   3
TORSDOF 13
ENDMDL
MODEL      215
REMARK 921   NORMALIZED FREE ENERGY PREDICTED BY IDOCK:   -3.40 KCAL/MOL
REMARK 922        TOTAL FREE ENERGY PREDICTED BY IDOCK:   -7.39 KCAL/MOL
REMARK 923 INTER-LIGAND FREE ENERGY PREDICTED BY IDOCK:   -6.39 KCAL/MOL
REMARK 924 INTRA-LIGAND FREE ENERGY PREDICTED BY IDOCK:   -1.00 KCAL/MOL
REMARK 927      BINDING AFFINITY PREDICTED BY RF-SCORE:    0.00 PKD
ROOT
HETATM    1  C   UNL     1      -9.688   4.392  69.530  1.00  0.00    -0.280 C  
HETATM    2  C   UNL     1      -9.561   5.464  70.599  1.00  0.00    -0.228 C  
ENDROOT
BRANCH   2   3
HETATM    3  C   UNL     1     -10.733   6.441  70.540  1.00  0.00    -0.311 C  
BRANCH   3   4
HETATM    4  C   UNL     1     -10.299   7.846  70.947  1.00  0.00    -0.215 C  
BRANCH   4   5
HETATM    5  C   UNL     1     -10.035   8.711  69.717  1.00  0.00    -0.190 C  
BRANCH   5   6
HETATM    6  C   UNL     1     -10.485   8.000  68.445  1.00  0.00    -0.205 C  
BRANCH   6   7
HETATM    7  C   UNL     1      -9.928   8.701  67.210  1.00  0.00    -0.282 C  
BRANCH   7   8
HETATM    8  C   UNL     1      -9.374  10.074  67.570  1.00  0.00    -0.162 C  
BRANCH   8   9
HETATM    9  C   UNL     1      -8.991  10.849  66.313  1.00  0.00    -0.188 C  
BRANCH   9  10
HETATM   10  C   UNL     1      -9.429  10.097  65.061  1.00  0.00    -0.330 C  
BRANCH  10  11
HETATM   11  C   UNL     1     -10.426  10.919  64.251  1.00  0.00    -0.405 C  
BRANCH  11  12
HETATM   12  C   UNL     1     -11.047  12.014  65.112  1.00  0.00    -0.369 C  
BRANCH  12  13
HETATM   13  C   UNL     1     -12.261  12.635  64.427  1.00  0.00    -0.518 C  
BRANCH  13  14
HETATM   14  C   UNL     1     -12.523  14.041  64.963  1.00  0.00    -0.446 C  
BRANCH  14  15
HETATM   15  C   UNL     1     -11.304  14.589  65.699  1.00  0.00    -0.336 C  
HETATM   16  C   UNL     1     -10.861  15.918  65.133  1.00  0.00    -0.421 C  
HETATM   17  O   UNL     1      -9.780  16.414  65.781  1.00  0.00    -0.440 OA 
HETATM   18  O   UNL     1     -11.390  16.505  64.203  1.00  0.00    -1.060 OA 
ENDBRANCH  14  15
ENDBRANCH  13  14
ENDBRANCH  12  13
ENDBRANCH  11  12
ENDBRANCH  10  11
ENDBRANCH   9  10
ENDBRANCH   8   9
ENDBRANCH   7   8
ENDBRANCH   6   7
ENDBRANCH   5   6
ENDBRANCH   4   5
ENDBRANCH   3   4
ENDBRANCH   2   3
TORSDOF 13
ENDMDL
MODEL      216
REMARK 921   NORMALIZED FREE ENERGY PREDICTED BY IDOCK:   -3.39 KCAL/MOL
REMARK 922        TOTAL FREE ENERGY PREDICTED BY IDOCK:   -7.37 KCAL/MOL
REMARK 923 INTER-LIGAND FREE ENERGY PREDICTED BY IDOCK:   -5.17 KCAL/MOL
REMARK 924 INTRA-LIGAND FREE ENERGY PREDICTED BY IDOCK:   -2.21 KCAL/MOL
REMARK 927      BINDING AFFINITY PREDICTED BY RF-SCORE:    0.00 PKD
ROOT
HETATM    1  C   UNL     1     -12.615  11.880  63.248  1.00  0.00    -0.473 C  
HETATM    2  C   UNL     1     -11.352  11.376  63.926  1.00  0.00    -0.302 C  
ENDROOT
BRANCH   2   3
HETATM    3  C   UNL     1     -10.222  12.397  63.815  1.00  0.00    -0.404 C  
BRANCH   3   4
HETATM    4  C   UNL     1      -9.953  13.069  65.158  1.00  0.00    -0.170 C  
BRANCH   4   5
HETATM    5  C   UNL     1     -10.255  14.563  65.088  1.00  0.00    -0.420 C  
BRANCH   5   6
HETATM    6  C   UNL     1     -11.749  14.826  65.244  1.00  0.00    -0.311 C  
BRANCH   6   7
HETATM    7  C   UNL     1     -12.308  14.067  66.443  1.00  0.00    -0.468 C  
BRANCH   7   8
HETATM    8  C   UNL     1     -11.897  14.738  67.748  1.00  0.00    -0.322 C  
BRANCH   8   9
HETATM    9  C   UNL     1     -11.726  13.704  68.857  1.00  0.00    -0.377 C  
BRANCH   9  10
HETATM   10  C   UNL     1     -10.448  12.900  68.651  1.00  0.00    -0.231 C  
BRANCH  10  11
HETATM   11  C   UNL     1     -10.685  11.417  68.920  1.00  0.00    -0.248 C  
BRANCH  11  12
HETATM   12  C   UNL     1     -11.392  10.762  67.738  1.00  0.00    -0.354 C  
BRANCH  12  13
HETATM   13  C   UNL     1     -10.657   9.505  67.281  1.00  0.00    -0.317 C  
BRANCH  13  14
HETATM   14  C   UNL     1      -9.223   9.836  66.874  1.00  0.00    -0.174 C  
BRANCH  14  15
HETATM   15  C   UNL     1      -8.849   9.154  65.561  1.00  0.00    -0.229 C  
HETATM   16  C   UNL     1      -8.275   7.776  65.792  1.00  0.00    -0.132 C  
HETATM   17  O   UNL     1      -7.941   7.161  64.633  1.00  0.00    -0.122 OA 
HETATM   18  O   UNL     1      -8.116   7.247  66.880  1.00  0.00    -0.116 OA 
ENDBRANCH  14  15
ENDBRANCH  13  14
ENDBRANCH  12  13
ENDBRANCH  11  12
ENDBRANCH  10  11
ENDBRANCH   9  10
ENDBRANCH   8   9
ENDBRANCH   7   8
ENDBRANCH   6   7
ENDBRANCH   5   6
ENDBRANCH   4   5
ENDBRANCH   3   4
ENDBRANCH   2   3
TORSDOF 13
ENDMDL
MODEL      217
REMARK 921   NORMALIZED FREE ENERGY PREDICTED BY IDOCK:   -3.38 KCAL/MOL
REMARK 922        TOTAL FREE ENERGY PREDICTED BY IDOCK:   -7.36 KCAL/MOL
REMARK 923 INTER-LIGAND FREE ENERGY PREDICTED BY IDOCK:   -5.49 KCAL/MOL
REMARK 924 INTRA-LIGAND FREE ENERGY PREDICTED BY IDOCK:   -1.87 KCAL/MOL
REMARK 927      BINDING AFFINITY PREDICTED BY RF-SCORE:    0.00 PKD
ROOT
HETATM    1  C   UNL     1      -9.515   9.352  70.508  1.00  0.00    -0.327 C  
HETATM    2  C   UNL     1     -11.024   9.219  70.619  1.00  0.00    -0.336 C  
ENDROOT
BRANCH   2   3
HETATM    3  C   UNL     1     -11.687  10.583  70.790  1.00  0.00    -0.454 C  
BRANCH   3   4
HETATM    4  C   UNL     1     -12.179  11.128  69.452  1.00  0.00    -0.329 C  
BRANCH   4   5
HETATM    5  C   UNL     1     -11.292  12.273  68.973  1.00  0.00    -0.333 C  
BRANCH   5   6
HETATM    6  C   UNL     1     -11.643  12.672  67.543  1.00  0.00    -0.418 C  
BRANCH   6   7
HETATM    7  C   UNL     1     -10.418  12.573  66.640  1.00  0.00    -0.252 C  
BRANCH   7   8
HETATM    8  C   UNL     1      -9.356  11.675  67.263  1.00  0.00    -0.170 C  
BRANCH   8   9
HETATM    9  C   UNL     1      -9.177  10.401  66.443  1.00  0.00    -0.187 C  
BRANCH   9  10
HETATM   10  C   UNL     1     -10.276   9.394  66.763  1.00  0.00    -0.320 C  
BRANCH  10  11
HETATM   11  C   UNL     1      -9.689   8.017  67.054  1.00  0.00    -0.275 C  
BRANCH  11  12
HETATM   12  C   UNL     1     -10.798   6.988  67.246  1.00  0.00    -0.403 C  
BRANCH  12  13
HETATM   13  C   UNL     1     -10.345   5.848  68.153  1.00  0.00    -0.259 C  
BRANCH  13  14
HETATM   14  C   UNL     1     -10.999   5.960  69.529  1.00  0.00    -0.438 C  
BRANCH  14  15
HETATM   15  C   UNL     1     -10.243   5.140  70.570  1.00  0.00    -0.330 C  
HETATM   16  C   UNL     1     -10.796   5.356  71.960  1.00  0.00    -0.202 C  
HETATM   17  O   UNL     1     -10.132   4.632  72.891  1.00  0.00    -0.148 OA 
HETATM   18  O   UNL     1     -11.727   6.091  72.246  1.00  0.00    -0.310 OA 
ENDBRANCH  14  15
ENDBRANCH  13  14
ENDBRANCH  12  13
ENDBRANCH  11  12
ENDBRANCH  10  11
ENDBRANCH   9  10
ENDBRANCH   8   9
ENDBRANCH   7   8
ENDBRANCH   6   7
ENDBRANCH   5   6
ENDBRANCH   4   5
ENDBRANCH   3   4
ENDBRANCH   2   3
TORSDOF 13
ENDMDL
MODEL      218
REMARK 921   NORMALIZED FREE ENERGY PREDICTED BY IDOCK:   -3.38 KCAL/MOL
REMARK 922        TOTAL FREE ENERGY PREDICTED BY IDOCK:   -7.36 KCAL/MOL
REMARK 923 INTER-LIGAND FREE ENERGY PREDICTED BY IDOCK:   -5.79 KCAL/MOL
REMARK 924 INTRA-LIGAND FREE ENERGY PREDICTED BY IDOCK:   -1.57 KCAL/MOL
REMARK 927      BINDING AFFINITY PREDICTED BY RF-SCORE:    0.00 PKD
ROOT
HETATM    1  C   UNL     1      -9.951  10.169  64.765  1.00  0.00    -0.334 C  
HETATM    2  C   UNL     1      -9.221   9.757  66.032  1.00  0.00    -0.226 C  
ENDROOT
BRANCH   2   3
HETATM    3  C   UNL     1     -10.069   8.805  66.872  1.00  0.00    -0.348 C  
BRANCH   3   4
HETATM    4  C   UNL     1     -10.847   9.562  67.944  1.00  0.00    -0.240 C  
BRANCH   4   5
HETATM    5  C   UNL     1      -9.910  10.422  68.788  1.00  0.00    -0.190 C  
BRANCH   5   6
HETATM    6  C   UNL     1     -10.418  11.857  68.874  1.00  0.00    -0.164 C  
BRANCH   6   7
HETATM    7  C   UNL     1     -11.812  11.974  68.268  1.00  0.00    -0.351 C  
BRANCH   7   8
HETATM    8  C   UNL     1     -11.921  13.217  67.393  1.00  0.00    -0.383 C  
BRANCH   8   9
HETATM    9  C   UNL     1     -12.158  12.834  65.936  1.00  0.00    -0.485 C  
BRANCH   9  10
HETATM   10  C   UNL     1     -11.108  13.470  65.032  1.00  0.00    -0.338 C  
BRANCH  10  11
HETATM   11  C   UNL     1     -11.711  14.604  64.209  1.00  0.00    -0.291 C  
BRANCH  11  12
HETATM   12  C   UNL     1     -11.225  15.957  64.719  1.00  0.00    -0.364 C  
BRANCH  12  13
HETATM   13  C   UNL     1      -9.970  15.807  65.576  1.00  0.00    -0.341 C  
BRANCH  13  14
HETATM   14  C   UNL     1     -10.008  16.769  66.761  1.00  0.00    -0.286 C  
BRANCH  14  15
HETATM   15  C   UNL     1     -10.385  18.180  66.317  1.00  0.00    -0.407 C  
HETATM   16  C   UNL     1     -10.036  19.207  67.369  1.00  0.00    -0.351 C  
HETATM   17  O   UNL     1     -10.364  20.463  66.984  1.00  0.00    -0.365 OA 
HETATM   18  O   UNL     1      -9.519  18.970  68.448  1.00  0.00    -0.326 OA 
ENDBRANCH  14  15
ENDBRANCH  13  14
ENDBRANCH  12  13
ENDBRANCH  11  12
ENDBRANCH  10  11
ENDBRANCH   9  10
ENDBRANCH   8   9
ENDBRANCH   7   8
ENDBRANCH   6   7
ENDBRANCH   5   6
ENDBRANCH   4   5
ENDBRANCH   3   4
ENDBRANCH   2   3
TORSDOF 13
ENDMDL
MODEL      219
REMARK 921   NORMALIZED FREE ENERGY PREDICTED BY IDOCK:   -3.38 KCAL/MOL
REMARK 922        TOTAL FREE ENERGY PREDICTED BY IDOCK:   -7.35 KCAL/MOL
REMARK 923 INTER-LIGAND FREE ENERGY PREDICTED BY IDOCK:   -5.66 KCAL/MOL
REMARK 924 INTRA-LIGAND FREE ENERGY PREDICTED BY IDOCK:   -1.69 KCAL/MOL
REMARK 927      BINDING AFFINITY PREDICTED BY RF-SCORE:    0.00 PKD
ROOT
HETATM    1  C   UNL     1      -8.005  13.921  67.425  1.00  0.00    -0.184 C  
HETATM    2  C   UNL     1      -9.320  13.467  68.035  1.00  0.00    -0.213 C  
ENDROOT
BRANCH   2   3
HETATM    3  C   UNL     1     -10.505  13.893  67.171  1.00  0.00    -0.269 C  
BRANCH   3   4
HETATM    4  C   UNL     1     -10.035  14.451  65.830  1.00  0.00    -0.350 C  
BRANCH   4   5
HETATM    5  C   UNL     1     -10.638  13.660  64.673  1.00  0.00    -0.446 C  
BRANCH   5   6
HETATM    6  C   UNL     1     -11.357  12.414  65.179  1.00  0.00    -0.367 C  
BRANCH   6   7
HETATM    7  C   UNL     1     -10.693  11.151  64.639  1.00  0.00    -0.350 C  
BRANCH   7   8
HETATM    8  C   UNL     1      -9.471  10.783  65.472  1.00  0.00    -0.253 C  
BRANCH   8   9
HETATM    9  C   UNL     1      -9.680   9.446  66.175  1.00  0.00    -0.334 C  
BRANCH   9  10
HETATM   10  C   UNL     1     -10.783   9.552  67.221  1.00  0.00    -0.269 C  
BRANCH  10  11
HETATM   11  C   UNL     1     -10.213   9.953  68.578  1.00  0.00    -0.199 C  
BRANCH  11  12
HETATM   12  C   UNL     1     -11.313  10.499  69.483  1.00  0.00    -0.341 C  
BRANCH  12  13
HETATM   13  C   UNL     1     -11.170   9.971  70.908  1.00  0.00    -0.415 C  
BRANCH  13  14
HETATM   14  C   UNL     1     -12.287   8.980  71.230  1.00  0.00    -0.361 C  
BRANCH  14  15
HETATM   15  C   UNL     1     -11.757   7.782  72.011  1.00  0.00    -0.349 C  
HETATM   16  C   UNL     1     -11.522   6.589  71.114  1.00  0.00    -0.326 C  
HETATM   17  O   UNL     1     -11.050   5.521  71.798  1.00  0.00    -0.230 OA 
HETATM   18  O   UNL     1     -11.725   6.557  69.911  1.00  0.00    -0.406 OA 
ENDBRANCH  14  15
ENDBRANCH  13  14
ENDBRANCH  12  13
ENDBRANCH  11  12
ENDBRANCH  10  11
ENDBRANCH   9  10
ENDBRANCH   8   9
ENDBRANCH   7   8
ENDBRANCH   6   7
ENDBRANCH   5   6
ENDBRANCH   4   5
ENDBRANCH   3   4
ENDBRANCH   2   3
TORSDOF 13
ENDMDL
MODEL      220
REMARK 921   NORMALIZED FREE ENERGY PREDICTED BY IDOCK:   -3.38 KCAL/MOL
REMARK 922        TOTAL FREE ENERGY PREDICTED BY IDOCK:   -7.35 KCAL/MOL
REMARK 923 INTER-LIGAND FREE ENERGY PREDICTED BY IDOCK:   -5.89 KCAL/MOL
REMARK 924 INTRA-LIGAND FREE ENERGY PREDICTED BY IDOCK:   -1.46 KCAL/MOL
REMARK 927      BINDING AFFINITY PREDICTED BY RF-SCORE:    0.00 PKD
ROOT
HETATM    1  C   UNL     1      -9.405   9.172  70.938  1.00  0.00    -0.335 C  
HETATM    2  C   UNL     1     -10.837   8.851  71.332  1.00  0.00    -0.378 C  
ENDROOT
BRANCH   2   3
HETATM    3  C   UNL     1     -11.799   9.931  70.842  1.00  0.00    -0.443 C  
BRANCH   3   4
HETATM    4  C   UNL     1     -11.172  10.759  69.723  1.00  0.00    -0.365 C  
BRANCH   4   5
HETATM    5  C   UNL     1     -11.698  12.191  69.749  1.00  0.00    -0.381 C  
BRANCH   5   6
HETATM    6  C   UNL     1     -11.081  13.018  68.626  1.00  0.00    -0.305 C  
BRANCH   6   7
HETATM    7  C   UNL     1     -12.160  13.525  67.674  1.00  0.00    -0.321 C  
BRANCH   7   8
HETATM    8  C   UNL     1     -11.537  14.222  66.470  1.00  0.00    -0.390 C  
BRANCH   8   9
HETATM    9  C   UNL     1     -12.500  14.222  65.288  1.00  0.00    -0.428 C  
BRANCH   9  10
HETATM   10  C   UNL     1     -12.049  13.228  64.224  1.00  0.00    -0.475 C  
BRANCH  10  11
HETATM   11  C   UNL     1     -10.557  12.932  64.349  1.00  0.00    -0.418 C  
BRANCH  11  12
HETATM   12  C   UNL     1     -10.300  11.430  64.290  1.00  0.00    -0.383 C  
BRANCH  12  13
HETATM   13  C   UNL     1     -10.690  10.750  65.600  1.00  0.00    -0.142 C  
BRANCH  13  14
HETATM   14  C   UNL     1      -9.942   9.430  65.765  1.00  0.00    -0.278 C  
BRANCH  14  15
HETATM   15  C   UNL     1     -10.237   8.792  67.120  1.00  0.00    -0.346 C  
HETATM   16  C   UNL     1      -9.809   7.343  67.160  1.00  0.00    -0.193 C  
HETATM   17  O   UNL     1     -10.065   6.769  68.360  1.00  0.00    -0.150 OA 
HETATM   18  O   UNL     1      -9.293   6.731  66.240  1.00  0.00    -0.161 OA 
ENDBRANCH  14  15
ENDBRANCH  13  14
ENDBRANCH  12  13
ENDBRANCH  11  12
ENDBRANCH  10  11
ENDBRANCH   9  10
ENDBRANCH   8   9
ENDBRANCH   7   8
ENDBRANCH   6   7
ENDBRANCH   5   6
ENDBRANCH   4   5
ENDBRANCH   3   4
ENDBRANCH   2   3
TORSDOF 13
ENDMDL
MODEL      221
REMARK 921   NORMALIZED FREE ENERGY PREDICTED BY IDOCK:   -3.37 KCAL/MOL
REMARK 922        TOTAL FREE ENERGY PREDICTED BY IDOCK:   -7.34 KCAL/MOL
REMARK 923 INTER-LIGAND FREE ENERGY PREDICTED BY IDOCK:   -5.74 KCAL/MOL
REMARK 924 INTRA-LIGAND FREE ENERGY PREDICTED BY IDOCK:   -1.59 KCAL/MOL
REMARK 927      BINDING AFFINITY PREDICTED BY RF-SCORE:    0.00 PKD
ROOT
HETATM    1  C   UNL     1      -9.573   8.930  71.618  1.00  0.00    -0.363 C  
HETATM    2  C   UNL     1     -10.974   8.872  72.201  1.00  0.00    -0.349 C  
ENDROOT
BRANCH   2   3
HETATM    3  C   UNL     1     -11.992   9.500  71.252  1.00  0.00    -0.445 C  
BRANCH   3   4
HETATM    4  C   UNL     1     -11.328   9.954  69.956  1.00  0.00    -0.303 C  
BRANCH   4   5
HETATM    5  C   UNL     1     -11.969  11.240  69.439  1.00  0.00    -0.410 C  
BRANCH   5   6
HETATM    6  C   UNL     1     -10.948  12.100  68.702  1.00  0.00    -0.284 C  
BRANCH   6   7
HETATM    7  C   UNL     1     -11.412  12.386  67.277  1.00  0.00    -0.421 C  
BRANCH   7   8
HETATM    8  C   UNL     1     -10.224  12.472  66.327  1.00  0.00    -0.265 C  
BRANCH   8   9
HETATM    9  C   UNL     1     -10.600  11.952  64.944  1.00  0.00    -0.333 C  
BRANCH   9  10
HETATM   10  C   UNL     1     -10.163  10.502  64.775  1.00  0.00    -0.373 C  
BRANCH  10  11
HETATM   11  C   UNL     1      -9.225  10.078  65.901  1.00  0.00    -0.211 C  
BRANCH  11  12
HETATM   12  C   UNL     1      -9.343   8.580  66.164  1.00  0.00    -0.279 C  
BRANCH  12  13
HETATM   13  C   UNL     1     -10.373   8.289  67.252  1.00  0.00    -0.372 C  
BRANCH  13  14
HETATM   14  C   UNL     1     -10.561   6.784  67.427  1.00  0.00    -0.372 C  
BRANCH  14  15
HETATM   15  C   UNL     1     -11.261   6.463  68.745  1.00  0.00    -0.358 C  
HETATM   16  C   UNL     1     -10.319   5.816  69.734  1.00  0.00    -0.263 C  
HETATM   17  O   UNL     1     -10.931   5.529  70.907  1.00  0.00    -0.226 OA 
HETATM   18  O   UNL     1      -9.142   5.567  69.534  1.00  0.00    -0.117 OA 
ENDBRANCH  14  15
ENDBRANCH  13  14
ENDBRANCH  12  13
ENDBRANCH  11  12
ENDBRANCH  10  11
ENDBRANCH   9  10
ENDBRANCH   8   9
ENDBRANCH   7   8
ENDBRANCH   6   7
ENDBRANCH   5   6
ENDBRANCH   4   5
ENDBRANCH   3   4
ENDBRANCH   2   3
TORSDOF 13
ENDMDL
MODEL      222
REMARK 921   NORMALIZED FREE ENERGY PREDICTED BY IDOCK:   -3.36 KCAL/MOL
REMARK 922        TOTAL FREE ENERGY PREDICTED BY IDOCK:   -7.32 KCAL/MOL
REMARK 923 INTER-LIGAND FREE ENERGY PREDICTED BY IDOCK:   -5.87 KCAL/MOL
REMARK 924 INTRA-LIGAND FREE ENERGY PREDICTED BY IDOCK:   -1.44 KCAL/MOL
REMARK 927      BINDING AFFINITY PREDICTED BY RF-SCORE:    0.00 PKD
ROOT
HETATM    1  C   UNL     1      -8.213   8.112  65.119  1.00  0.00    -0.156 C  
HETATM    2  C   UNL     1      -8.675   7.558  66.456  1.00  0.00    -0.151 C  
ENDROOT
BRANCH   2   3
HETATM    3  C   UNL     1     -10.115   7.967  66.754  1.00  0.00    -0.352 C  
BRANCH   3   4
HETATM    4  C   UNL     1     -10.318   8.219  68.245  1.00  0.00    -0.242 C  
BRANCH   4   5
HETATM    5  C   UNL     1     -10.146   9.699  68.574  1.00  0.00    -0.195 C  
BRANCH   5   6
HETATM    6  C   UNL     1     -11.478  10.437  68.482  1.00  0.00    -0.231 C  
BRANCH   6   7
HETATM    7  C   UNL     1     -11.421  11.521  67.411  1.00  0.00    -0.349 C  
BRANCH   7   8
HETATM    8  C   UNL     1     -11.816  12.875  67.989  1.00  0.00    -0.390 C  
BRANCH   8   9
HETATM    9  C   UNL     1     -10.614  13.559  68.633  1.00  0.00    -0.259 C  
BRANCH   9  10
HETATM   10  C   UNL     1      -9.443  13.620  67.659  1.00  0.00    -0.221 C  
BRANCH  10  11
HETATM   11  C   UNL     1      -8.817  15.012  67.644  1.00  0.00    -0.183 C  
BRANCH  11  12
HETATM   12  C   UNL     1      -9.017  15.677  66.287  1.00  0.00    -0.377 C  
BRANCH  12  13
HETATM   13  C   UNL     1     -10.495  15.729  65.909  1.00  0.00    -0.366 C  
BRANCH  13  14
HETATM   14  C   UNL     1     -10.739  15.003  64.587  1.00  0.00    -0.243 C  
BRANCH  14  15
HETATM   15  C   UNL     1     -12.082  14.278  64.594  1.00  0.00    -0.478 C  
HETATM   16  C   UNL     1     -11.984  12.916  63.946  1.00  0.00    -0.480 C  
HETATM   17  O   UNL     1     -13.171  12.264  63.948  1.00  0.00    -0.766 OA 
HETATM   18  O   UNL     1     -10.973  12.430  63.467  1.00  0.00    -0.437 OA 
ENDBRANCH  14  15
ENDBRANCH  13  14
ENDBRANCH  12  13
ENDBRANCH  11  12
ENDBRANCH  10  11
ENDBRANCH   9  10
ENDBRANCH   8   9
ENDBRANCH   7   8
ENDBRANCH   6   7
ENDBRANCH   5   6
ENDBRANCH   4   5
ENDBRANCH   3   4
ENDBRANCH   2   3
TORSDOF 13
ENDMDL
MODEL      223
REMARK 921   NORMALIZED FREE ENERGY PREDICTED BY IDOCK:   -3.36 KCAL/MOL
REMARK 922        TOTAL FREE ENERGY PREDICTED BY IDOCK:   -7.32 KCAL/MOL
REMARK 923 INTER-LIGAND FREE ENERGY PREDICTED BY IDOCK:   -5.68 KCAL/MOL
REMARK 924 INTRA-LIGAND FREE ENERGY PREDICTED BY IDOCK:   -1.63 KCAL/MOL
REMARK 927      BINDING AFFINITY PREDICTED BY RF-SCORE:    0.00 PKD
ROOT
HETATM    1  C   UNL     1     -12.483  13.305  65.572  1.00  0.00    -0.531 C  
HETATM    2  C   UNL     1     -11.564  13.331  66.781  1.00  0.00    -0.408 C  
ENDROOT
BRANCH   2   3
HETATM    3  C   UNL     1     -11.839  12.149  67.707  1.00  0.00    -0.327 C  
BRANCH   3   4
HETATM    4  C   UNL     1     -11.100  12.306  69.033  1.00  0.00    -0.289 C  
BRANCH   4   5
HETATM    5  C   UNL     1     -11.982  13.004  70.066  1.00  0.00    -0.383 C  
BRANCH   5   6
HETATM    6  C   UNL     1     -12.744  11.986  70.908  1.00  0.00    -0.291 C  
BRANCH   6   7
HETATM    7  C   UNL     1     -11.936  10.701  71.064  1.00  0.00    -0.442 C  
BRANCH   7   8
HETATM    8  C   UNL     1     -12.842   9.534  71.437  1.00  0.00    -0.443 C  
BRANCH   8   9
HETATM    9  C   UNL     1     -12.099   8.533  72.316  1.00  0.00    -0.455 C  
BRANCH   9  10
HETATM   10  C   UNL     1     -12.388   7.104  71.871  1.00  0.00    -0.352 C  
BRANCH  10  11
HETATM   11  C   UNL     1     -11.616   6.761  70.600  1.00  0.00    -0.422 C  
BRANCH  11  12
HETATM   12  C   UNL     1     -10.114   6.873  70.836  1.00  0.00    -0.207 C  
BRANCH  12  13
HETATM   13  C   UNL     1      -9.470   7.845  69.851  1.00  0.00    -0.160 C  
BRANCH  13  14
HETATM   14  C   UNL     1     -10.473   8.273  68.782  1.00  0.00    -0.200 C  
BRANCH  14  15
HETATM   15  C   UNL     1      -9.809   9.134  67.712  1.00  0.00    -0.214 C  
HETATM   16  C   UNL     1      -9.435   8.320  66.495  1.00  0.00    -0.220 C  
HETATM   17  O   UNL     1      -8.846   9.075  65.538  1.00  0.00    -0.172 OA 
HETATM   18  O   UNL     1      -9.625   7.123  66.356  1.00  0.00    -0.168 OA 
ENDBRANCH  14  15
ENDBRANCH  13  14
ENDBRANCH  12  13
ENDBRANCH  11  12
ENDBRANCH  10  11
ENDBRANCH   9  10
ENDBRANCH   8   9
ENDBRANCH   7   8
ENDBRANCH   6   7
ENDBRANCH   5   6
ENDBRANCH   4   5
ENDBRANCH   3   4
ENDBRANCH   2   3
TORSDOF 13
ENDMDL
MODEL      224
REMARK 921   NORMALIZED FREE ENERGY PREDICTED BY IDOCK:   -3.36 KCAL/MOL
REMARK 922        TOTAL FREE ENERGY PREDICTED BY IDOCK:   -7.31 KCAL/MOL
REMARK 923 INTER-LIGAND FREE ENERGY PREDICTED BY IDOCK:   -6.05 KCAL/MOL
REMARK 924 INTRA-LIGAND FREE ENERGY PREDICTED BY IDOCK:   -1.27 KCAL/MOL
REMARK 927      BINDING AFFINITY PREDICTED BY RF-SCORE:    0.00 PKD
ROOT
HETATM    1  C   UNL     1     -14.314  15.179  71.671  1.00  0.00    -0.685 C  
HETATM    2  C   UNL     1     -12.886  14.663  71.611  1.00  0.00    -0.403 C  
ENDROOT
BRANCH   2   3
HETATM    3  C   UNL     1     -12.170  15.167  70.361  1.00  0.00    -0.391 C  
BRANCH   3   4
HETATM    4  C   UNL     1     -11.542  14.013  69.584  1.00  0.00    -0.348 C  
BRANCH   4   5
HETATM    5  C   UNL     1     -12.071  12.672  70.084  1.00  0.00    -0.368 C  
BRANCH   5   6
HETATM    6  C   UNL     1     -11.599  11.532  69.187  1.00  0.00    -0.382 C  
BRANCH   6   7
HETATM    7  C   UNL     1     -11.435  10.246  69.990  1.00  0.00    -0.367 C  
BRANCH   7   8
HETATM    8  C   UNL     1     -12.700   9.937  70.782  1.00  0.00    -0.303 C  
BRANCH   8   9
HETATM    9  C   UNL     1     -12.361   9.219  72.084  1.00  0.00    -0.398 C  
BRANCH   9  10
HETATM   10  C   UNL     1     -11.170   8.288  71.893  1.00  0.00    -0.365 C  
BRANCH  10  11
HETATM   11  C   UNL     1     -11.607   6.826  71.930  1.00  0.00    -0.330 C  
BRANCH  11  12
HETATM   12  C   UNL     1     -10.984   6.049  70.775  1.00  0.00    -0.364 C  
BRANCH  12  13
HETATM   13  C   UNL     1     -11.609   6.446  69.441  1.00  0.00    -0.238 C  
BRANCH  13  14
HETATM   14  C   UNL     1     -10.528   6.802  68.423  1.00  0.00    -0.238 C  
BRANCH  14  15
HETATM   15  C   UNL     1     -10.655   5.956  67.160  1.00  0.00    -0.373 C  
HETATM   16  C   UNL     1      -9.739   4.755  67.198  1.00  0.00    -0.184 C  
HETATM   17  O   UNL     1      -9.846   3.997  66.082  1.00  0.00    -0.202 OA 
HETATM   18  O   UNL     1      -8.979   4.471  68.110  1.00  0.00    -0.107 OA 
ENDBRANCH  14  15
ENDBRANCH  13  14
ENDBRANCH  12  13
ENDBRANCH  11  12
ENDBRANCH  10  11
ENDBRANCH   9  10
ENDBRANCH   8   9
ENDBRANCH   7   8
ENDBRANCH   6   7
ENDBRANCH   5   6
ENDBRANCH   4   5
ENDBRANCH   3   4
ENDBRANCH   2   3
TORSDOF 13
ENDMDL
MODEL      225
REMARK 921   NORMALIZED FREE ENERGY PREDICTED BY IDOCK:   -3.35 KCAL/MOL
REMARK 922        TOTAL FREE ENERGY PREDICTED BY IDOCK:   -7.30 KCAL/MOL
REMARK 923 INTER-LIGAND FREE ENERGY PREDICTED BY IDOCK:   -6.04 KCAL/MOL
REMARK 924 INTRA-LIGAND FREE ENERGY PREDICTED BY IDOCK:   -1.26 KCAL/MOL
REMARK 927      BINDING AFFINITY PREDICTED BY RF-SCORE:    0.00 PKD
ROOT
HETATM    1  C   UNL     1     -10.169  12.126  68.416  1.00  0.00    -0.212 C  
HETATM    2  C   UNL     1      -9.801  10.890  67.612  1.00  0.00    -0.192 C  
ENDROOT
BRANCH   2   3
HETATM    3  C   UNL     1     -10.448   9.638  68.200  1.00  0.00    -0.266 C  
BRANCH   3   4
HETATM    4  C   UNL     1      -9.491   8.917  69.144  1.00  0.00    -0.157 C  
BRANCH   4   5
HETATM    5  C   UNL     1     -10.092   8.802  70.542  1.00  0.00    -0.233 C  
BRANCH   5   6
HETATM    6  C   UNL     1     -11.600   9.028  70.507  1.00  0.00    -0.209 C  
BRANCH   6   7
HETATM    7  C   UNL     1     -12.036   9.937  71.652  1.00  0.00    -0.457 C  
BRANCH   7   8
HETATM    8  C   UNL     1     -12.482  11.296  71.126  1.00  0.00    -0.479 C  
BRANCH   8   9
HETATM    9  C   UNL     1     -13.484  11.942  72.076  1.00  0.00    -0.336 C  
BRANCH   9  10
HETATM   10  C   UNL     1     -13.431  13.461  71.968  1.00  0.00    -0.584 C  
BRANCH  10  11
HETATM   11  C   UNL     1     -12.389  13.900  70.943  1.00  0.00    -0.451 C  
BRANCH  11  12
HETATM   12  C   UNL     1     -12.646  15.334  70.495  1.00  0.00    -0.450 C  
BRANCH  12  13
HETATM   13  C   UNL     1     -11.807  15.690  69.271  1.00  0.00    -0.378 C  
BRANCH  13  14
HETATM   14  C   UNL     1     -10.724  16.703  69.635  1.00  0.00    -0.286 C  
BRANCH  14  15
HETATM   15  C   UNL     1      -9.860  17.050  68.426  1.00  0.00    -0.283 C  
HETATM   16  C   UNL     1      -9.585  18.533  68.344  1.00  0.00    -0.354 C  
HETATM   17  O   UNL     1      -8.817  18.851  67.275  1.00  0.00    -0.276 OA 
HETATM   18  O   UNL     1      -9.990  19.375  69.130  1.00  0.00    -0.435 OA 
ENDBRANCH  14  15
ENDBRANCH  13  14
ENDBRANCH  12  13
ENDBRANCH  11  12
ENDBRANCH  10  11
ENDBRANCH   9  10
ENDBRANCH   8   9
ENDBRANCH   7   8
ENDBRANCH   6   7
ENDBRANCH   5   6
ENDBRANCH   4   5
ENDBRANCH   3   4
ENDBRANCH   2   3
TORSDOF 13
ENDMDL
MODEL      226
REMARK 921   NORMALIZED FREE ENERGY PREDICTED BY IDOCK:   -3.34 KCAL/MOL
REMARK 922        TOTAL FREE ENERGY PREDICTED BY IDOCK:   -7.29 KCAL/MOL
REMARK 923 INTER-LIGAND FREE ENERGY PREDICTED BY IDOCK:   -6.14 KCAL/MOL
REMARK 924 INTRA-LIGAND FREE ENERGY PREDICTED BY IDOCK:   -1.15 KCAL/MOL
REMARK 927      BINDING AFFINITY PREDICTED BY RF-SCORE:    0.00 PKD
ROOT
HETATM    1  C   UNL     1     -10.145   5.402  69.364  1.00  0.00    -0.304 C  
HETATM    2  C   UNL     1     -11.348   6.323  69.473  1.00  0.00    -0.475 C  
ENDROOT
BRANCH   2   3
HETATM    3  C   UNL     1     -11.859   6.393  70.911  1.00  0.00    -0.317 C  
BRANCH   3   4
HETATM    4  C   UNL     1     -10.820   5.853  71.890  1.00  0.00    -0.307 C  
BRANCH   4   5
HETATM    5  C   UNL     1     -10.719   6.749  73.122  1.00  0.00    -0.326 C  
BRANCH   5   6
HETATM    6  C   UNL     1     -10.928   8.213  72.750  1.00  0.00    -0.401 C  
BRANCH   6   7
HETATM    7  C   UNL     1      -9.808   8.703  71.838  1.00  0.00    -0.384 C  
BRANCH   7   8
HETATM    8  C   UNL     1     -10.352   9.644  70.769  1.00  0.00    -0.356 C  
BRANCH   8   9
HETATM    9  C   UNL     1     -11.766  10.096  71.117  1.00  0.00    -0.453 C  
BRANCH   9  10
HETATM   10  C   UNL     1     -12.189  11.269  70.240  1.00  0.00    -0.428 C  
BRANCH  10  11
HETATM   11  C   UNL     1     -11.362  11.321  68.960  1.00  0.00    -0.344 C  
BRANCH  11  12
HETATM   12  C   UNL     1     -10.856  12.737  68.703  1.00  0.00    -0.284 C  
BRANCH  12  13
HETATM   13  C   UNL     1     -11.690  13.437  67.634  1.00  0.00    -0.397 C  
BRANCH  13  14
HETATM   14  C   UNL     1     -10.826  13.804  66.429  1.00  0.00    -0.287 C  
BRANCH  14  15
HETATM   15  C   UNL     1     -11.018  12.810  65.287  1.00  0.00    -0.314 C  
HETATM   16  C   UNL     1      -9.943  11.748  65.285  1.00  0.00    -0.253 C  
HETATM   17  O   UNL     1     -10.106  10.860  64.276  1.00  0.00    -0.298 OA 
HETATM   18  O   UNL     1      -9.023  11.668  66.082  1.00  0.00    -0.209 OA 
ENDBRANCH  14  15
ENDBRANCH  13  14
ENDBRANCH  12  13
ENDBRANCH  11  12
ENDBRANCH  10  11
ENDBRANCH   9  10
ENDBRANCH   8   9
ENDBRANCH   7   8
ENDBRANCH   6   7
ENDBRANCH   5   6
ENDBRANCH   4   5
ENDBRANCH   3   4
ENDBRANCH   2   3
TORSDOF 13
ENDMDL
MODEL      227
REMARK 921   NORMALIZED FREE ENERGY PREDICTED BY IDOCK:   -3.34 KCAL/MOL
REMARK 922        TOTAL FREE ENERGY PREDICTED BY IDOCK:   -7.28 KCAL/MOL
REMARK 923 INTER-LIGAND FREE ENERGY PREDICTED BY IDOCK:   -5.71 KCAL/MOL
REMARK 924 INTRA-LIGAND FREE ENERGY PREDICTED BY IDOCK:   -1.57 KCAL/MOL
REMARK 927      BINDING AFFINITY PREDICTED BY RF-SCORE:    0.00 PKD
ROOT
HETATM    1  C   UNL     1     -12.755  10.835  71.800  1.00  0.00    -0.464 C  
HETATM    2  C   UNL     1     -12.332  10.460  70.390  1.00  0.00    -0.370 C  
ENDROOT
BRANCH   2   3
HETATM    3  C   UNL     1     -11.507   9.175  70.386  1.00  0.00    -0.228 C  
BRANCH   3   4
HETATM    4  C   UNL     1     -10.376   9.244  71.408  1.00  0.00    -0.392 C  
BRANCH   4   5
HETATM    5  C   UNL     1      -9.018   9.279  70.712  1.00  0.00    -0.292 C  
BRANCH   5   6
HETATM    6  C   UNL     1      -9.179   9.504  69.213  1.00  0.00    -0.169 C  
BRANCH   6   7
HETATM    7  C   UNL     1      -8.726  10.908  68.826  1.00  0.00    -0.158 C  
BRANCH   7   8
HETATM    8  C   UNL     1      -9.029  11.191  67.359  1.00  0.00    -0.139 C  
BRANCH   8   9
HETATM    9  C   UNL     1     -10.369  10.583  66.958  1.00  0.00    -0.289 C  
BRANCH   9  10
HETATM   10  C   UNL     1     -10.227   9.760  65.683  1.00  0.00    -0.178 C  
BRANCH  10  11
HETATM   11  C   UNL     1     -10.244  10.656  64.448  1.00  0.00    -0.400 C  
BRANCH  11  12
HETATM   12  C   UNL     1     -11.333  11.717  64.568  1.00  0.00    -0.310 C  
BRANCH  12  13
HETATM   13  C   UNL     1     -10.815  13.091  64.155  1.00  0.00    -0.433 C  
BRANCH  13  14
HETATM   14  C   UNL     1     -11.634  14.198  64.816  1.00  0.00    -0.400 C  
BRANCH  14  15
HETATM   15  C   UNL     1     -12.306  13.702  66.093  1.00  0.00    -0.476 C  
HETATM   16  C   UNL     1     -11.679  14.310  67.326  1.00  0.00    -0.395 C  
HETATM   17  O   UNL     1     -12.270  13.878  68.465  1.00  0.00    -0.342 OA 
HETATM   18  O   UNL     1     -10.749  15.100  67.332  1.00  0.00    -0.274 OA 
ENDBRANCH  14  15
ENDBRANCH  13  14
ENDBRANCH  12  13
ENDBRANCH  11  12
ENDBRANCH  10  11
ENDBRANCH   9  10
ENDBRANCH   8   9
ENDBRANCH   7   8
ENDBRANCH   6   7
ENDBRANCH   5   6
ENDBRANCH   4   5
ENDBRANCH   3   4
ENDBRANCH   2   3
TORSDOF 13
ENDMDL
MODEL      228
REMARK 921   NORMALIZED FREE ENERGY PREDICTED BY IDOCK:   -3.34 KCAL/MOL
REMARK 922        TOTAL FREE ENERGY PREDICTED BY IDOCK:   -7.28 KCAL/MOL
REMARK 923 INTER-LIGAND FREE ENERGY PREDICTED BY IDOCK:   -5.85 KCAL/MOL
REMARK 924 INTRA-LIGAND FREE ENERGY PREDICTED BY IDOCK:   -1.42 KCAL/MOL
REMARK 927      BINDING AFFINITY PREDICTED BY RF-SCORE:    0.00 PKD
ROOT
HETATM    1  C   UNL     1     -14.350  15.154  71.392  1.00  0.00    -0.601 C  
HETATM    2  C   UNL     1     -12.956  15.634  71.757  1.00  0.00    -0.541 C  
ENDROOT
BRANCH   2   3
HETATM    3  C   UNL     1     -12.052  15.684  70.529  1.00  0.00    -0.430 C  
BRANCH   3   4
HETATM    4  C   UNL     1     -11.886  14.299  69.911  1.00  0.00    -0.382 C  
BRANCH   4   5
HETATM    5  C   UNL     1     -10.545  14.183  69.191  1.00  0.00    -0.176 C  
BRANCH   5   6
HETATM    6  C   UNL     1     -10.602  14.850  67.821  1.00  0.00    -0.262 C  
BRANCH   6   7
HETATM    7  C   UNL     1     -11.278  13.935  66.803  1.00  0.00    -0.328 C  
BRANCH   7   8
HETATM    8  C   UNL     1     -10.686  14.140  65.414  1.00  0.00    -0.350 C  
BRANCH   8   9
HETATM    9  C   UNL     1     -11.301  13.165  64.416  1.00  0.00    -0.400 C  
BRANCH   9  10
HETATM   10  C   UNL     1     -10.215  12.394  63.675  1.00  0.00    -0.383 C  
BRANCH  10  11
HETATM   11  C   UNL     1     -10.269  10.908  64.017  1.00  0.00    -0.422 C  
BRANCH  11  12
HETATM   12  C   UNL     1      -9.091  10.517  64.903  1.00  0.00    -0.235 C  
BRANCH  12  13
HETATM   13  C   UNL     1      -9.566   9.896  66.213  1.00  0.00    -0.265 C  
BRANCH  13  14
HETATM   14  C   UNL     1      -9.274  10.827  67.388  1.00  0.00    -0.156 C  
BRANCH  14  15
HETATM   15  C   UNL     1     -10.390  10.772  68.428  1.00  0.00    -0.199 C  
HETATM   16  C   UNL     1      -9.943  10.071  69.690  1.00  0.00    -0.236 C  
HETATM   17  O   UNL     1     -10.926  10.019  70.620  1.00  0.00    -0.300 OA 
HETATM   18  O   UNL     1      -8.836   9.595  69.883  1.00  0.00    -0.187 OA 
ENDBRANCH  14  15
ENDBRANCH  13  14
ENDBRANCH  12  13
ENDBRANCH  11  12
ENDBRANCH  10  11
ENDBRANCH   9  10
ENDBRANCH   8   9
ENDBRANCH   7   8
ENDBRANCH   6   7
ENDBRANCH   5   6
ENDBRANCH   4   5
ENDBRANCH   3   4
ENDBRANCH   2   3
TORSDOF 13
ENDMDL
MODEL      229
REMARK 921   NORMALIZED FREE ENERGY PREDICTED BY IDOCK:   -3.32 KCAL/MOL
REMARK 922        TOTAL FREE ENERGY PREDICTED BY IDOCK:   -7.26 KCAL/MOL
REMARK 923 INTER-LIGAND FREE ENERGY PREDICTED BY IDOCK:   -5.72 KCAL/MOL
REMARK 924 INTRA-LIGAND FREE ENERGY PREDICTED BY IDOCK:   -1.53 KCAL/MOL
REMARK 927      BINDING AFFINITY PREDICTED BY RF-SCORE:    0.00 PKD
ROOT
HETATM    1  C   UNL     1     -10.117  10.761  64.627  1.00  0.00    -0.410 C  
HETATM    2  C   UNL     1      -9.377  10.604  65.944  1.00  0.00    -0.224 C  
ENDROOT
BRANCH   2   3
HETATM    3  C   UNL     1      -9.313   9.138  66.368  1.00  0.00    -0.261 C  
BRANCH   3   4
HETATM    4  C   UNL     1     -10.432   8.801  67.350  1.00  0.00    -0.349 C  
BRANCH   4   5
HETATM    5  C   UNL     1      -9.864   8.465  68.726  1.00  0.00    -0.180 C  
BRANCH   5   6
HETATM    6  C   UNL     1      -9.889   9.687  69.638  1.00  0.00    -0.233 C  
BRANCH   6   7
HETATM    7  C   UNL     1     -11.278  10.317  69.659  1.00  0.00    -0.322 C  
BRANCH   7   8
HETATM    8  C   UNL     1     -11.190  11.829  69.494  1.00  0.00    -0.265 C  
BRANCH   8   9
HETATM    9  C   UNL     1     -11.774  12.261  68.153  1.00  0.00    -0.408 C  
BRANCH   9  10
HETATM   10  C   UNL     1     -10.906  13.334  67.506  1.00  0.00    -0.276 C  
BRANCH  10  11
HETATM   11  C   UNL     1     -11.727  14.577  67.177  1.00  0.00    -0.420 C  
BRANCH  11  12
HETATM   12  C   UNL     1     -11.709  15.558  68.344  1.00  0.00    -0.323 C  
BRANCH  12  13
HETATM   13  C   UNL     1     -10.353  15.561  69.045  1.00  0.00    -0.235 C  
BRANCH  13  14
HETATM   14  C   UNL     1      -9.359  16.444  68.294  1.00  0.00    -0.210 C  
BRANCH  14  15
HETATM   15  C   UNL     1      -9.957  17.814  67.988  1.00  0.00    -0.333 C  
HETATM   16  C   UNL     1      -9.844  18.159  66.521  1.00  0.00    -0.362 C  
HETATM   17  O   UNL     1     -10.373  19.373  66.240  1.00  0.00    -0.418 OA 
HETATM   18  O   UNL     1      -9.341  17.452  65.664  1.00  0.00    -0.496 OA 
ENDBRANCH  14  15
ENDBRANCH  13  14
ENDBRANCH  12  13
ENDBRANCH  11  12
ENDBRANCH  10  11
ENDBRANCH   9  10
ENDBRANCH   8   9
ENDBRANCH   7   8
ENDBRANCH   6   7
ENDBRANCH   5   6
ENDBRANCH   4   5
ENDBRANCH   3   4
ENDBRANCH   2   3
TORSDOF 13
ENDMDL
MODEL      230
REMARK 921   NORMALIZED FREE ENERGY PREDICTED BY IDOCK:   -3.32 KCAL/MOL
REMARK 922        TOTAL FREE ENERGY PREDICTED BY IDOCK:   -7.24 KCAL/MOL
REMARK 923 INTER-LIGAND FREE ENERGY PREDICTED BY IDOCK:   -6.12 KCAL/MOL
REMARK 924 INTRA-LIGAND FREE ENERGY PREDICTED BY IDOCK:   -1.12 KCAL/MOL
REMARK 927      BINDING AFFINITY PREDICTED BY RF-SCORE:    0.00 PKD
ROOT
HETATM    1  C   UNL     1     -12.542  15.932  72.644  1.00  0.00    -0.562 C  
HETATM    2  C   UNL     1     -13.723  15.450  71.820  1.00  0.00    -0.610 C  
ENDROOT
BRANCH   2   3
HETATM    3  C   UNL     1     -14.155  14.048  72.243  1.00  0.00    -0.633 C  
BRANCH   3   4
HETATM    4  C   UNL     1     -12.951  13.118  72.374  1.00  0.00    -0.292 C  
BRANCH   4   5
HETATM    5  C   UNL     1     -13.265  11.740  71.798  1.00  0.00    -0.434 C  
BRANCH   5   6
HETATM    6  C   UNL     1     -12.522  11.516  70.485  1.00  0.00    -0.367 C  
BRANCH   6   7
HETATM    7  C   UNL     1     -11.742  12.765  70.087  1.00  0.00    -0.239 C  
BRANCH   7   8
HETATM    8  C   UNL     1     -12.022  13.140  68.636  1.00  0.00    -0.319 C  
BRANCH   8   9
HETATM    9  C   UNL     1     -11.273  12.213  67.684  1.00  0.00    -0.345 C  
BRANCH   9  10
HETATM   10  C   UNL     1     -11.361  12.725  66.252  1.00  0.00    -0.365 C  
BRANCH  10  11
HETATM   11  C   UNL     1     -10.106  13.504  65.871  1.00  0.00    -0.311 C  
BRANCH  11  12
HETATM   12  C   UNL     1     -10.351  15.005  65.975  1.00  0.00    -0.326 C  
BRANCH  12  13
HETATM   13  C   UNL     1      -9.037  15.779  66.022  1.00  0.00    -0.361 C  
BRANCH  13  14
HETATM   14  C   UNL     1      -8.169  15.298  67.183  1.00  0.00    -0.250 C  
BRANCH  14  15
HETATM   15  C   UNL     1      -7.077  16.310  67.515  1.00  0.00    -0.178 C  
HETATM   16  C   UNL     1      -7.463  17.185  68.684  1.00  0.00    -0.245 C  
HETATM   17  O   UNL     1      -6.498  18.086  68.988  1.00  0.00    -0.222 OA 
HETATM   18  O   UNL     1      -8.511  17.118  69.305  1.00  0.00    -0.061 OA 
ENDBRANCH  14  15
ENDBRANCH  13  14
ENDBRANCH  12  13
ENDBRANCH  11  12
ENDBRANCH  10  11
ENDBRANCH   9  10
ENDBRANCH   8   9
ENDBRANCH   7   8
ENDBRANCH   6   7
ENDBRANCH   5   6
ENDBRANCH   4   5
ENDBRANCH   3   4
ENDBRANCH   2   3
TORSDOF 13
ENDMDL
MODEL      231
REMARK 921   NORMALIZED FREE ENERGY PREDICTED BY IDOCK:   -3.31 KCAL/MOL
REMARK 922        TOTAL FREE ENERGY PREDICTED BY IDOCK:   -7.24 KCAL/MOL
REMARK 923 INTER-LIGAND FREE ENERGY PREDICTED BY IDOCK:   -5.00 KCAL/MOL
REMARK 924 INTRA-LIGAND FREE ENERGY PREDICTED BY IDOCK:   -2.24 KCAL/MOL
REMARK 927      BINDING AFFINITY PREDICTED BY RF-SCORE:    0.00 PKD
ROOT
HETATM    1  C   UNL     1      -7.814   7.524  67.505  1.00  0.00    -0.116 C  
HETATM    2  C   UNL     1      -7.861   7.218  68.992  1.00  0.00    -0.118 C  
ENDROOT
BRANCH   2   3
HETATM    3  C   UNL     1      -8.908   6.151  69.302  1.00  0.00    -0.124 C  
BRANCH   3   4
HETATM    4  C   UNL     1     -10.259   6.511  68.689  1.00  0.00    -0.192 C  
BRANCH   4   5
HETATM    5  C   UNL     1     -11.379   6.348  69.712  1.00  0.00    -0.494 C  
BRANCH   5   6
HETATM    6  C   UNL     1     -10.853   5.728  71.003  1.00  0.00    -0.316 C  
BRANCH   6   7
HETATM    7  C   UNL     1     -11.712   6.148  72.192  1.00  0.00    -0.361 C  
BRANCH   7   8
HETATM    8  C   UNL     1     -11.283   7.514  72.714  1.00  0.00    -0.403 C  
BRANCH   8   9
HETATM    9  C   UNL     1      -9.764   7.649  72.690  1.00  0.00    -0.251 C  
BRANCH   9  10
HETATM   10  C   UNL     1      -9.340   8.814  71.804  1.00  0.00    -0.350 C  
BRANCH  10  11
HETATM   11  C   UNL     1     -10.553   9.494  71.176  1.00  0.00    -0.388 C  
BRANCH  11  12
HETATM   12  C   UNL     1     -10.201  10.063  69.805  1.00  0.00    -0.286 C  
BRANCH  12  13
HETATM   13  C   UNL     1     -11.119  11.225  69.436  1.00  0.00    -0.316 C  
BRANCH  13  14
HETATM   14  C   UNL     1     -11.567  11.118  67.981  1.00  0.00    -0.337 C  
BRANCH  14  15
HETATM   15  C   UNL     1     -10.604  10.258  67.167  1.00  0.00    -0.320 C  
HETATM   16  C   UNL     1      -9.826  11.084  66.168  1.00  0.00    -0.225 C  
HETATM   17  O   UNL     1      -8.967  10.330  65.442  1.00  0.00    -0.159 OA 
HETATM   18  O   UNL     1      -9.934  12.289  66.007  1.00  0.00    -0.243 OA 
ENDBRANCH  14  15
ENDBRANCH  13  14
ENDBRANCH  12  13
ENDBRANCH  11  12
ENDBRANCH  10  11
ENDBRANCH   9  10
ENDBRANCH   8   9
ENDBRANCH   7   8
ENDBRANCH   6   7
ENDBRANCH   5   6
ENDBRANCH   4   5
ENDBRANCH   3   4
ENDBRANCH   2   3
TORSDOF 13
ENDMDL
MODEL      232
REMARK 921   NORMALIZED FREE ENERGY PREDICTED BY IDOCK:   -3.30 KCAL/MOL
REMARK 922        TOTAL FREE ENERGY PREDICTED BY IDOCK:   -7.22 KCAL/MOL
REMARK 923 INTER-LIGAND FREE ENERGY PREDICTED BY IDOCK:   -6.57 KCAL/MOL
REMARK 924 INTRA-LIGAND FREE ENERGY PREDICTED BY IDOCK:   -0.65 KCAL/MOL
REMARK 927      BINDING AFFINITY PREDICTED BY RF-SCORE:    0.00 PKD
ROOT
HETATM    1  C   UNL     1     -10.929   6.591  68.705  1.00  0.00    -0.371 C  
HETATM    2  C   UNL     1     -11.473   6.271  70.087  1.00  0.00    -0.452 C  
ENDROOT
BRANCH   2   3
HETATM    3  C   UNL     1     -11.541   7.525  70.956  1.00  0.00    -0.305 C  
BRANCH   3   4
HETATM    4  C   UNL     1     -12.689   7.439  71.957  1.00  0.00    -0.239 C  
BRANCH   4   5
HETATM    5  C   UNL     1     -13.458   8.756  72.016  1.00  0.00    -0.461 C  
BRANCH   5   6
HETATM    6  C   UNL     1     -12.666   9.879  71.355  1.00  0.00    -0.503 C  
BRANCH   6   7
HETATM    7  C   UNL     1     -13.135  11.240  71.861  1.00  0.00    -0.510 C  
BRANCH   7   8
HETATM    8  C   UNL     1     -12.654  12.355  70.940  1.00  0.00    -0.337 C  
BRANCH   8   9
HETATM    9  C   UNL     1     -12.509  13.665  71.708  1.00  0.00    -0.207 C  
BRANCH   9  10
HETATM   10  C   UNL     1     -13.294  14.780  71.027  1.00  0.00    -0.427 C  
BRANCH  10  11
HETATM   11  C   UNL     1     -12.356  15.814  70.412  1.00  0.00    -0.367 C  
BRANCH  11  12
HETATM   12  C   UNL     1     -10.913  15.321  70.450  1.00  0.00    -0.317 C  
BRANCH  12  13
HETATM   13  C   UNL     1     -10.121  15.834  69.251  1.00  0.00    -0.255 C  
BRANCH  13  14
HETATM   14  C   UNL     1     -10.890  16.938  68.529  1.00  0.00    -0.335 C  
BRANCH  14  15
HETATM   15  C   UNL     1     -10.100  18.244  68.513  1.00  0.00    -0.419 C  
HETATM   16  C   UNL     1     -10.138  18.902  67.153  1.00  0.00    -0.358 C  
HETATM   17  O   UNL     1      -9.441  20.062  67.129  1.00  0.00    -0.340 OA 
HETATM   18  O   UNL     1     -10.717  18.468  66.171  1.00  0.00    -0.365 OA 
ENDBRANCH  14  15
ENDBRANCH  13  14
ENDBRANCH  12  13
ENDBRANCH  11  12
ENDBRANCH  10  11
ENDBRANCH   9  10
ENDBRANCH   8   9
ENDBRANCH   7   8
ENDBRANCH   6   7
ENDBRANCH   5   6
ENDBRANCH   4   5
ENDBRANCH   3   4
ENDBRANCH   2   3
TORSDOF 13
ENDMDL
MODEL      233
REMARK 921   NORMALIZED FREE ENERGY PREDICTED BY IDOCK:   -3.30 KCAL/MOL
REMARK 922        TOTAL FREE ENERGY PREDICTED BY IDOCK:   -7.22 KCAL/MOL
REMARK 923 INTER-LIGAND FREE ENERGY PREDICTED BY IDOCK:   -6.11 KCAL/MOL
REMARK 924 INTRA-LIGAND FREE ENERGY PREDICTED BY IDOCK:   -1.11 KCAL/MOL
REMARK 927      BINDING AFFINITY PREDICTED BY RF-SCORE:    0.00 PKD
ROOT
HETATM    1  C   UNL     1     -12.058  14.867  64.462  1.00  0.00    -0.420 C  
HETATM    2  C   UNL     1     -12.599  13.924  65.523  1.00  0.00    -0.560 C  
ENDROOT
BRANCH   2   3
HETATM    3  C   UNL     1     -12.160  12.486  65.256  1.00  0.00    -0.500 C  
BRANCH   3   4
HETATM    4  C   UNL     1     -11.409  11.909  66.452  1.00  0.00    -0.400 C  
BRANCH   4   5
HETATM    5  C   UNL     1     -10.032  11.399  66.034  1.00  0.00    -0.269 C  
BRANCH   5   6
HETATM    6  C   UNL     1      -8.927  12.149  66.769  1.00  0.00    -0.203 C  
BRANCH   6   7
HETATM    7  C   UNL     1      -8.883  11.741  68.238  1.00  0.00    -0.172 C  
BRANCH   7   8
HETATM    8  C   UNL     1      -9.033  10.231  68.386  1.00  0.00    -0.132 C  
BRANCH   8   9
HETATM    9  C   UNL     1      -9.882   9.890  69.606  1.00  0.00    -0.255 C  
BRANCH   9  10
HETATM   10  C   UNL     1     -11.275  10.494  69.481  1.00  0.00    -0.329 C  
BRANCH  10  11
HETATM   11  C   UNL     1     -11.912  10.692  70.853  1.00  0.00    -0.469 C  
BRANCH  11  12
HETATM   12  C   UNL     1     -11.627   9.495  71.755  1.00  0.00    -0.382 C  
BRANCH  12  13
HETATM   13  C   UNL     1     -12.903   8.715  72.058  1.00  0.00    -0.425 C  
BRANCH  13  14
HETATM   14  C   UNL     1     -12.916   7.388  71.303  1.00  0.00    -0.358 C  
BRANCH  14  15
HETATM   15  C   UNL     1     -11.758   6.493  71.737  1.00  0.00    -0.373 C  
HETATM   16  C   UNL     1     -11.043   5.891  70.550  1.00  0.00    -0.277 C  
HETATM   17  O   UNL     1     -10.013   5.096  70.924  1.00  0.00    -0.185 OA 
HETATM   18  O   UNL     1     -11.333   6.076  69.379  1.00  0.00    -0.398 OA 
ENDBRANCH  14  15
ENDBRANCH  13  14
ENDBRANCH  12  13
ENDBRANCH  11  12
ENDBRANCH  10  11
ENDBRANCH   9  10
ENDBRANCH   8   9
ENDBRANCH   7   8
ENDBRANCH   6   7
ENDBRANCH   5   6
ENDBRANCH   4   5
ENDBRANCH   3   4
ENDBRANCH   2   3
TORSDOF 13
ENDMDL
MODEL      234
REMARK 921   NORMALIZED FREE ENERGY PREDICTED BY IDOCK:   -3.30 KCAL/MOL
REMARK 922        TOTAL FREE ENERGY PREDICTED BY IDOCK:   -7.22 KCAL/MOL
REMARK 923 INTER-LIGAND FREE ENERGY PREDICTED BY IDOCK:   -5.45 KCAL/MOL
REMARK 924 INTRA-LIGAND FREE ENERGY PREDICTED BY IDOCK:   -1.77 KCAL/MOL
REMARK 927      BINDING AFFINITY PREDICTED BY RF-SCORE:    0.00 PKD
ROOT
HETATM    1  C   UNL     1      -8.612  10.172  63.288  1.00  0.00    -0.198 C  
HETATM    2  C   UNL     1      -9.749  11.091  63.702  1.00  0.00    -0.364 C  
ENDROOT
BRANCH   2   3
HETATM    3  C   UNL     1     -10.145  10.856  65.157  1.00  0.00    -0.352 C  
BRANCH   3   4
HETATM    4  C   UNL     1     -11.577  11.313  65.418  1.00  0.00     0.282 C  
BRANCH   4   5
HETATM    5  C   UNL     1     -11.719  11.875  66.830  1.00  0.00    -0.291 C  
BRANCH   5   6
HETATM    6  C   UNL     1     -10.571  11.409  67.720  1.00  0.00    -0.231 C  
BRANCH   6   7
HETATM    7  C   UNL     1     -10.547  12.196  69.026  1.00  0.00    -0.117 C  
BRANCH   7   8
HETATM    8  C   UNL     1     -11.945  12.295  69.625  1.00  0.00    -0.347 C  
BRANCH   8   9
HETATM    9  C   UNL     1     -12.303  13.746  69.927  1.00  0.00    -0.334 C  
BRANCH   9  10
HETATM   10  C   UNL     1     -11.047  14.606  70.010  1.00  0.00    -0.204 C  
BRANCH  10  11
HETATM   11  C   UNL     1     -11.245  15.936  69.290  1.00  0.00    -0.335 C  
BRANCH  11  12
HETATM   12  C   UNL     1     -11.423  15.715  67.791  1.00  0.00    -0.209 C  
BRANCH  12  13
HETATM   13  C   UNL     1     -10.096  15.853  67.050  1.00  0.00    -0.268 C  
BRANCH  13  14
HETATM   14  C   UNL     1     -10.331  16.080  65.559  1.00  0.00    -0.415 C  
BRANCH  14  15
HETATM   15  C   UNL     1     -10.840  14.812  64.879  1.00  0.00    -0.433 C  
HETATM   16  C   UNL     1     -12.059  15.085  64.029  1.00  0.00    -0.094 C  
HETATM   17  O   UNL     1     -12.518  13.966  63.420  1.00  0.00    -0.833 OA 
HETATM   18  O   UNL     1     -12.595  16.172  63.886  1.00  0.00    -0.703 OA 
ENDBRANCH  14  15
ENDBRANCH  13  14
ENDBRANCH  12  13
ENDBRANCH  11  12
ENDBRANCH  10  11
ENDBRANCH   9  10
ENDBRANCH   8   9
ENDBRANCH   7   8
ENDBRANCH   6   7
ENDBRANCH   5   6
ENDBRANCH   4   5
ENDBRANCH   3   4
ENDBRANCH   2   3
TORSDOF 13
ENDMDL
MODEL      235
REMARK 921   NORMALIZED FREE ENERGY PREDICTED BY IDOCK:   -3.28 KCAL/MOL
REMARK 922        TOTAL FREE ENERGY PREDICTED BY IDOCK:   -7.19 KCAL/MOL
REMARK 923 INTER-LIGAND FREE ENERGY PREDICTED BY IDOCK:   -5.83 KCAL/MOL
REMARK 924 INTRA-LIGAND FREE ENERGY PREDICTED BY IDOCK:   -1.35 KCAL/MOL
REMARK 927      BINDING AFFINITY PREDICTED BY RF-SCORE:    0.00 PKD
ROOT
HETATM    1  C   UNL     1      -8.796   9.333  67.296  1.00  0.00    -0.132 C  
HETATM    2  C   UNL     1      -9.956   8.351  67.305  1.00  0.00    -0.291 C  
ENDROOT
BRANCH   2   3
HETATM    3  C   UNL     1      -9.664   7.163  68.218  1.00  0.00    -0.148 C  
BRANCH   3   4
HETATM    4  C   UNL     1     -10.892   6.270  68.369  1.00  0.00    -0.394 C  
BRANCH   4   5
HETATM    5  C   UNL     1     -11.335   6.199  69.828  1.00  0.00    -0.452 C  
BRANCH   5   6
HETATM    6  C   UNL     1     -10.475   7.104  70.703  1.00  0.00    -0.226 C  
BRANCH   6   7
HETATM    7  C   UNL     1     -11.348   8.037  71.537  1.00  0.00    -0.299 C  
BRANCH   7   8
HETATM    8  C   UNL     1     -10.757   9.441  71.578  1.00  0.00    -0.367 C  
BRANCH   8   9
HETATM    9  C   UNL     1     -11.140  10.225  70.328  1.00  0.00    -0.388 C  
BRANCH   9  10
HETATM   10  C   UNL     1     -12.144  11.321  70.664  1.00  0.00    -0.480 C  
BRANCH  10  11
HETATM   11  C   UNL     1     -11.894  12.570  69.825  1.00  0.00    -0.380 C  
BRANCH  11  12
HETATM   12  C   UNL     1     -11.771  12.210  68.348  1.00  0.00    -0.388 C  
BRANCH  12  13
HETATM   13  C   UNL     1     -10.551  12.875  67.717  1.00  0.00    -0.231 C  
BRANCH  13  14
HETATM   14  C   UNL     1     -10.577  14.384  67.949  1.00  0.00    -0.240 C  
BRANCH  14  15
HETATM   15  C   UNL     1      -9.990  15.138  66.760  1.00  0.00    -0.246 C  
HETATM   16  C   UNL     1     -10.233  16.626  66.868  1.00  0.00    -0.291 C  
HETATM   17  O   UNL     1      -9.714  17.304  65.817  1.00  0.00    -0.530 OA 
HETATM   18  O   UNL     1     -10.823  17.184  67.778  1.00  0.00    -0.348 OA 
ENDBRANCH  14  15
ENDBRANCH  13  14
ENDBRANCH  12  13
ENDBRANCH  11  12
ENDBRANCH  10  11
ENDBRANCH   9  10
ENDBRANCH   8   9
ENDBRANCH   7   8
ENDBRANCH   6   7
ENDBRANCH   5   6
ENDBRANCH   4   5
ENDBRANCH   3   4
ENDBRANCH   2   3
TORSDOF 13
ENDMDL
MODEL      236
REMARK 921   NORMALIZED FREE ENERGY PREDICTED BY IDOCK:   -3.28 KCAL/MOL
REMARK 922        TOTAL FREE ENERGY PREDICTED BY IDOCK:   -7.19 KCAL/MOL
REMARK 923 INTER-LIGAND FREE ENERGY PREDICTED BY IDOCK:   -5.44 KCAL/MOL
REMARK 924 INTRA-LIGAND FREE ENERGY PREDICTED BY IDOCK:   -1.74 KCAL/MOL
REMARK 927      BINDING AFFINITY PREDICTED BY RF-SCORE:    0.00 PKD
ROOT
HETATM    1  C   UNL     1      -9.063   6.377  68.760  1.00  0.00    -0.125 C  
HETATM    2  C   UNL     1     -10.448   5.794  68.537  1.00  0.00    -0.290 C  
ENDROOT
BRANCH   2   3
HETATM    3  C   UNL     1     -11.486   6.488  69.415  1.00  0.00    -0.346 C  
BRANCH   3   4
HETATM    4  C   UNL     1     -11.165   6.303  70.896  1.00  0.00    -0.386 C  
BRANCH   4   5
HETATM    5  C   UNL     1     -10.828   7.640  71.549  1.00  0.00    -0.256 C  
BRANCH   5   6
HETATM    6  C   UNL     1     -11.900   8.040  72.558  1.00  0.00    -0.419 C  
BRANCH   6   7
HETATM    7  C   UNL     1     -12.878   9.034  71.941  1.00  0.00    -0.451 C  
BRANCH   7   8
HETATM    8  C   UNL     1     -12.167  10.325  71.554  1.00  0.00    -0.449 C  
BRANCH   8   9
HETATM    9  C   UNL     1     -12.580  10.771  70.155  1.00  0.00    -0.309 C  
BRANCH   9  10
HETATM   10  C   UNL     1     -11.360  11.168  69.332  1.00  0.00    -0.352 C  
BRANCH  10  11
HETATM   11  C   UNL     1     -10.753   9.956  68.633  1.00  0.00    -0.256 C  
BRANCH  11  12
HETATM   12  C   UNL     1      -9.242  10.112  68.501  1.00  0.00    -0.144 C  
BRANCH  12  13
HETATM   13  C   UNL     1      -8.787   9.890  67.061  1.00  0.00    -0.144 C  
BRANCH  13  14
HETATM   14  C   UNL     1      -9.988   9.672  66.143  1.00  0.00    -0.346 C  
BRANCH  14  15
HETATM   15  C   UNL     1     -10.123  10.804  65.129  1.00  0.00    -0.363 C  
HETATM   16  C   UNL     1      -9.587  10.407  63.774  1.00  0.00    -0.310 C  
HETATM   17  O   UNL     1      -9.704  11.405  62.866  1.00  0.00    -0.359 OA 
HETATM   18  O   UNL     1      -9.099   9.325  63.493  1.00  0.00    -0.140 OA 
ENDBRANCH  14  15
ENDBRANCH  13  14
ENDBRANCH  12  13
ENDBRANCH  11  12
ENDBRANCH  10  11
ENDBRANCH   9  10
ENDBRANCH   8   9
ENDBRANCH   7   8
ENDBRANCH   6   7
ENDBRANCH   5   6
ENDBRANCH   4   5
ENDBRANCH   3   4
ENDBRANCH   2   3
TORSDOF 13
ENDMDL
MODEL      237
REMARK 921   NORMALIZED FREE ENERGY PREDICTED BY IDOCK:   -3.27 KCAL/MOL
REMARK 922        TOTAL FREE ENERGY PREDICTED BY IDOCK:   -7.17 KCAL/MOL
REMARK 923 INTER-LIGAND FREE ENERGY PREDICTED BY IDOCK:   -5.29 KCAL/MOL
REMARK 924 INTRA-LIGAND FREE ENERGY PREDICTED BY IDOCK:   -1.87 KCAL/MOL
REMARK 927      BINDING AFFINITY PREDICTED BY RF-SCORE:    0.00 PKD
ROOT
HETATM    1  C   UNL     1     -11.822   6.617  70.481  1.00  0.00    -0.430 C  
HETATM    2  C   UNL     1     -11.426   8.013  70.928  1.00  0.00    -0.291 C  
ENDROOT
BRANCH   2   3
HETATM    3  C   UNL     1      -9.910   8.189  70.908  1.00  0.00    -0.203 C  
BRANCH   3   4
HETATM    4  C   UNL     1      -9.200   6.879  71.235  1.00  0.00    -0.157 C  
BRANCH   4   5
HETATM    5  C   UNL     1      -8.125   6.570  70.196  1.00  0.00    -0.121 C  
BRANCH   5   6
HETATM    6  C   UNL     1      -7.517   7.854  69.643  1.00  0.00    -0.092 C  
BRANCH   6   7
HETATM    7  C   UNL     1      -7.357   7.767  68.129  1.00  0.00    -0.106 C  
BRANCH   7   8
HETATM    8  C   UNL     1      -8.288   6.711  67.545  1.00  0.00    -0.121 C  
BRANCH   8   9
HETATM    9  C   UNL     1      -9.130   7.297  66.417  1.00  0.00    -0.192 C  
BRANCH   9  10
HETATM   10  C   UNL     1     -10.558   7.554  66.886  1.00  0.00    -0.367 C  
BRANCH  10  11
HETATM   11  C   UNL     1     -10.748   9.014  67.287  1.00  0.00    -0.222 C  
BRANCH  11  12
HETATM   12  C   UNL     1     -10.162   9.943  66.228  1.00  0.00    -0.282 C  
BRANCH  12  13
HETATM   13  C   UNL     1      -9.954  11.350  66.781  1.00  0.00    -0.238 C  
BRANCH  13  14
HETATM   14  C   UNL     1     -10.207  12.398  65.700  1.00  0.00    -0.285 C  
BRANCH  14  15
HETATM   15  C   UNL     1     -11.058  11.831  64.567  1.00  0.00    -0.376 C  
HETATM   16  C   UNL     1     -12.371  12.566  64.433  1.00  0.00    -0.455 C  
HETATM   17  O   UNL     1     -13.133  12.071  63.430  1.00  0.00    -0.747 OA 
HETATM   18  O   UNL     1     -12.736  13.499  65.130  1.00  0.00    -0.611 OA 
ENDBRANCH  14  15
ENDBRANCH  13  14
ENDBRANCH  12  13
ENDBRANCH  11  12
ENDBRANCH  10  11
ENDBRANCH   9  10
ENDBRANCH   8   9
ENDBRANCH   7   8
ENDBRANCH   6   7
ENDBRANCH   5   6
ENDBRANCH   4   5
ENDBRANCH   3   4
ENDBRANCH   2   3
TORSDOF 13
ENDMDL
MODEL      238
REMARK 921   NORMALIZED FREE ENERGY PREDICTED BY IDOCK:   -3.27 KCAL/MOL
REMARK 922        TOTAL FREE ENERGY PREDICTED BY IDOCK:   -7.15 KCAL/MOL
REMARK 923 INTER-LIGAND FREE ENERGY PREDICTED BY IDOCK:   -5.90 KCAL/MOL
REMARK 924 INTRA-LIGAND FREE ENERGY PREDICTED BY IDOCK:   -1.26 KCAL/MOL
REMARK 927      BINDING AFFINITY PREDICTED BY RF-SCORE:    0.00 PKD
ROOT
HETATM    1  C   UNL     1      -9.144   8.907  71.256  1.00  0.00    -0.323 C  
HETATM    2  C   UNL     1      -9.253   7.472  71.743  1.00  0.00    -0.162 C  
ENDROOT
BRANCH   2   3
HETATM    3  C   UNL     1     -10.704   6.998  71.737  1.00  0.00    -0.242 C  
BRANCH   3   4
HETATM    4  C   UNL     1     -11.615   8.005  72.433  1.00  0.00    -0.450 C  
BRANCH   4   5
HETATM    5  C   UNL     1     -13.026   7.950  71.854  1.00  0.00    -0.323 C  
BRANCH   5   6
HETATM    6  C   UNL     1     -13.634   9.346  71.767  1.00  0.00    -0.461 C  
BRANCH   6   7
HETATM    7  C   UNL     1     -12.694  10.300  71.037  1.00  0.00    -0.491 C  
BRANCH   7   8
HETATM    8  C   UNL     1     -13.044  11.750  71.348  1.00  0.00    -0.322 C  
BRANCH   8   9
HETATM    9  C   UNL     1     -12.353  12.694  70.369  1.00  0.00    -0.315 C  
BRANCH   9  10
HETATM   10  C   UNL     1     -12.874  14.117  70.532  1.00  0.00    -0.310 C  
BRANCH  10  11
HETATM   11  C   UNL     1     -11.833  15.008  71.203  1.00  0.00    -0.382 C  
BRANCH  11  12
HETATM   12  C   UNL     1     -11.296  16.042  70.219  1.00  0.00    -0.391 C  
BRANCH  12  13
HETATM   13  C   UNL     1      -9.923  15.639  69.686  1.00  0.00    -0.290 C  
BRANCH  13  14
HETATM   14  C   UNL     1      -9.944  15.537  68.163  1.00  0.00    -0.217 C  
BRANCH  14  15
HETATM   15  C   UNL     1      -9.975  14.081  67.706  1.00  0.00    -0.236 C  
HETATM   16  C   UNL     1     -11.221  13.772  66.909  1.00  0.00    -0.313 C  
HETATM   17  O   UNL     1     -11.256  12.483  66.497  1.00  0.00    -0.277 OA 
HETATM   18  O   UNL     1     -12.111  14.565  66.648  1.00  0.00    -0.393 OA 
ENDBRANCH  14  15
ENDBRANCH  13  14
ENDBRANCH  12  13
ENDBRANCH  11  12
ENDBRANCH  10  11
ENDBRANCH   9  10
ENDBRANCH   8   9
ENDBRANCH   7   8
ENDBRANCH   6   7
ENDBRANCH   5   6
ENDBRANCH   4   5
ENDBRANCH   3   4
ENDBRANCH   2   3
TORSDOF 13
ENDMDL
MODEL      239
REMARK 921   NORMALIZED FREE ENERGY PREDICTED BY IDOCK:   -3.25 KCAL/MOL
REMARK 922        TOTAL FREE ENERGY PREDICTED BY IDOCK:   -7.14 KCAL/MOL
REMARK 923 INTER-LIGAND FREE ENERGY PREDICTED BY IDOCK:   -6.03 KCAL/MOL
REMARK 924 INTRA-LIGAND FREE ENERGY PREDICTED BY IDOCK:   -1.10 KCAL/MOL
REMARK 927      BINDING AFFINITY PREDICTED BY RF-SCORE:    0.00 PKD
ROOT
HETATM    1  C   UNL     1     -12.058  14.111  64.289  1.00  0.00    -0.471 C  
HETATM    2  C   UNL     1     -12.227  12.817  63.512  1.00  0.00    -0.613 C  
ENDROOT
BRANCH   2   3
HETATM    3  C   UNL     1     -11.082  11.848  63.799  1.00  0.00    -0.510 C  
BRANCH   3   4
HETATM    4  C   UNL     1     -10.325  12.251  65.062  1.00  0.00    -0.321 C  
BRANCH   4   5
HETATM    5  C   UNL     1      -9.289  11.194  65.433  1.00  0.00    -0.243 C  
BRANCH   5   6
HETATM    6  C   UNL     1      -9.936   9.820  65.572  1.00  0.00    -0.329 C  
BRANCH   6   7
HETATM    7  C   UNL     1     -10.556   9.653  66.956  1.00  0.00    -0.267 C  
BRANCH   7   8
HETATM    8  C   UNL     1     -10.393   8.222  67.454  1.00  0.00    -0.350 C  
BRANCH   8   9
HETATM    9  C   UNL     1      -9.846   8.203  68.877  1.00  0.00    -0.178 C  
BRANCH   9  10
HETATM   10  C   UNL     1      -9.749   9.618  69.437  1.00  0.00    -0.203 C  
BRANCH  10  11
HETATM   11  C   UNL     1     -10.716   9.813  70.601  1.00  0.00    -0.394 C  
BRANCH  11  12
HETATM   12  C   UNL     1     -11.519   8.542  70.853  1.00  0.00    -0.302 C  
BRANCH  12  13
HETATM   13  C   UNL     1     -11.772   8.334  72.344  1.00  0.00    -0.463 C  
BRANCH  13  14
HETATM   14  C   UNL     1     -10.639   7.527  72.975  1.00  0.00    -0.422 C  
BRANCH  14  15
HETATM   15  C   UNL     1     -10.505   6.155  72.323  1.00  0.00    -0.229 C  
HETATM   16  C   UNL     1     -10.667   5.040  73.330  1.00  0.00    -0.258 C  
HETATM   17  O   UNL     1     -10.552   3.817  72.760  1.00  0.00    -0.169 OA 
HETATM   18  O   UNL     1     -10.877   5.186  74.523  1.00  0.00    -0.311 OA 
ENDBRANCH  14  15
ENDBRANCH  13  14
ENDBRANCH  12  13
ENDBRANCH  11  12
ENDBRANCH  10  11
ENDBRANCH   9  10
ENDBRANCH   8   9
ENDBRANCH   7   8
ENDBRANCH   6   7
ENDBRANCH   5   6
ENDBRANCH   4   5
ENDBRANCH   3   4
ENDBRANCH   2   3
TORSDOF 13
ENDMDL
MODEL      240
REMARK 921   NORMALIZED FREE ENERGY PREDICTED BY IDOCK:   -3.25 KCAL/MOL
REMARK 922        TOTAL FREE ENERGY PREDICTED BY IDOCK:   -7.13 KCAL/MOL
REMARK 923 INTER-LIGAND FREE ENERGY PREDICTED BY IDOCK:   -5.87 KCAL/MOL
REMARK 924 INTRA-LIGAND FREE ENERGY PREDICTED BY IDOCK:   -1.26 KCAL/MOL
REMARK 927      BINDING AFFINITY PREDICTED BY RF-SCORE:    0.00 PKD
ROOT
HETATM    1  C   UNL     1      -6.239  20.164  69.730  1.00  0.00    -0.381 C  
HETATM    2  C   UNL     1      -6.829  19.665  68.422  1.00  0.00    -0.329 C  
ENDROOT
BRANCH   2   3
HETATM    3  C   UNL     1      -7.978  18.691  68.672  1.00  0.00    -0.356 C  
BRANCH   3   4
HETATM    4  C   UNL     1      -7.506  17.244  68.559  1.00  0.00    -0.241 C  
BRANCH   4   5
HETATM    5  C   UNL     1      -8.695  16.288  68.506  1.00  0.00    -0.211 C  
BRANCH   5   6
HETATM    6  C   UNL     1      -9.960  17.016  68.061  1.00  0.00    -0.283 C  
BRANCH   6   7
HETATM    7  C   UNL     1     -11.160  16.567  68.889  1.00  0.00    -0.300 C  
BRANCH   7   8
HETATM    8  C   UNL     1     -11.188  15.049  69.024  1.00  0.00    -0.279 C  
BRANCH   8   9
HETATM    9  C   UNL     1     -11.957  14.418  67.868  1.00  0.00    -0.348 C  
BRANCH   9  10
HETATM   10  C   UNL     1     -11.022  13.616  66.971  1.00  0.00    -0.298 C  
BRANCH  10  11
HETATM   11  C   UNL     1     -10.128  12.696  67.797  1.00  0.00    -0.220 C  
BRANCH  11  12
HETATM   12  C   UNL     1     -10.459  11.233  67.520  1.00  0.00    -0.234 C  
BRANCH  12  13
HETATM   13  C   UNL     1     -11.545  10.723  68.463  1.00  0.00    -0.325 C  
BRANCH  13  14
HETATM   14  C   UNL     1     -11.173  11.006  69.917  1.00  0.00    -0.327 C  
BRANCH  14  15
HETATM   15  C   UNL     1     -11.593   9.857  70.829  1.00  0.00    -0.430 C  
HETATM   16  C   UNL     1     -12.716  10.261  71.756  1.00  0.00    -0.433 C  
HETATM   17  O   UNL     1     -13.096   9.247  72.568  1.00  0.00    -0.418 OA 
HETATM   18  O   UNL     1     -13.241  11.361  71.795  1.00  0.00    -0.458 OA 
ENDBRANCH  14  15
ENDBRANCH  13  14
ENDBRANCH  12  13
ENDBRANCH  11  12
ENDBRANCH  10  11
ENDBRANCH   9  10
ENDBRANCH   8   9
ENDBRANCH   7   8
ENDBRANCH   6   7
ENDBRANCH   5   6
ENDBRANCH   4   5
ENDBRANCH   3   4
ENDBRANCH   2   3
TORSDOF 13
ENDMDL
MODEL      241
REMARK 921   NORMALIZED FREE ENERGY PREDICTED BY IDOCK:   -3.25 KCAL/MOL
REMARK 922        TOTAL FREE ENERGY PREDICTED BY IDOCK:   -7.12 KCAL/MOL
REMARK 923 INTER-LIGAND FREE ENERGY PREDICTED BY IDOCK:   -4.87 KCAL/MOL
REMARK 924 INTRA-LIGAND FREE ENERGY PREDICTED BY IDOCK:   -2.25 KCAL/MOL
REMARK 927      BINDING AFFINITY PREDICTED BY RF-SCORE:    0.00 PKD
ROOT
HETATM    1  C   UNL     1      -8.041   7.078  66.014  1.00  0.00    -0.122 C  
HETATM    2  C   UNL     1      -8.525   8.197  65.107  1.00  0.00    -0.134 C  
ENDROOT
BRANCH   2   3
HETATM    3  C   UNL     1      -7.888   9.530  65.491  1.00  0.00    -0.108 C  
BRANCH   3   4
HETATM    4  C   UNL     1      -8.227  10.615  64.473  1.00  0.00    -0.002 C  
BRANCH   4   5
HETATM    5  C   UNL     1      -9.698  10.542  64.071  1.00  0.00    -0.383 C  
BRANCH   5   6
HETATM    6  C   UNL     1     -10.215  11.911  63.644  1.00  0.00    -0.466 C  
BRANCH   6   7
HETATM    7  C   UNL     1     -11.740  11.916  63.582  1.00  0.00    -0.572 C  
BRANCH   7   8
HETATM    8  C   UNL     1     -12.326  12.728  64.731  1.00  0.00    -0.540 C  
BRANCH   8   9
HETATM    9  C   UNL     1     -11.297  13.711  65.279  1.00  0.00    -0.306 C  
BRANCH   9  10
HETATM   10  C   UNL     1     -11.198  13.599  66.795  1.00  0.00    -0.327 C  
BRANCH  10  11
HETATM   11  C   UNL     1      -9.886  12.941  67.211  1.00  0.00    -0.218 C  
BRANCH  11  12
HETATM   12  C   UNL     1     -10.146  11.766  68.149  1.00  0.00    -0.196 C  
BRANCH  12  13
HETATM   13  C   UNL     1     -11.227  10.844  67.593  1.00  0.00    -0.379 C  
BRANCH  13  14
HETATM   14  C   UNL     1     -10.732   9.400  67.545  1.00  0.00    -0.290 C  
BRANCH  14  15
HETATM   15  C   UNL     1     -10.097   8.988  68.869  1.00  0.00    -0.207 C  
HETATM   16  C   UNL     1     -10.311   7.521  69.158  1.00  0.00    -0.212 C  
HETATM   17  O   UNL     1      -9.748   7.145  70.331  1.00  0.00    -0.176 OA 
HETATM   18  O   UNL     1     -10.914   6.737  68.443  1.00  0.00    -0.228 OA 
ENDBRANCH  14  15
ENDBRANCH  13  14
ENDBRANCH  12  13
ENDBRANCH  11  12
ENDBRANCH  10  11
ENDBRANCH   9  10
ENDBRANCH   8   9
ENDBRANCH   7   8
ENDBRANCH   6   7
ENDBRANCH   5   6
ENDBRANCH   4   5
ENDBRANCH   3   4
ENDBRANCH   2   3
TORSDOF 13
ENDMDL
MODEL      242
REMARK 921   NORMALIZED FREE ENERGY PREDICTED BY IDOCK:   -3.25 KCAL/MOL
REMARK 922        TOTAL FREE ENERGY PREDICTED BY IDOCK:   -7.12 KCAL/MOL
REMARK 923 INTER-LIGAND FREE ENERGY PREDICTED BY IDOCK:   -5.21 KCAL/MOL
REMARK 924 INTRA-LIGAND FREE ENERGY PREDICTED BY IDOCK:   -1.91 KCAL/MOL
REMARK 927      BINDING AFFINITY PREDICTED BY RF-SCORE:    0.00 PKD
ROOT
HETATM    1  C   UNL     1     -12.369  13.770  70.239  1.00  0.00    -0.407 C  
HETATM    2  C   UNL     1     -12.125  12.765  69.126  1.00  0.00    -0.206 C  
ENDROOT
BRANCH   2   3
HETATM    3  C   UNL     1     -11.723  11.405  69.690  1.00  0.00    -0.415 C  
BRANCH   3   4
HETATM    4  C   UNL     1     -11.521  10.384  68.574  1.00  0.00    -0.231 C  
BRANCH   4   5
HETATM    5  C   UNL     1     -10.957  11.052  67.323  1.00  0.00    -0.356 C  
BRANCH   5   6
HETATM    6  C   UNL     1      -9.764  10.273  66.780  1.00  0.00    -0.231 C  
BRANCH   6   7
HETATM    7  C   UNL     1      -8.729  11.220  66.181  1.00  0.00    -0.179 C  
BRANCH   7   8
HETATM    8  C   UNL     1      -7.500  11.316  67.078  1.00  0.00    -0.139 C  
BRANCH   8   9
HETATM    9  C   UNL     1      -7.113  12.773  67.309  1.00  0.00    -0.088 C  
BRANCH   9  10
HETATM   10  C   UNL     1      -7.598  13.250  68.673  1.00  0.00    -0.094 C  
BRANCH  10  11
HETATM   11  C   UNL     1      -8.166  14.663  68.588  1.00  0.00    -0.159 C  
BRANCH  11  12
HETATM   12  C   UNL     1      -7.781  15.320  67.267  1.00  0.00    -0.243 C  
BRANCH  12  13
HETATM   13  C   UNL     1      -9.014  15.811  66.513  1.00  0.00    -0.341 C  
BRANCH  13  14
HETATM   14  C   UNL     1      -9.763  14.638  65.884  1.00  0.00    -0.341 C  
BRANCH  14  15
HETATM   15  C   UNL     1     -11.247  14.675  66.238  1.00  0.00    -0.340 C  
HETATM   16  C   UNL     1     -12.074  13.869  65.264  1.00  0.00    -0.410 C  
HETATM   17  O   UNL     1     -13.393  13.894  65.571  1.00  0.00    -0.662 OA 
HETATM   18  O   UNL     1     -11.640  13.257  64.302  1.00  0.00    -0.365 OA 
ENDBRANCH  14  15
ENDBRANCH  13  14
ENDBRANCH  12  13
ENDBRANCH  11  12
ENDBRANCH  10  11
ENDBRANCH   9  10
ENDBRANCH   8   9
ENDBRANCH   7   8
ENDBRANCH   6   7
ENDBRANCH   5   6
ENDBRANCH   4   5
ENDBRANCH   3   4
ENDBRANCH   2   3
TORSDOF 13
ENDMDL
MODEL      243
REMARK 921   NORMALIZED FREE ENERGY PREDICTED BY IDOCK:   -3.24 KCAL/MOL
REMARK 922        TOTAL FREE ENERGY PREDICTED BY IDOCK:   -7.12 KCAL/MOL
REMARK 923 INTER-LIGAND FREE ENERGY PREDICTED BY IDOCK:   -6.01 KCAL/MOL
REMARK 924 INTRA-LIGAND FREE ENERGY PREDICTED BY IDOCK:   -1.10 KCAL/MOL
REMARK 927      BINDING AFFINITY PREDICTED BY RF-SCORE:    0.00 PKD
ROOT
HETATM    1  C   UNL     1     -12.907  13.594  71.566  1.00  0.00    -0.445 C  
HETATM    2  C   UNL     1     -12.197  12.823  70.467  1.00  0.00    -0.389 C  
ENDROOT
BRANCH   2   3
HETATM    3  C   UNL     1     -12.318  11.317  70.683  1.00  0.00    -0.477 C  
BRANCH   3   4
HETATM    4  C   UNL     1     -11.386  10.550  69.750  1.00  0.00    -0.367 C  
BRANCH   4   5
HETATM    5  C   UNL     1     -11.237  11.275  68.415  1.00  0.00    -0.324 C  
BRANCH   5   6
HETATM    6  C   UNL     1      -9.851  11.045  67.822  1.00  0.00    -0.190 C  
BRANCH   6   7
HETATM    7  C   UNL     1      -9.263  12.353  67.302  1.00  0.00    -0.187 C  
BRANCH   7   8
HETATM    8  C   UNL     1     -10.322  13.450  67.273  1.00  0.00    -0.244 C  
BRANCH   8   9
HETATM    9  C   UNL     1      -9.844  14.682  68.034  1.00  0.00    -0.216 C  
BRANCH   9  10
HETATM   10  C   UNL     1     -10.053  15.943  67.204  1.00  0.00    -0.264 C  
BRANCH  10  11
HETATM   11  C   UNL     1      -8.956  16.096  66.155  1.00  0.00    -0.372 C  
BRANCH  11  12
HETATM   12  C   UNL     1      -7.776  16.880  66.720  1.00  0.00    -0.283 C  
BRANCH  12  13
HETATM   13  C   UNL     1      -8.178  17.661  67.968  1.00  0.00    -0.242 C  
BRANCH  13  14
HETATM   14  C   UNL     1      -7.998  19.161  67.747  1.00  0.00    -0.305 C  
BRANCH  14  15
HETATM   15  C   UNL     1      -8.679  19.617  66.460  1.00  0.00    -0.402 C  
HETATM   16  C   UNL     1     -10.172  19.770  66.642  1.00  0.00    -0.478 C  
HETATM   17  O   UNL     1     -10.785  20.176  65.505  1.00  0.00    -0.371 OA 
HETATM   18  O   UNL     1     -10.785  19.561  67.676  1.00  0.00    -0.457 OA 
ENDBRANCH  14  15
ENDBRANCH  13  14
ENDBRANCH  12  13
ENDBRANCH  11  12
ENDBRANCH  10  11
ENDBRANCH   9  10
ENDBRANCH   8   9
ENDBRANCH   7   8
ENDBRANCH   6   7
ENDBRANCH   5   6
ENDBRANCH   4   5
ENDBRANCH   3   4
ENDBRANCH   2   3
TORSDOF 13
ENDMDL
MODEL      244
REMARK 921   NORMALIZED FREE ENERGY PREDICTED BY IDOCK:   -3.24 KCAL/MOL
REMARK 922        TOTAL FREE ENERGY PREDICTED BY IDOCK:   -7.10 KCAL/MOL
REMARK 923 INTER-LIGAND FREE ENERGY PREDICTED BY IDOCK:   -5.99 KCAL/MOL
REMARK 924 INTRA-LIGAND FREE ENERGY PREDICTED BY IDOCK:   -1.11 KCAL/MOL
REMARK 927      BINDING AFFINITY PREDICTED BY RF-SCORE:    0.00 PKD
ROOT
HETATM    1  C   UNL     1      -7.867   4.697  69.291  1.00  0.00    -0.063 C  
HETATM    2  C   UNL     1      -8.419   4.931  67.896  1.00  0.00    -0.103 C  
ENDROOT
BRANCH   2   3
HETATM    3  C   UNL     1      -9.944   5.005  67.912  1.00  0.00    -0.193 C  
BRANCH   3   4
HETATM    4  C   UNL     1     -10.443   6.250  67.184  1.00  0.00    -0.327 C  
BRANCH   4   5
HETATM    5  C   UNL     1      -9.379   7.344  67.190  1.00  0.00    -0.172 C  
BRANCH   5   6
HETATM    6  C   UNL     1      -9.941   8.653  66.645  1.00  0.00    -0.357 C  
BRANCH   6   7
HETATM    7  C   UNL     1     -10.786   9.359  67.701  1.00  0.00    -0.295 C  
BRANCH   7   8
HETATM    8  C   UNL     1     -10.018   9.488  69.011  1.00  0.00    -0.185 C  
BRANCH   8   9
HETATM    9  C   UNL     1     -10.968   9.778  70.168  1.00  0.00    -0.339 C  
BRANCH   9  10
HETATM   10  C   UNL     1     -12.060  10.751  69.739  1.00  0.00    -0.389 C  
BRANCH  10  11
HETATM   11  C   UNL     1     -11.737  12.171  70.193  1.00  0.00    -0.301 C  
BRANCH  11  12
HETATM   12  C   UNL     1     -11.493  13.078  68.991  1.00  0.00    -0.353 C  
BRANCH  12  13
HETATM   13  C   UNL     1     -11.826  12.365  67.684  1.00  0.00    -0.363 C  
BRANCH  13  14
HETATM   14  C   UNL     1     -11.031  12.963  66.525  1.00  0.00    -0.300 C  
BRANCH  14  15
HETATM   15  C   UNL     1     -11.398  12.301  65.201  1.00  0.00    -0.376 C  
HETATM   16  C   UNL     1     -12.636  12.917  64.592  1.00  0.00    -0.391 C  
HETATM   17  O   UNL     1     -12.969  12.337  63.415  1.00  0.00    -0.753 OA 
HETATM   18  O   UNL     1     -13.285  13.831  65.076  1.00  0.00    -0.733 OA 
ENDBRANCH  14  15
ENDBRANCH  13  14
ENDBRANCH  12  13
ENDBRANCH  11  12
ENDBRANCH  10  11
ENDBRANCH   9  10
ENDBRANCH   8   9
ENDBRANCH   7   8
ENDBRANCH   6   7
ENDBRANCH   5   6
ENDBRANCH   4   5
ENDBRANCH   3   4
ENDBRANCH   2   3
TORSDOF 13
ENDMDL
MODEL      245
REMARK 921   NORMALIZED FREE ENERGY PREDICTED BY IDOCK:   -3.24 KCAL/MOL
REMARK 922        TOTAL FREE ENERGY PREDICTED BY IDOCK:   -7.10 KCAL/MOL
REMARK 923 INTER-LIGAND FREE ENERGY PREDICTED BY IDOCK:   -6.11 KCAL/MOL
REMARK 924 INTRA-LIGAND FREE ENERGY PREDICTED BY IDOCK:   -1.00 KCAL/MOL
REMARK 927      BINDING AFFINITY PREDICTED BY RF-SCORE:    0.00 PKD
ROOT
HETATM    1  C   UNL     1      -8.665   9.675  66.025  1.00  0.00    -0.155 C  
HETATM    2  C   UNL     1      -9.272   9.982  64.666  1.00  0.00    -0.310 C  
ENDROOT
BRANCH   2   3
HETATM    3  C   UNL     1     -10.404  10.999  64.786  1.00  0.00    -0.389 C  
BRANCH   3   4
HETATM    4  C   UNL     1     -10.547  11.816  63.506  1.00  0.00    -0.499 C  
BRANCH   4   5
HETATM    5  C   UNL     1     -11.909  12.504  63.450  1.00  0.00    -0.587 C  
BRANCH   5   6
HETATM    6  C   UNL     1     -12.565  12.524  64.826  1.00  0.00    -0.493 C  
BRANCH   6   7
HETATM    7  C   UNL     1     -12.436  13.904  65.465  1.00  0.00    -0.541 C  
BRANCH   7   8
HETATM    8  C   UNL     1     -12.300  14.984  64.399  1.00  0.00    -0.283 C  
BRANCH   8   9
HETATM    9  C   UNL     1     -11.217  15.987  64.781  1.00  0.00    -0.348 C  
BRANCH   9  10
HETATM   10  C   UNL     1     -10.207  15.355  65.731  1.00  0.00    -0.378 C  
BRANCH  10  11
HETATM   11  C   UNL     1      -9.409  16.424  66.472  1.00  0.00    -0.300 C  
BRANCH  11  12
HETATM   12  C   UNL     1      -7.925  16.073  66.489  1.00  0.00    -0.271 C  
BRANCH  12  13
HETATM   13  C   UNL     1      -7.214  16.731  67.669  1.00  0.00    -0.163 C  
BRANCH  13  14
HETATM   14  C   UNL     1      -6.202  17.764  67.180  1.00  0.00    -0.175 C  
BRANCH  14  15
HETATM   15  C   UNL     1      -6.896  19.036  66.701  1.00  0.00    -0.209 C  
HETATM   16  C   UNL     1      -6.882  20.113  67.760  1.00  0.00    -0.274 C  
HETATM   17  O   UNL     1      -7.494  21.246  67.344  1.00  0.00    -0.450 OA 
HETATM   18  O   UNL     1      -6.387  20.009  68.871  1.00  0.00    -0.281 OA 
ENDBRANCH  14  15
ENDBRANCH  13  14
ENDBRANCH  12  13
ENDBRANCH  11  12
ENDBRANCH  10  11
ENDBRANCH   9  10
ENDBRANCH   8   9
ENDBRANCH   7   8
ENDBRANCH   6   7
ENDBRANCH   5   6
ENDBRANCH   4   5
ENDBRANCH   3   4
ENDBRANCH   2   3
TORSDOF 13
ENDMDL
MODEL      246
REMARK 921   NORMALIZED FREE ENERGY PREDICTED BY IDOCK:   -3.23 KCAL/MOL
REMARK 922        TOTAL FREE ENERGY PREDICTED BY IDOCK:   -7.09 KCAL/MOL
REMARK 923 INTER-LIGAND FREE ENERGY PREDICTED BY IDOCK:   -5.85 KCAL/MOL
REMARK 924 INTRA-LIGAND FREE ENERGY PREDICTED BY IDOCK:   -1.24 KCAL/MOL
REMARK 927      BINDING AFFINITY PREDICTED BY RF-SCORE:    0.00 PKD
ROOT
HETATM    1  C   UNL     1     -11.970  16.457  73.048  1.00  0.00    -0.559 C  
HETATM    2  C   UNL     1     -12.988  15.366  73.332  1.00  0.00    -0.662 C  
ENDROOT
BRANCH   2   3
HETATM    3  C   UNL     1     -14.107  15.373  72.294  1.00  0.00    -0.660 C  
BRANCH   3   4
HETATM    4  C   UNL     1     -14.125  14.073  71.495  1.00  0.00    -0.270 C  
BRANCH   4   5
HETATM    5  C   UNL     1     -12.771  13.373  71.567  1.00  0.00    -0.386 C  
BRANCH   5   6
HETATM    6  C   UNL     1     -12.114  13.314  70.192  1.00  0.00    -0.403 C  
BRANCH   6   7
HETATM    7  C   UNL     1     -11.279  14.565  69.939  1.00  0.00    -0.247 C  
BRANCH   7   8
HETATM    8  C   UNL     1     -11.823  15.347  68.749  1.00  0.00    -0.339 C  
BRANCH   8   9
HETATM    9  C   UNL     1     -11.793  14.496  67.484  1.00  0.00    -0.404 C  
BRANCH   9  10
HETATM   10  C   UNL     1     -11.023  15.204  66.375  1.00  0.00    -0.329 C  
BRANCH  10  11
HETATM   11  C   UNL     1     -10.402  14.197  65.412  1.00  0.00    -0.384 C  
BRANCH  11  12
HETATM   12  C   UNL     1     -10.209  12.847  66.095  1.00  0.00    -0.286 C  
BRANCH  12  13
HETATM   13  C   UNL     1      -8.954  12.840  66.963  1.00  0.00    -0.221 C  
BRANCH  13  14
HETATM   14  C   UNL     1      -8.565  11.412  67.338  1.00  0.00    -0.142 C  
BRANCH  14  15
HETATM   15  C   UNL     1      -9.160  10.401  66.362  1.00  0.00    -0.177 C  
HETATM   16  C   UNL     1      -8.086   9.679  65.583  1.00  0.00    -0.117 C  
HETATM   17  O   UNL     1      -8.604   8.778  64.715  1.00  0.00    -0.174 OA 
HETATM   18  O   UNL     1      -6.885   9.860  65.695  1.00  0.00    -0.094 OA 
ENDBRANCH  14  15
ENDBRANCH  13  14
ENDBRANCH  12  13
ENDBRANCH  11  12
ENDBRANCH  10  11
ENDBRANCH   9  10
ENDBRANCH   8   9
ENDBRANCH   7   8
ENDBRANCH   6   7
ENDBRANCH   5   6
ENDBRANCH   4   5
ENDBRANCH   3   4
ENDBRANCH   2   3
TORSDOF 13
ENDMDL
MODEL      247
REMARK 921   NORMALIZED FREE ENERGY PREDICTED BY IDOCK:   -3.23 KCAL/MOL
REMARK 922        TOTAL FREE ENERGY PREDICTED BY IDOCK:   -7.09 KCAL/MOL
REMARK 923 INTER-LIGAND FREE ENERGY PREDICTED BY IDOCK:   -5.62 KCAL/MOL
REMARK 924 INTRA-LIGAND FREE ENERGY PREDICTED BY IDOCK:   -1.47 KCAL/MOL
REMARK 927      BINDING AFFINITY PREDICTED BY RF-SCORE:    0.00 PKD
ROOT
HETATM    1  C   UNL     1      -8.459   8.352  66.699  1.00  0.00    -0.113 C  
HETATM    2  C   UNL     1      -9.808   7.659  66.788  1.00  0.00    -0.307 C  
ENDROOT
BRANCH   2   3
HETATM    3  C   UNL     1      -9.747   6.454  67.724  1.00  0.00    -0.127 C  
BRANCH   3   4
HETATM    4  C   UNL     1     -11.144   6.031  68.168  1.00  0.00    -0.246 C  
BRANCH   4   5
HETATM    5  C   UNL     1     -11.272   6.093  69.688  1.00  0.00    -0.488 C  
BRANCH   5   6
HETATM    6  C   UNL     1     -10.048   6.755  70.311  1.00  0.00    -0.196 C  
BRANCH   6   7
HETATM    7  C   UNL     1     -10.464   7.875  71.260  1.00  0.00    -0.233 C  
BRANCH   7   8
HETATM    8  C   UNL     1     -10.025   9.231  70.722  1.00  0.00    -0.357 C  
BRANCH   8   9
HETATM    9  C   UNL     1     -11.025   9.755  69.697  1.00  0.00    -0.269 C  
BRANCH   9  10
HETATM   10  C   UNL     1     -11.908  10.837  70.308  1.00  0.00    -0.438 C  
BRANCH  10  11
HETATM   11  C   UNL     1     -11.873  12.111  69.469  1.00  0.00    -0.386 C  
BRANCH  11  12
HETATM   12  C   UNL     1     -11.752  11.775  67.986  1.00  0.00    -0.363 C  
BRANCH  12  13
HETATM   13  C   UNL     1     -11.832  13.034  67.126  1.00  0.00    -0.431 C  
BRANCH  13  14
HETATM   14  C   UNL     1     -10.563  13.199  66.293  1.00  0.00    -0.292 C  
BRANCH  14  15
HETATM   15  C   UNL     1     -10.297  11.964  65.438  1.00  0.00    -0.306 C  
HETATM   16  C   UNL     1     -10.979  12.059  64.093  1.00  0.00    -0.360 C  
HETATM   17  O   UNL     1     -10.747  10.968  63.325  1.00  0.00    -0.271 OA 
HETATM   18  O   UNL     1     -11.665  12.992  63.710  1.00  0.00    -0.434 OA 
ENDBRANCH  14  15
ENDBRANCH  13  14
ENDBRANCH  12  13
ENDBRANCH  11  12
ENDBRANCH  10  11
ENDBRANCH   9  10
ENDBRANCH   8   9
ENDBRANCH   7   8
ENDBRANCH   6   7
ENDBRANCH   5   6
ENDBRANCH   4   5
ENDBRANCH   3   4
ENDBRANCH   2   3
TORSDOF 13
ENDMDL
MODEL      248
REMARK 921   NORMALIZED FREE ENERGY PREDICTED BY IDOCK:   -3.23 KCAL/MOL
REMARK 922        TOTAL FREE ENERGY PREDICTED BY IDOCK:   -7.08 KCAL/MOL
REMARK 923 INTER-LIGAND FREE ENERGY PREDICTED BY IDOCK:   -5.76 KCAL/MOL
REMARK 924 INTRA-LIGAND FREE ENERGY PREDICTED BY IDOCK:   -1.32 KCAL/MOL
REMARK 927      BINDING AFFINITY PREDICTED BY RF-SCORE:    0.00 PKD
ROOT
HETATM    1  C   UNL     1     -11.864  14.165  64.373  1.00  0.00    -0.447 C  
HETATM    2  C   UNL     1     -11.695  13.054  63.352  1.00  0.00    -0.477 C  
ENDROOT
BRANCH   2   3
HETATM    3  C   UNL     1     -10.910  11.883  63.937  1.00  0.00    -0.456 C  
BRANCH   3   4
HETATM    4  C   UNL     1     -10.887  11.943  65.462  1.00  0.00    -0.343 C  
BRANCH   4   5
HETATM    5  C   UNL     1      -9.708  11.149  66.018  1.00  0.00    -0.263 C  
BRANCH   5   6
HETATM    6  C   UNL     1      -9.672   9.742  65.429  1.00  0.00    -0.383 C  
BRANCH   6   7
HETATM    7  C   UNL     1     -10.049   8.706  66.483  1.00  0.00    -0.339 C  
BRANCH   7   8
HETATM    8  C   UNL     1      -9.125   7.496  66.408  1.00  0.00    -0.210 C  
BRANCH   8   9
HETATM    9  C   UNL     1      -9.484   6.475  67.482  1.00  0.00    -0.131 C  
BRANCH   9  10
HETATM   10  C   UNL     1     -10.887   6.728  68.021  1.00  0.00    -0.306 C  
BRANCH  10  11
HETATM   11  C   UNL     1     -10.927   6.572  69.538  1.00  0.00    -0.398 C  
BRANCH  11  12
HETATM   12  C   UNL     1      -9.715   7.240  70.180  1.00  0.00    -0.172 C  
BRANCH  12  13
HETATM   13  C   UNL     1     -10.139   8.332  71.158  1.00  0.00    -0.237 C  
BRANCH  13  14
HETATM   14  C   UNL     1     -11.397   9.041  70.663  1.00  0.00    -0.311 C  
BRANCH  14  15
HETATM   15  C   UNL     1     -11.062  10.100  69.616  1.00  0.00    -0.308 C  
HETATM   16  C   UNL     1     -11.753  11.411  69.906  1.00  0.00    -0.346 C  
HETATM   17  O   UNL     1     -11.460  12.357  68.983  1.00  0.00    -0.259 OA 
HETATM   18  O   UNL     1     -12.496  11.628  70.849  1.00  0.00    -0.376 OA 
ENDBRANCH  14  15
ENDBRANCH  13  14
ENDBRANCH  12  13
ENDBRANCH  11  12
ENDBRANCH  10  11
ENDBRANCH   9  10
ENDBRANCH   8   9
ENDBRANCH   7   8
ENDBRANCH   6   7
ENDBRANCH   5   6
ENDBRANCH   4   5
ENDBRANCH   3   4
ENDBRANCH   2   3
TORSDOF 13
ENDMDL
MODEL      249
REMARK 921   NORMALIZED FREE ENERGY PREDICTED BY IDOCK:   -3.22 KCAL/MOL
REMARK 922        TOTAL FREE ENERGY PREDICTED BY IDOCK:   -7.08 KCAL/MOL
REMARK 923 INTER-LIGAND FREE ENERGY PREDICTED BY IDOCK:   -6.08 KCAL/MOL
REMARK 924 INTRA-LIGAND FREE ENERGY PREDICTED BY IDOCK:   -1.00 KCAL/MOL
REMARK 927      BINDING AFFINITY PREDICTED BY RF-SCORE:    0.00 PKD
ROOT
HETATM    1  C   UNL     1      -6.207  20.411  69.065  1.00  0.00    -0.351 C  
HETATM    2  C   UNL     1      -6.925  20.715  67.761  1.00  0.00    -0.351 C  
ENDROOT
BRANCH   2   3
HETATM    3  C   UNL     1      -7.590  19.464  67.194  1.00  0.00    -0.258 C  
BRANCH   3   4
HETATM    4  C   UNL     1      -9.021  19.755  66.749  1.00  0.00    -0.431 C  
BRANCH   4   5
HETATM    5  C   UNL     1      -9.910  18.531  66.948  1.00  0.00    -0.350 C  
BRANCH   5   6
HETATM    6  C   UNL     1     -10.149  18.265  68.431  1.00  0.00    -0.412 C  
BRANCH   6   7
HETATM    7  C   UNL     1      -9.358  17.046  68.894  1.00  0.00    -0.224 C  
BRANCH   7   8
HETATM    8  C   UNL     1      -9.882  15.777  68.233  1.00  0.00    -0.213 C  
BRANCH   8   9
HETATM    9  C   UNL     1      -8.739  14.973  67.624  1.00  0.00    -0.182 C  
BRANCH   9  10
HETATM   10  C   UNL     1      -8.606  13.618  68.309  1.00  0.00    -0.170 C  
BRANCH  10  11
HETATM   11  C   UNL     1      -9.970  12.956  68.482  1.00  0.00    -0.168 C  
BRANCH  11  12
HETATM   12  C   UNL     1     -10.186  11.882  67.421  1.00  0.00    -0.214 C  
BRANCH  12  13
HETATM   13  C   UNL     1     -11.499  12.097  66.675  1.00  0.00    -0.426 C  
BRANCH  13  14
HETATM   14  C   UNL     1     -11.255  12.201  65.171  1.00  0.00    -0.378 C  
BRANCH  14  15
HETATM   15  C   UNL     1     -12.261  13.138  64.510  1.00  0.00    -0.466 C  
HETATM   16  C   UNL     1     -11.782  14.571  64.523  1.00  0.00    -0.410 C  
HETATM   17  O   UNL     1     -12.668  15.410  63.937  1.00  0.00    -0.695 OA 
HETATM   18  O   UNL     1     -10.729  14.963  64.999  1.00  0.00    -0.380 OA 
ENDBRANCH  14  15
ENDBRANCH  13  14
ENDBRANCH  12  13
ENDBRANCH  11  12
ENDBRANCH  10  11
ENDBRANCH   9  10
ENDBRANCH   8   9
ENDBRANCH   7   8
ENDBRANCH   6   7
ENDBRANCH   5   6
ENDBRANCH   4   5
ENDBRANCH   3   4
ENDBRANCH   2   3
TORSDOF 13
ENDMDL
MODEL      250
REMARK 921   NORMALIZED FREE ENERGY PREDICTED BY IDOCK:   -3.22 KCAL/MOL
REMARK 922        TOTAL FREE ENERGY PREDICTED BY IDOCK:   -7.07 KCAL/MOL
REMARK 923 INTER-LIGAND FREE ENERGY PREDICTED BY IDOCK:   -4.98 KCAL/MOL
REMARK 924 INTRA-LIGAND FREE ENERGY PREDICTED BY IDOCK:   -2.10 KCAL/MOL
REMARK 927      BINDING AFFINITY PREDICTED BY RF-SCORE:    0.00 PKD
ROOT
HETATM    1  C   UNL     1      -8.373   5.285  69.956  1.00  0.00    -0.098 C  
HETATM    2  C   UNL     1      -8.821   5.999  68.692  1.00  0.00    -0.109 C  
ENDROOT
BRANCH   2   3
HETATM    3  C   UNL     1     -10.330   6.234  68.698  1.00  0.00    -0.243 C  
BRANCH   3   4
HETATM    4  C   UNL     1     -10.661   7.691  68.387  1.00  0.00    -0.166 C  
BRANCH   4   5
HETATM    5  C   UNL     1      -9.702   8.632  69.112  1.00  0.00    -0.173 C  
BRANCH   5   6
HETATM    6  C   UNL     1      -9.952  10.081  68.709  1.00  0.00    -0.181 C  
BRANCH   6   7
HETATM    7  C   UNL     1     -11.293  10.568  69.249  1.00  0.00    -0.325 C  
BRANCH   7   8
HETATM    8  C   UNL     1     -11.387  10.338  70.752  1.00  0.00    -0.421 C  
BRANCH   8   9
HETATM    9  C   UNL     1     -12.841  10.351  71.211  1.00  0.00    -0.533 C  
BRANCH   9  10
HETATM   10  C   UNL     1     -13.106   9.220  72.198  1.00  0.00    -0.520 C  
BRANCH  10  11
HETATM   11  C   UNL     1     -13.535   7.949  71.472  1.00  0.00    -0.352 C  
BRANCH  11  12
HETATM   12  C   UNL     1     -12.445   6.886  71.558  1.00  0.00    -0.420 C  
BRANCH  12  13
HETATM   13  C   UNL     1     -11.534   7.123  72.759  1.00  0.00    -0.234 C  
BRANCH  13  14
HETATM   14  C   UNL     1     -10.073   7.200  72.322  1.00  0.00    -0.202 C  
BRANCH  14  15
HETATM   15  C   UNL     1      -9.154   7.480  73.507  1.00  0.00    -0.286 C  
HETATM   16  C   UNL     1      -8.130   8.541  73.181  1.00  0.00    -0.012 C  
HETATM   17  O   UNL     1      -7.310   8.797  74.228  1.00  0.00    -0.389 OA 
HETATM   18  O   UNL     1      -8.023   9.120  72.112  1.00  0.00    -0.310 OA 
ENDBRANCH  14  15
ENDBRANCH  13  14
ENDBRANCH  12  13
ENDBRANCH  11  12
ENDBRANCH  10  11
ENDBRANCH   9  10
ENDBRANCH   8   9
ENDBRANCH   7   8
ENDBRANCH   6   7
ENDBRANCH   5   6
ENDBRANCH   4   5
ENDBRANCH   3   4
ENDBRANCH   2   3
TORSDOF 13
ENDMDL
MODEL      251
REMARK 921   NORMALIZED FREE ENERGY PREDICTED BY IDOCK:   -3.21 KCAL/MOL
REMARK 922        TOTAL FREE ENERGY PREDICTED BY IDOCK:   -7.06 KCAL/MOL
REMARK 923 INTER-LIGAND FREE ENERGY PREDICTED BY IDOCK:   -6.02 KCAL/MOL
REMARK 924 INTRA-LIGAND FREE ENERGY PREDICTED BY IDOCK:   -1.04 KCAL/MOL
REMARK 927      BINDING AFFINITY PREDICTED BY RF-SCORE:    0.00 PKD
ROOT
HETATM    1  C   UNL     1     -14.062  14.502  71.713  1.00  0.00    -0.578 C  
HETATM    2  C   UNL     1     -12.981  15.452  72.200  1.00  0.00    -0.480 C  
ENDROOT
BRANCH   2   3
HETATM    3  C   UNL     1     -12.145  15.978  71.035  1.00  0.00    -0.372 C  
BRANCH   3   4
HETATM    4  C   UNL     1     -11.294  14.868  70.424  1.00  0.00    -0.287 C  
BRANCH   4   5
HETATM    5  C   UNL     1     -10.665  15.328  69.112  1.00  0.00    -0.251 C  
BRANCH   5   6
HETATM    6  C   UNL     1     -11.717  15.448  68.015  1.00  0.00    -0.235 C  
BRANCH   6   7
HETATM    7  C   UNL     1     -11.958  14.098  67.347  1.00  0.00    -0.439 C  
BRANCH   7   8
HETATM    8  C   UNL     1     -12.373  14.279  65.892  1.00  0.00    -0.420 C  
BRANCH   8   9
HETATM    9  C   UNL     1     -12.653  12.930  65.238  1.00  0.00    -0.502 C  
BRANCH   9  10
HETATM   10  C   UNL     1     -12.072  12.881  63.830  1.00  0.00    -0.583 C  
BRANCH  10  11
HETATM   11  C   UNL     1     -11.417  11.531  63.555  1.00  0.00    -0.334 C  
BRANCH  11  12
HETATM   12  C   UNL     1      -9.899  11.665  63.522  1.00  0.00    -0.391 C  
BRANCH  12  13
HETATM   13  C   UNL     1      -9.247  10.854  64.639  1.00  0.00    -0.223 C  
BRANCH  13  14
HETATM   14  C   UNL     1      -9.922  11.141  65.978  1.00  0.00    -0.280 C  
BRANCH  14  15
HETATM   15  C   UNL     1      -8.892  11.371  67.080  1.00  0.00    -0.168 C  
HETATM   16  C   UNL     1      -8.510  12.829  67.192  1.00  0.00    -0.181 C  
HETATM   17  O   UNL     1      -7.597  13.043  68.168  1.00  0.00    -0.113 OA 
HETATM   18  O   UNL     1      -8.951  13.733  66.501  1.00  0.00    -0.179 OA 
ENDBRANCH  14  15
ENDBRANCH  13  14
ENDBRANCH  12  13
ENDBRANCH  11  12
ENDBRANCH  10  11
ENDBRANCH   9  10
ENDBRANCH   8   9
ENDBRANCH   7   8
ENDBRANCH   6   7
ENDBRANCH   5   6
ENDBRANCH   4   5
ENDBRANCH   3   4
ENDBRANCH   2   3
TORSDOF 13
ENDMDL
MODEL      252
REMARK 921   NORMALIZED FREE ENERGY PREDICTED BY IDOCK:   -3.21 KCAL/MOL
REMARK 922        TOTAL FREE ENERGY PREDICTED BY IDOCK:   -7.06 KCAL/MOL
REMARK 923 INTER-LIGAND FREE ENERGY PREDICTED BY IDOCK:   -5.61 KCAL/MOL
REMARK 924 INTRA-LIGAND FREE ENERGY PREDICTED BY IDOCK:   -1.45 KCAL/MOL
REMARK 927      BINDING AFFINITY PREDICTED BY RF-SCORE:    0.00 PKD
ROOT
HETATM    1  C   UNL     1     -12.225  14.933  64.310  1.00  0.00    -0.365 C  
HETATM    2  C   UNL     1     -12.625  14.070  65.494  1.00  0.00    -0.543 C  
ENDROOT
BRANCH   2   3
HETATM    3  C   UNL     1     -12.327  12.596  65.226  1.00  0.00    -0.528 C  
BRANCH   3   4
HETATM    4  C   UNL     1     -11.464  11.999  66.335  1.00  0.00    -0.417 C  
BRANCH   4   5
HETATM    5  C   UNL     1      -9.981  12.122  65.993  1.00  0.00    -0.257 C  
BRANCH   5   6
HETATM    6  C   UNL     1      -9.187  12.633  67.190  1.00  0.00    -0.214 C  
BRANCH   6   7
HETATM    7  C   UNL     1      -9.257  11.642  68.348  1.00  0.00    -0.182 C  
BRANCH   7   8
HETATM    8  C   UNL     1      -8.297  10.480  68.124  1.00  0.00    -0.119 C  
BRANCH   8   9
HETATM    9  C   UNL     1      -8.967   9.152  68.463  1.00  0.00    -0.133 C  
BRANCH   9  10
HETATM   10  C   UNL     1      -9.881   8.703  67.328  1.00  0.00    -0.256 C  
BRANCH  10  11
HETATM   11  C   UNL     1     -10.893   7.671  67.816  1.00  0.00    -0.133 C  
BRANCH  11  12
HETATM   12  C   UNL     1     -10.325   6.872  68.984  1.00  0.00    -0.203 C  
BRANCH  12  13
HETATM   13  C   UNL     1     -11.431   6.412  69.930  1.00  0.00    -0.483 C  
BRANCH  13  14
HETATM   14  C   UNL     1     -11.278   7.071  71.299  1.00  0.00    -0.296 C  
BRANCH  14  15
HETATM   15  C   UNL     1     -12.481   7.950  71.629  1.00  0.00    -0.344 C  
HETATM   16  C   UNL     1     -12.145   9.419  71.521  1.00  0.00    -0.379 C  
HETATM   17  O   UNL     1     -13.207  10.208  71.810  1.00  0.00    -0.409 OA 
HETATM   18  O   UNL     1     -11.057   9.877  71.213  1.00  0.00    -0.351 OA 
ENDBRANCH  14  15
ENDBRANCH  13  14
ENDBRANCH  12  13
ENDBRANCH  11  12
ENDBRANCH  10  11
ENDBRANCH   9  10
ENDBRANCH   8   9
ENDBRANCH   7   8
ENDBRANCH   6   7
ENDBRANCH   5   6
ENDBRANCH   4   5
ENDBRANCH   3   4
ENDBRANCH   2   3
TORSDOF 13
ENDMDL
MODEL      253
REMARK 921   NORMALIZED FREE ENERGY PREDICTED BY IDOCK:   -3.21 KCAL/MOL
REMARK 922        TOTAL FREE ENERGY PREDICTED BY IDOCK:   -7.05 KCAL/MOL
REMARK 923 INTER-LIGAND FREE ENERGY PREDICTED BY IDOCK:   -5.24 KCAL/MOL
REMARK 924 INTRA-LIGAND FREE ENERGY PREDICTED BY IDOCK:   -1.81 KCAL/MOL
REMARK 927      BINDING AFFINITY PREDICTED BY RF-SCORE:    0.00 PKD
ROOT
HETATM    1  C   UNL     1     -11.280  16.204  69.002  1.00  0.00    -0.347 C  
HETATM    2  C   UNL     1     -11.730  14.791  69.333  1.00  0.00    -0.358 C  
ENDROOT
BRANCH   2   3
HETATM    3  C   UNL     1     -12.437  14.741  70.686  1.00  0.00    -0.407 C  
BRANCH   3   4
HETATM    4  C   UNL     1     -12.753  13.304  71.089  1.00  0.00    -0.404 C  
BRANCH   4   5
HETATM    5  C   UNL     1     -11.988  12.314  70.214  1.00  0.00    -0.373 C  
BRANCH   5   6
HETATM    6  C   UNL     1     -12.032  10.912  70.811  1.00  0.00    -0.449 C  
BRANCH   6   7
HETATM    7  C   UNL     1     -11.370   9.906  69.874  1.00  0.00    -0.273 C  
BRANCH   7   8
HETATM    8  C   UNL     1     -10.011   9.475  70.414  1.00  0.00    -0.325 C  
BRANCH   8   9
HETATM    9  C   UNL     1      -8.891  10.269  69.751  1.00  0.00    -0.070 C  
BRANCH   9  10
HETATM   10  C   UNL     1      -8.456   9.605  68.449  1.00  0.00    -0.118 C  
BRANCH  10  11
HETATM   11  C   UNL     1      -8.661  10.542  67.262  1.00  0.00    -0.122 C  
BRANCH  11  12
HETATM   12  C   UNL     1      -9.485   9.862  66.175  1.00  0.00    -0.254 C  
BRANCH  12  13
HETATM   13  C   UNL     1     -10.577  10.788  65.646  1.00  0.00    -0.199 C  
BRANCH  13  14
HETATM   14  C   UNL     1     -10.984  11.804  66.711  1.00  0.00    -0.336 C  
BRANCH  14  15
HETATM   15  C   UNL     1     -11.384  13.135  66.083  1.00  0.00    -0.343 C  
HETATM   16  C   UNL     1     -10.232  14.113  66.065  1.00  0.00    -0.308 C  
HETATM   17  O   UNL     1     -10.577  15.297  65.507  1.00  0.00    -0.319 OA 
HETATM   18  O   UNL     1      -9.111  13.895  66.493  1.00  0.00    -0.231 OA 
ENDBRANCH  14  15
ENDBRANCH  13  14
ENDBRANCH  12  13
ENDBRANCH  11  12
ENDBRANCH  10  11
ENDBRANCH   9  10
ENDBRANCH   8   9
ENDBRANCH   7   8
ENDBRANCH   6   7
ENDBRANCH   5   6
ENDBRANCH   4   5
ENDBRANCH   3   4
ENDBRANCH   2   3
TORSDOF 13
ENDMDL
MODEL      254
REMARK 921   NORMALIZED FREE ENERGY PREDICTED BY IDOCK:   -3.20 KCAL/MOL
REMARK 922        TOTAL FREE ENERGY PREDICTED BY IDOCK:   -7.04 KCAL/MOL
REMARK 923 INTER-LIGAND FREE ENERGY PREDICTED BY IDOCK:   -6.29 KCAL/MOL
REMARK 924 INTRA-LIGAND FREE ENERGY PREDICTED BY IDOCK:   -0.75 KCAL/MOL
REMARK 927      BINDING AFFINITY PREDICTED BY RF-SCORE:    0.00 PKD
ROOT
HETATM    1  C   UNL     1     -12.609   7.305  71.595  1.00  0.00    -0.403 C  
HETATM    2  C   UNL     1     -11.950   8.533  72.199  1.00  0.00    -0.451 C  
ENDROOT
BRANCH   2   3
HETATM    3  C   UNL     1     -12.411   9.807  71.496  1.00  0.00    -0.495 C  
BRANCH   3   4
HETATM    4  C   UNL     1     -11.502  10.145  70.317  1.00  0.00    -0.381 C  
BRANCH   4   5
HETATM    5  C   UNL     1     -12.158  11.178  69.405  1.00  0.00    -0.396 C  
BRANCH   5   6
HETATM    6  C   UNL     1     -11.963  12.589  69.951  1.00  0.00    -0.371 C  
BRANCH   6   7
HETATM    7  C   UNL     1     -11.897  13.603  68.814  1.00  0.00    -0.395 C  
BRANCH   7   8
HETATM    8  C   UNL     1     -10.936  13.137  67.727  1.00  0.00    -0.272 C  
BRANCH   8   9
HETATM    9  C   UNL     1     -10.889  14.141  66.580  1.00  0.00    -0.299 C  
BRANCH   9  10
HETATM   10  C   UNL     1      -9.453  14.375  66.127  1.00  0.00    -0.271 C  
BRANCH  10  11
HETATM   11  C   UNL     1      -8.615  14.975  67.252  1.00  0.00    -0.226 C  
BRANCH  11  12
HETATM   12  C   UNL     1      -8.329  16.449  66.983  1.00  0.00    -0.230 C  
BRANCH  12  13
HETATM   13  C   UNL     1      -7.765  17.138  68.223  1.00  0.00    -0.220 C  
BRANCH  13  14
HETATM   14  C   UNL     1      -7.841  18.656  68.078  1.00  0.00    -0.292 C  
BRANCH  14  15
HETATM   15  C   UNL     1      -8.551  19.054  66.787  1.00  0.00    -0.313 C  
HETATM   16  C   UNL     1      -9.884  19.711  67.064  1.00  0.00    -0.374 C  
HETATM   17  O   UNL     1     -10.522  20.070  65.925  1.00  0.00    -0.474 OA 
HETATM   18  O   UNL     1     -10.361  19.910  68.169  1.00  0.00    -0.430 OA 
ENDBRANCH  14  15
ENDBRANCH  13  14
ENDBRANCH  12  13
ENDBRANCH  11  12
ENDBRANCH  10  11
ENDBRANCH   9  10
ENDBRANCH   8   9
ENDBRANCH   7   8
ENDBRANCH   6   7
ENDBRANCH   5   6
ENDBRANCH   4   5
ENDBRANCH   3   4
ENDBRANCH   2   3
TORSDOF 13
ENDMDL
MODEL      255
REMARK 921   NORMALIZED FREE ENERGY PREDICTED BY IDOCK:   -3.20 KCAL/MOL
REMARK 922        TOTAL FREE ENERGY PREDICTED BY IDOCK:   -7.04 KCAL/MOL
REMARK 923 INTER-LIGAND FREE ENERGY PREDICTED BY IDOCK:   -5.49 KCAL/MOL
REMARK 924 INTRA-LIGAND FREE ENERGY PREDICTED BY IDOCK:   -1.55 KCAL/MOL
REMARK 927      BINDING AFFINITY PREDICTED BY RF-SCORE:    0.00 PKD
ROOT
HETATM    1  C   UNL     1      -8.330  14.424  67.303  1.00  0.00    -0.228 C  
HETATM    2  C   UNL     1      -9.426  15.475  67.352  1.00  0.00    -0.213 C  
ENDROOT
BRANCH   2   3
HETATM    3  C   UNL     1      -9.882  15.862  65.948  1.00  0.00    -0.383 C  
BRANCH   3   4
HETATM    4  C   UNL     1     -10.290  14.631  65.143  1.00  0.00    -0.431 C  
BRANCH   4   5
HETATM    5  C   UNL     1     -11.800  14.606  64.919  1.00  0.00    -0.403 C  
BRANCH   5   6
HETATM    6  C   UNL     1     -12.300  13.176  64.740  1.00  0.00    -0.477 C  
BRANCH   6   7
HETATM    7  C   UNL     1     -11.763  12.574  63.446  1.00  0.00    -0.567 C  
BRANCH   7   8
HETATM    8  C   UNL     1     -11.097  11.229  63.709  1.00  0.00    -0.313 C  
BRANCH   8   9
HETATM    9  C   UNL     1      -9.624  11.415  64.060  1.00  0.00    -0.224 C  
BRANCH   9  10
HETATM   10  C   UNL     1      -9.240  10.548  65.253  1.00  0.00    -0.238 C  
BRANCH  10  11
HETATM   11  C   UNL     1     -10.411  10.394  66.218  1.00  0.00    -0.229 C  
BRANCH  11  12
HETATM   12  C   UNL     1     -10.421  11.528  67.237  1.00  0.00    -0.246 C  
BRANCH  12  13
HETATM   13  C   UNL     1     -11.330  11.202  68.419  1.00  0.00    -0.357 C  
BRANCH  13  14
HETATM   14  C   UNL     1     -10.508  10.981  69.687  1.00  0.00    -0.069 C  
BRANCH  14  15
HETATM   15  C   UNL     1     -11.264  10.119  70.694  1.00  0.00    -0.418 C  
HETATM   16  C   UNL     1     -10.936   8.653  70.531  1.00  0.00    -0.238 C  
HETATM   17  O   UNL     1     -11.600   7.879  71.421  1.00  0.00    -0.261 OA 
HETATM   18  O   UNL     1     -10.169   8.186  69.705  1.00  0.00    -0.194 OA 
ENDBRANCH  14  15
ENDBRANCH  13  14
ENDBRANCH  12  13
ENDBRANCH  11  12
ENDBRANCH  10  11
ENDBRANCH   9  10
ENDBRANCH   8   9
ENDBRANCH   7   8
ENDBRANCH   6   7
ENDBRANCH   5   6
ENDBRANCH   4   5
ENDBRANCH   3   4
ENDBRANCH   2   3
TORSDOF 13
ENDMDL
MODEL      256
REMARK 921   NORMALIZED FREE ENERGY PREDICTED BY IDOCK:   -3.19 KCAL/MOL
REMARK 922        TOTAL FREE ENERGY PREDICTED BY IDOCK:   -7.02 KCAL/MOL
REMARK 923 INTER-LIGAND FREE ENERGY PREDICTED BY IDOCK:   -5.76 KCAL/MOL
REMARK 924 INTRA-LIGAND FREE ENERGY PREDICTED BY IDOCK:   -1.26 KCAL/MOL
REMARK 927      BINDING AFFINITY PREDICTED BY RF-SCORE:    0.00 PKD
ROOT
HETATM    1  C   UNL     1      -8.105  11.514  67.936  1.00  0.00    -0.132 C  
HETATM    2  C   UNL     1      -7.770  10.333  67.042  1.00  0.00    -0.100 C  
ENDROOT
BRANCH   2   3
HETATM    3  C   UNL     1      -9.029   9.750  66.405  1.00  0.00    -0.176 C  
BRANCH   3   4
HETATM    4  C   UNL     1      -9.312   8.345  66.930  1.00  0.00    -0.221 C  
BRANCH   4   5
HETATM    5  C   UNL     1      -9.939   8.402  68.320  1.00  0.00    -0.214 C  
BRANCH   5   6
HETATM    6  C   UNL     1     -11.127   9.358  68.343  1.00  0.00     0.019 C  
BRANCH   6   7
HETATM    7  C   UNL     1     -11.021  10.323  69.520  1.00  0.00    -0.300 C  
BRANCH   7   8
HETATM    8  C   UNL     1     -11.890  11.554  69.291  1.00  0.00    -0.414 C  
BRANCH   8   9
HETATM    9  C   UNL     1     -12.149  12.284  70.605  1.00  0.00    -0.330 C  
BRANCH   9  10
HETATM   10  C   UNL     1     -12.111  13.794  70.400  1.00  0.00    -0.421 C  
BRANCH  10  11
HETATM   11  C   UNL     1     -12.027  14.143  68.917  1.00  0.00    -0.376 C  
BRANCH  11  12
HETATM   12  C   UNL     1     -11.787  15.638  68.728  1.00  0.00    -0.336 C  
BRANCH  12  13
HETATM   13  C   UNL     1     -10.297  15.966  68.753  1.00  0.00    -0.228 C  
BRANCH  13  14
HETATM   14  C   UNL     1      -9.675  15.753  67.375  1.00  0.00    -0.223 C  
BRANCH  14  15
HETATM   15  C   UNL     1     -10.324  16.655  66.329  1.00  0.00    -0.323 C  
HETATM   16  C   UNL     1     -10.741  15.876  65.103  1.00  0.00    -0.429 C  
HETATM   17  O   UNL     1     -11.320  16.667  64.169  1.00  0.00    -1.141 OA 
HETATM   18  O   UNL     1     -10.588  14.677  64.938  1.00  0.00    -0.416 OA 
ENDBRANCH  14  15
ENDBRANCH  13  14
ENDBRANCH  12  13
ENDBRANCH  11  12
ENDBRANCH  10  11
ENDBRANCH   9  10
ENDBRANCH   8   9
ENDBRANCH   7   8
ENDBRANCH   6   7
ENDBRANCH   5   6
ENDBRANCH   4   5
ENDBRANCH   3   4
ENDBRANCH   2   3
TORSDOF 13
ENDMDL
MODEL      257
REMARK 921   NORMALIZED FREE ENERGY PREDICTED BY IDOCK:   -3.18 KCAL/MOL
REMARK 922        TOTAL FREE ENERGY PREDICTED BY IDOCK:   -7.01 KCAL/MOL
REMARK 923 INTER-LIGAND FREE ENERGY PREDICTED BY IDOCK:   -4.64 KCAL/MOL
REMARK 924 INTRA-LIGAND FREE ENERGY PREDICTED BY IDOCK:   -2.37 KCAL/MOL
REMARK 927      BINDING AFFINITY PREDICTED BY RF-SCORE:    0.00 PKD
ROOT
HETATM    1  C   UNL     1     -10.280  11.676  68.186  1.00  0.00    -0.206 C  
HETATM    2  C   UNL     1     -10.279  10.187  68.485  1.00  0.00    -0.194 C  
ENDROOT
BRANCH   2   3
HETATM    3  C   UNL     1     -10.147   9.925  69.983  1.00  0.00    -0.308 C  
BRANCH   3   4
HETATM    4  C   UNL     1      -8.955   9.020  70.281  1.00  0.00    -0.221 C  
BRANCH   4   5
HETATM    5  C   UNL     1      -7.645   9.707  69.907  1.00  0.00    -0.138 C  
BRANCH   5   6
HETATM    6  C   UNL     1      -6.823   8.837  68.962  1.00  0.00    -0.059 C  
BRANCH   6   7
HETATM    7  C   UNL     1      -7.522   7.504  68.710  1.00  0.00    -0.097 C  
BRANCH   7   8
HETATM    8  C   UNL     1      -7.300   7.038  67.276  1.00  0.00    -0.091 C  
BRANCH   8   9
HETATM    9  C   UNL     1      -8.512   6.266  66.765  1.00  0.00    -0.111 C  
BRANCH   9  10
HETATM   10  C   UNL     1      -9.797   7.040  67.032  1.00  0.00    -0.239 C  
BRANCH  10  11
HETATM   11  C   UNL     1     -10.902   6.112  67.526  1.00  0.00    -0.422 C  
BRANCH  11  12
HETATM   12  C   UNL     1     -11.284   6.448  68.964  1.00  0.00    -0.402 C  
BRANCH  12  13
HETATM   13  C   UNL     1     -10.443   5.654  69.959  1.00  0.00    -0.367 C  
BRANCH  13  14
HETATM   14  C   UNL     1     -11.053   5.724  71.358  1.00  0.00    -0.273 C  
BRANCH  14  15
HETATM   15  C   UNL     1     -12.172   6.759  71.423  1.00  0.00    -0.413 C  
HETATM   16  C   UNL     1     -11.840   7.879  72.382  1.00  0.00    -0.348 C  
HETATM   17  O   UNL     1     -12.827   8.804  72.446  1.00  0.00    -0.385 OA 
HETATM   18  O   UNL     1     -10.816   7.971  73.038  1.00  0.00    -0.368 OA 
ENDBRANCH  14  15
ENDBRANCH  13  14
ENDBRANCH  12  13
ENDBRANCH  11  12
ENDBRANCH  10  11
ENDBRANCH   9  10
ENDBRANCH   8   9
ENDBRANCH   7   8
ENDBRANCH   6   7
ENDBRANCH   5   6
ENDBRANCH   4   5
ENDBRANCH   3   4
ENDBRANCH   2   3
TORSDOF 13
ENDMDL
MODEL      258
REMARK 921   NORMALIZED FREE ENERGY PREDICTED BY IDOCK:   -3.17 KCAL/MOL
REMARK 922        TOTAL FREE ENERGY PREDICTED BY IDOCK:   -6.99 KCAL/MOL
REMARK 923 INTER-LIGAND FREE ENERGY PREDICTED BY IDOCK:   -5.30 KCAL/MOL
REMARK 924 INTRA-LIGAND FREE ENERGY PREDICTED BY IDOCK:   -1.69 KCAL/MOL
REMARK 927      BINDING AFFINITY PREDICTED BY RF-SCORE:    0.00 PKD
ROOT
HETATM    1  C   UNL     1      -7.751   7.231  70.230  1.00  0.00    -0.094 C  
HETATM    2  C   UNL     1      -7.853   8.112  71.464  1.00  0.00    -0.122 C  
ENDROOT
BRANCH   2   3
HETATM    3  C   UNL     1      -8.895   7.573  72.440  1.00  0.00    -0.162 C  
BRANCH   3   4
HETATM    4  C   UNL     1      -9.740   6.479  71.795  1.00  0.00    -0.168 C  
BRANCH   4   5
HETATM    5  C   UNL     1     -11.188   6.559  72.270  1.00  0.00    -0.308 C  
BRANCH   5   6
HETATM    6  C   UNL     1     -11.585   8.002  72.566  1.00  0.00    -0.464 C  
BRANCH   6   7
HETATM    7  C   UNL     1     -12.220   8.649  71.340  1.00  0.00    -0.348 C  
BRANCH   7   8
HETATM    8  C   UNL     1     -11.552   9.982  71.024  1.00  0.00    -0.476 C  
BRANCH   8   9
HETATM    9  C   UNL     1     -11.296  10.116  69.526  1.00  0.00    -0.260 C  
BRANCH   9  10
HETATM   10  C   UNL     1     -10.864   8.782  68.930  1.00  0.00    -0.040 C  
BRANCH  10  11
HETATM   11  C   UNL     1     -10.065   8.989  67.647  1.00  0.00    -0.271 C  
BRANCH  11  12
HETATM   12  C   UNL     1     -10.890   9.752  66.616  1.00  0.00    -0.011 C  
BRANCH  12  13
HETATM   13  C   UNL     1     -10.035  10.172  65.424  1.00  0.00    -0.377 C  
BRANCH  13  14
HETATM   14  C   UNL     1     -10.266  11.643  65.086  1.00  0.00    -0.319 C  
BRANCH  14  15
HETATM   15  C   UNL     1     -11.607  12.132  65.625  1.00  0.00    -0.409 C  
HETATM   16  C   UNL     1     -12.039  13.419  64.963  1.00  0.00    -0.401 C  
HETATM   17  O   UNL     1     -13.230  13.860  65.433  1.00  0.00    -0.750 OA 
HETATM   18  O   UNL     1     -11.414  14.020  64.104  1.00  0.00    -0.323 OA 
ENDBRANCH  14  15
ENDBRANCH  13  14
ENDBRANCH  12  13
ENDBRANCH  11  12
ENDBRANCH  10  11
ENDBRANCH   9  10
ENDBRANCH   8   9
ENDBRANCH   7   8
ENDBRANCH   6   7
ENDBRANCH   5   6
ENDBRANCH   4   5
ENDBRANCH   3   4
ENDBRANCH   2   3
TORSDOF 13
ENDMDL
MODEL      259
REMARK 921   NORMALIZED FREE ENERGY PREDICTED BY IDOCK:   -3.17 KCAL/MOL
REMARK 922        TOTAL FREE ENERGY PREDICTED BY IDOCK:   -6.99 KCAL/MOL
REMARK 923 INTER-LIGAND FREE ENERGY PREDICTED BY IDOCK:   -6.02 KCAL/MOL
REMARK 924 INTRA-LIGAND FREE ENERGY PREDICTED BY IDOCK:   -0.97 KCAL/MOL
REMARK 927      BINDING AFFINITY PREDICTED BY RF-SCORE:    0.00 PKD
ROOT
HETATM    1  C   UNL     1     -12.449  15.744  70.899  1.00  0.00    -0.451 C  
HETATM    2  C   UNL     1     -12.412  14.235  70.727  1.00  0.00    -0.428 C  
ENDROOT
BRANCH   2   3
HETATM    3  C   UNL     1     -12.154  13.854  69.271  1.00  0.00    -0.383 C  
BRANCH   3   4
HETATM    4  C   UNL     1     -10.728  13.345  69.081  1.00  0.00    -0.097 C  
BRANCH   4   5
HETATM    5  C   UNL     1     -10.725  11.868  68.699  1.00  0.00    -0.266 C  
BRANCH   5   6
HETATM    6  C   UNL     1     -11.917  11.143  69.315  1.00  0.00    -0.421 C  
BRANCH   6   7
HETATM    7  C   UNL     1     -11.609  10.719  70.748  1.00  0.00    -0.322 C  
BRANCH   7   8
HETATM    8  C   UNL     1     -12.834  10.891  71.639  1.00  0.00    -0.554 C  
BRANCH   8   9
HETATM    9  C   UNL     1     -13.369   9.536  72.089  1.00  0.00    -0.545 C  
BRANCH   9  10
HETATM   10  C   UNL     1     -12.252   8.500  72.129  1.00  0.00    -0.446 C  
BRANCH  10  11
HETATM   11  C   UNL     1     -12.649   7.236  71.372  1.00  0.00    -0.423 C  
BRANCH  11  12
HETATM   12  C   UNL     1     -11.416   6.418  71.006  1.00  0.00    -0.394 C  
BRANCH  12  13
HETATM   13  C   UNL     1     -10.558   6.131  72.235  1.00  0.00    -0.251 C  
BRANCH  13  14
HETATM   14  C   UNL     1      -9.092   5.962  71.842  1.00  0.00    -0.142 C  
BRANCH  14  15
HETATM   15  C   UNL     1      -8.636   7.081  70.910  1.00  0.00    -0.139 C  
HETATM   16  C   UNL     1      -8.427   8.379  71.655  1.00  0.00    -0.163 C  
HETATM   17  O   UNL     1      -8.021   9.377  70.837  1.00  0.00    -0.249 OA 
HETATM   18  O   UNL     1      -8.595   8.544  72.853  1.00  0.00    -0.345 OA 
ENDBRANCH  14  15
ENDBRANCH  13  14
ENDBRANCH  12  13
ENDBRANCH  11  12
ENDBRANCH  10  11
ENDBRANCH   9  10
ENDBRANCH   8   9
ENDBRANCH   7   8
ENDBRANCH   6   7
ENDBRANCH   5   6
ENDBRANCH   4   5
ENDBRANCH   3   4
ENDBRANCH   2   3
TORSDOF 13
ENDMDL
MODEL      260
REMARK 921   NORMALIZED FREE ENERGY PREDICTED BY IDOCK:   -3.16 KCAL/MOL
REMARK 922        TOTAL FREE ENERGY PREDICTED BY IDOCK:   -6.98 KCAL/MOL
REMARK 923 INTER-LIGAND FREE ENERGY PREDICTED BY IDOCK:   -5.86 KCAL/MOL
REMARK 924 INTRA-LIGAND FREE ENERGY PREDICTED BY IDOCK:   -1.11 KCAL/MOL
REMARK 927      BINDING AFFINITY PREDICTED BY RF-SCORE:    0.00 PKD
ROOT
HETATM    1  C   UNL     1     -14.331   7.401  71.570  1.00  0.00    -0.594 C  
HETATM    2  C   UNL     1     -12.836   7.165  71.444  1.00  0.00    -0.431 C  
ENDROOT
BRANCH   2   3
HETATM    3  C   UNL     1     -12.044   8.346  72.001  1.00  0.00    -0.417 C  
BRANCH   3   4
HETATM    4  C   UNL     1     -10.909   7.870  72.903  1.00  0.00    -0.451 C  
BRANCH   4   5
HETATM    5  C   UNL     1      -9.571   8.438  72.437  1.00  0.00    -0.373 C  
BRANCH   5   6
HETATM    6  C   UNL     1      -9.072   7.708  71.195  1.00  0.00    -0.152 C  
BRANCH   6   7
HETATM    7  C   UNL     1      -8.055   8.558  70.441  1.00  0.00    -0.108 C  
BRANCH   7   8
HETATM    8  C   UNL     1      -8.748   9.461  69.427  1.00  0.00    -0.157 C  
BRANCH   8   9
HETATM    9  C   UNL     1     -10.074   8.853  68.981  1.00  0.00    -0.205 C  
BRANCH   9  10
HETATM   10  C   UNL     1     -10.891   9.864  68.185  1.00  0.00    -0.282 C  
BRANCH  10  11
HETATM   11  C   UNL     1     -10.286  11.261  68.291  1.00  0.00    -0.200 C  
BRANCH  11  12
HETATM   12  C   UNL     1     -11.348  12.327  68.043  1.00  0.00    -0.348 C  
BRANCH  12  13
HETATM   13  C   UNL     1     -11.349  12.778  66.585  1.00  0.00    -0.364 C  
BRANCH  13  14
HETATM   14  C   UNL     1     -10.101  13.601  66.274  1.00  0.00    -0.301 C  
BRANCH  14  15
HETATM   15  C   UNL     1     -10.127  14.942  67.002  1.00  0.00    -0.244 C  
HETATM   16  C   UNL     1     -10.474  16.078  66.068  1.00  0.00    -0.345 C  
HETATM   17  O   UNL     1     -10.501  17.272  66.705  1.00  0.00    -0.313 OA 
HETATM   18  O   UNL     1     -10.707  15.969  64.875  1.00  0.00    -0.576 OA 
ENDBRANCH  14  15
ENDBRANCH  13  14
ENDBRANCH  12  13
ENDBRANCH  11  12
ENDBRANCH  10  11
ENDBRANCH   9  10
ENDBRANCH   8   9
ENDBRANCH   7   8
ENDBRANCH   6   7
ENDBRANCH   5   6
ENDBRANCH   4   5
ENDBRANCH   3   4
ENDBRANCH   2   3
TORSDOF 13
ENDMDL
MODEL      261
REMARK 921   NORMALIZED FREE ENERGY PREDICTED BY IDOCK:   -3.16 KCAL/MOL
REMARK 922        TOTAL FREE ENERGY PREDICTED BY IDOCK:   -6.97 KCAL/MOL
REMARK 923 INTER-LIGAND FREE ENERGY PREDICTED BY IDOCK:   -5.92 KCAL/MOL
REMARK 924 INTRA-LIGAND FREE ENERGY PREDICTED BY IDOCK:   -1.06 KCAL/MOL
REMARK 927      BINDING AFFINITY PREDICTED BY RF-SCORE:    0.00 PKD
ROOT
HETATM    1  C   UNL     1      -9.420   5.631  72.458  1.00  0.00    -0.157 C  
HETATM    2  C   UNL     1     -10.933   5.525  72.548  1.00  0.00    -0.316 C  
ENDROOT
BRANCH   2   3
HETATM    3  C   UNL     1     -11.610   6.673  71.803  1.00  0.00    -0.347 C  
BRANCH   3   4
HETATM    4  C   UNL     1     -11.488   7.981  72.579  1.00  0.00    -0.471 C  
BRANCH   4   5
HETATM    5  C   UNL     1     -11.982   9.157  71.741  1.00  0.00    -0.449 C  
BRANCH   5   6
HETATM    6  C   UNL     1     -11.326   9.159  70.364  1.00  0.00    -0.260 C  
BRANCH   6   7
HETATM    7  C   UNL     1     -11.264  10.575  69.799  1.00  0.00    -0.361 C  
BRANCH   7   8
HETATM    8  C   UNL     1     -12.225  11.497  70.540  1.00  0.00    -0.469 C  
BRANCH   8   9
HETATM    9  C   UNL     1     -11.965  12.954  70.174  1.00  0.00    -0.373 C  
BRANCH   9  10
HETATM   10  C   UNL     1     -11.133  13.051  68.901  1.00  0.00    -0.307 C  
BRANCH  10  11
HETATM   11  C   UNL     1     -11.918  13.735  67.785  1.00  0.00    -0.391 C  
BRANCH  11  12
HETATM   12  C   UNL     1     -11.947  12.863  66.535  1.00  0.00    -0.447 C  
BRANCH  12  13
HETATM   13  C   UNL     1     -10.634  12.106  66.357  1.00  0.00    -0.275 C  
BRANCH  13  14
HETATM   14  C   UNL     1     -10.604  11.386  65.011  1.00  0.00    -0.359 C  
BRANCH  14  15
HETATM   15  C   UNL     1      -9.816  10.082  65.097  1.00  0.00    -0.388 C  
HETATM   16  C   UNL     1      -8.787   9.977  63.996  1.00  0.00    -0.224 C  
HETATM   17  O   UNL     1      -8.082   8.824  64.065  1.00  0.00    -0.149 OA 
HETATM   18  O   UNL     1      -8.588  10.813  63.129  1.00  0.00    -0.173 OA 
ENDBRANCH  14  15
ENDBRANCH  13  14
ENDBRANCH  12  13
ENDBRANCH  11  12
ENDBRANCH  10  11
ENDBRANCH   9  10
ENDBRANCH   8   9
ENDBRANCH   7   8
ENDBRANCH   6   7
ENDBRANCH   5   6
ENDBRANCH   4   5
ENDBRANCH   3   4
ENDBRANCH   2   3
TORSDOF 13
ENDMDL
MODEL      262
REMARK 921   NORMALIZED FREE ENERGY PREDICTED BY IDOCK:   -3.16 KCAL/MOL
REMARK 922        TOTAL FREE ENERGY PREDICTED BY IDOCK:   -6.97 KCAL/MOL
REMARK 923 INTER-LIGAND FREE ENERGY PREDICTED BY IDOCK:   -5.57 KCAL/MOL
REMARK 924 INTRA-LIGAND FREE ENERGY PREDICTED BY IDOCK:   -1.40 KCAL/MOL
REMARK 927      BINDING AFFINITY PREDICTED BY RF-SCORE:    0.00 PKD
ROOT
HETATM    1  C   UNL     1     -12.613  12.423  64.495  1.00  0.00    -0.477 C  
HETATM    2  C   UNL     1     -11.346  12.963  63.854  1.00  0.00    -0.489 C  
ENDROOT
BRANCH   2   3
HETATM    3  C   UNL     1     -10.455  11.828  63.355  1.00  0.00    -0.485 C  
BRANCH   3   4
HETATM    4  C   UNL     1     -10.277  10.756  64.426  1.00  0.00    -0.432 C  
BRANCH   4   5
HETATM    5  C   UNL     1      -9.050  11.045  65.285  1.00  0.00    -0.207 C  
BRANCH   5   6
HETATM    6  C   UNL     1      -9.353  10.820  66.762  1.00  0.00    -0.182 C  
BRANCH   6   7
HETATM    7  C   UNL     1      -9.878  12.098  67.407  1.00  0.00    -0.193 C  
BRANCH   7   8
HETATM    8  C   UNL     1      -9.116  13.315  66.895  1.00  0.00    -0.235 C  
BRANCH   8   9
HETATM    9  C   UNL     1     -10.064  14.487  66.661  1.00  0.00    -0.275 C  
BRANCH   9  10
HETATM   10  C   UNL     1      -9.349  15.625  65.942  1.00  0.00    -0.357 C  
BRANCH  10  11
HETATM   11  C   UNL     1      -8.344  16.308  66.863  1.00  0.00    -0.267 C  
BRANCH  11  12
HETATM   12  C   UNL     1      -8.923  17.603  67.425  1.00  0.00    -0.231 C  
BRANCH  12  13
HETATM   13  C   UNL     1      -8.546  18.800  66.556  1.00  0.00    -0.312 C  
BRANCH  13  14
HETATM   14  C   UNL     1      -7.160  18.608  65.945  1.00  0.00    -0.290 C  
BRANCH  14  15
HETATM   15  C   UNL     1      -6.435  19.941  65.784  1.00  0.00    -0.254 C  
HETATM   16  C   UNL     1      -5.907  20.123  64.380  1.00  0.00    -0.253 C  
HETATM   17  O   UNL     1      -5.263  21.305  64.227  1.00  0.00    -0.208 OA 
HETATM   18  O   UNL     1      -6.026  19.322  63.468  1.00  0.00    -0.424 OA 
ENDBRANCH  14  15
ENDBRANCH  13  14
ENDBRANCH  12  13
ENDBRANCH  11  12
ENDBRANCH  10  11
ENDBRANCH   9  10
ENDBRANCH   8   9
ENDBRANCH   7   8
ENDBRANCH   6   7
ENDBRANCH   5   6
ENDBRANCH   4   5
ENDBRANCH   3   4
ENDBRANCH   2   3
TORSDOF 13
ENDMDL
MODEL      263
REMARK 921   NORMALIZED FREE ENERGY PREDICTED BY IDOCK:   -3.16 KCAL/MOL
REMARK 922        TOTAL FREE ENERGY PREDICTED BY IDOCK:   -6.97 KCAL/MOL
REMARK 923 INTER-LIGAND FREE ENERGY PREDICTED BY IDOCK:   -5.54 KCAL/MOL
REMARK 924 INTRA-LIGAND FREE ENERGY PREDICTED BY IDOCK:   -1.43 KCAL/MOL
REMARK 927      BINDING AFFINITY PREDICTED BY RF-SCORE:    0.00 PKD
ROOT
HETATM    1  C   UNL     1     -12.032   6.756  70.844  1.00  0.00    -0.437 C  
HETATM    2  C   UNL     1     -11.875   7.657  72.057  1.00  0.00    -0.342 C  
ENDROOT
BRANCH   2   3
HETATM    3  C   UNL     1     -10.430   8.122  72.214  1.00  0.00    -0.371 C  
BRANCH   3   4
HETATM    4  C   UNL     1      -9.494   7.328  71.307  1.00  0.00    -0.156 C  
BRANCH   4   5
HETATM    5  C   UNL     1      -8.576   8.262  70.523  1.00  0.00    -0.131 C  
BRANCH   5   6
HETATM    6  C   UNL     1      -9.234   9.622  70.312  1.00  0.00    -0.285 C  
BRANCH   6   7
HETATM    7  C   UNL     1      -9.833   9.720  68.912  1.00  0.00    -0.177 C  
BRANCH   7   8
HETATM    8  C   UNL     1      -9.234  10.895  68.148  1.00  0.00    -0.158 C  
BRANCH   8   9
HETATM    9  C   UNL     1      -8.273  10.404  67.069  1.00  0.00    -0.123 C  
BRANCH   9  10
HETATM   10  C   UNL     1      -8.746   9.077  66.488  1.00  0.00    -0.144 C  
BRANCH  10  11
HETATM   11  C   UNL     1      -8.915   9.172  64.975  1.00  0.00    -0.221 C  
BRANCH  11  12
HETATM   12  C   UNL     1      -8.750  10.613  64.504  1.00  0.00    -0.154 C  
BRANCH  12  13
HETATM   13  C   UNL     1      -9.584  10.885  63.255  1.00  0.00    -0.377 C  
BRANCH  13  14
HETATM   14  C   UNL     1     -10.972  11.397  63.633  1.00  0.00    -0.443 C  
BRANCH  14  15
HETATM   15  C   UNL     1     -10.937  12.175  64.945  1.00  0.00    -0.355 C  
HETATM   16  C   UNL     1     -12.300  12.715  65.311  1.00  0.00    -0.466 C  
HETATM   17  O   UNL     1     -12.279  13.406  66.475  1.00  0.00    -0.399 OA 
HETATM   18  O   UNL     1     -13.320  12.566  64.659  1.00  0.00    -0.804 OA 
ENDBRANCH  14  15
ENDBRANCH  13  14
ENDBRANCH  12  13
ENDBRANCH  11  12
ENDBRANCH  10  11
ENDBRANCH   9  10
ENDBRANCH   8   9
ENDBRANCH   7   8
ENDBRANCH   6   7
ENDBRANCH   5   6
ENDBRANCH   4   5
ENDBRANCH   3   4
ENDBRANCH   2   3
TORSDOF 13
ENDMDL
MODEL      264
REMARK 921   NORMALIZED FREE ENERGY PREDICTED BY IDOCK:   -3.15 KCAL/MOL
REMARK 922        TOTAL FREE ENERGY PREDICTED BY IDOCK:   -6.94 KCAL/MOL
REMARK 923 INTER-LIGAND FREE ENERGY PREDICTED BY IDOCK:   -5.74 KCAL/MOL
REMARK 924 INTRA-LIGAND FREE ENERGY PREDICTED BY IDOCK:   -1.21 KCAL/MOL
REMARK 927      BINDING AFFINITY PREDICTED BY RF-SCORE:    0.00 PKD
ROOT
HETATM    1  C   UNL     1      -6.545  17.874  69.076  1.00  0.00    -0.247 C  
HETATM    2  C   UNL     1      -7.224  19.220  68.888  1.00  0.00    -0.393 C  
ENDROOT
BRANCH   2   3
HETATM    3  C   UNL     1      -7.519  19.487  67.414  1.00  0.00    -0.276 C  
BRANCH   3   4
HETATM    4  C   UNL     1      -8.659  20.489  67.254  1.00  0.00    -0.372 C  
BRANCH   4   5
HETATM    5  C   UNL     1      -9.668  20.001  66.218  1.00  0.00    -0.546 C  
BRANCH   5   6
HETATM    6  C   UNL     1     -10.594  18.946  66.814  1.00  0.00    -0.480 C  
BRANCH   6   7
HETATM    7  C   UNL     1     -10.365  17.591  66.151  1.00  0.00    -0.330 C  
BRANCH   7   8
HETATM    8  C   UNL     1      -9.983  16.540  67.186  1.00  0.00    -0.266 C  
BRANCH   8   9
HETATM    9  C   UNL     1     -10.855  16.665  68.431  1.00  0.00    -0.361 C  
BRANCH   9  10
HETATM   10  C   UNL     1     -11.682  15.402  68.640  1.00  0.00    -0.371 C  
BRANCH  10  11
HETATM   11  C   UNL     1     -11.907  14.670  67.320  1.00  0.00    -0.375 C  
BRANCH  11  12
HETATM   12  C   UNL     1     -11.936  13.161  67.539  1.00  0.00    -0.367 C  
BRANCH  12  13
HETATM   13  C   UNL     1     -10.544  12.554  67.395  1.00  0.00    -0.242 C  
BRANCH  13  14
HETATM   14  C   UNL     1     -10.623  11.166  66.763  1.00  0.00    -0.311 C  
BRANCH  14  15
HETATM   15  C   UNL     1     -10.971  10.103  67.801  1.00  0.00    -0.338 C  
HETATM   16  C   UNL     1      -9.747   9.337  68.247  1.00  0.00    -0.150 C  
HETATM   17  O   UNL     1     -10.045   8.392  69.170  1.00  0.00    -0.192 OA 
HETATM   18  O   UNL     1      -8.610   9.519  67.843  1.00  0.00    -0.119 OA 
ENDBRANCH  14  15
ENDBRANCH  13  14
ENDBRANCH  12  13
ENDBRANCH  11  12
ENDBRANCH  10  11
ENDBRANCH   9  10
ENDBRANCH   8   9
ENDBRANCH   7   8
ENDBRANCH   6   7
ENDBRANCH   5   6
ENDBRANCH   4   5
ENDBRANCH   3   4
ENDBRANCH   2   3
TORSDOF 13
ENDMDL
MODEL      265
REMARK 921   NORMALIZED FREE ENERGY PREDICTED BY IDOCK:   -3.12 KCAL/MOL
REMARK 922        TOTAL FREE ENERGY PREDICTED BY IDOCK:   -6.90 KCAL/MOL
REMARK 923 INTER-LIGAND FREE ENERGY PREDICTED BY IDOCK:   -5.85 KCAL/MOL
REMARK 924 INTRA-LIGAND FREE ENERGY PREDICTED BY IDOCK:   -1.05 KCAL/MOL
REMARK 927      BINDING AFFINITY PREDICTED BY RF-SCORE:    0.00 PKD
ROOT
HETATM    1  C   UNL     1      -9.611  10.910  62.874  1.00  0.00    -0.371 C  
HETATM    2  C   UNL     1     -10.556  11.973  63.407  1.00  0.00    -0.478 C  
ENDROOT
BRANCH   2   3
HETATM    3  C   UNL     1     -10.553  11.998  64.933  1.00  0.00    -0.334 C  
BRANCH   3   4
HETATM    4  C   UNL     1     -11.892  12.488  65.478  1.00  0.00    -0.491 C  
BRANCH   4   5
HETATM    5  C   UNL     1     -11.705  13.204  66.813  1.00  0.00    -0.439 C  
BRANCH   5   6
HETATM    6  C   UNL     1     -10.259  13.106  67.286  1.00  0.00    -0.243 C  
BRANCH   6   7
HETATM    7  C   UNL     1      -9.982  14.123  68.389  1.00  0.00    -0.235 C  
BRANCH   7   8
HETATM    8  C   UNL     1     -11.183  14.255  69.318  1.00  0.00    -0.309 C  
BRANCH   8   9
HETATM    9  C   UNL     1     -11.782  15.655  69.231  1.00  0.00    -0.388 C  
BRANCH   9  10
HETATM   10  C   UNL     1     -10.686  16.714  69.273  1.00  0.00    -0.337 C  
BRANCH  10  11
HETATM   11  C   UNL     1     -10.762  17.629  68.055  1.00  0.00    -0.333 C  
BRANCH  11  12
HETATM   12  C   UNL     1      -9.381  17.816  67.435  1.00  0.00    -0.252 C  
BRANCH  12  13
HETATM   13  C   UNL     1      -8.277  17.488  68.437  1.00  0.00    -0.278 C  
BRANCH  13  14
HETATM   14  C   UNL     1      -7.204  18.575  68.432  1.00  0.00    -0.292 C  
BRANCH  14  15
HETATM   15  C   UNL     1      -7.083  19.229  67.058  1.00  0.00    -0.216 C  
HETATM   16  C   UNL     1      -6.494  20.617  67.150  1.00  0.00    -0.269 C  
HETATM   17  O   UNL     1      -6.381  21.204  65.936  1.00  0.00    -0.244 OA 
HETATM   18  O   UNL     1      -6.150  21.175  68.179  1.00  0.00    -0.342 OA 
ENDBRANCH  14  15
ENDBRANCH  13  14
ENDBRANCH  12  13
ENDBRANCH  11  12
ENDBRANCH  10  11
ENDBRANCH   9  10
ENDBRANCH   8   9
ENDBRANCH   7   8
ENDBRANCH   6   7
ENDBRANCH   5   6
ENDBRANCH   4   5
ENDBRANCH   3   4
ENDBRANCH   2   3
TORSDOF 13
ENDMDL
MODEL      266
REMARK 921   NORMALIZED FREE ENERGY PREDICTED BY IDOCK:   -3.12 KCAL/MOL
REMARK 922        TOTAL FREE ENERGY PREDICTED BY IDOCK:   -6.89 KCAL/MOL
REMARK 923 INTER-LIGAND FREE ENERGY PREDICTED BY IDOCK:   -5.86 KCAL/MOL
REMARK 924 INTRA-LIGAND FREE ENERGY PREDICTED BY IDOCK:   -1.04 KCAL/MOL
REMARK 927      BINDING AFFINITY PREDICTED BY RF-SCORE:    0.00 PKD
ROOT
HETATM    1  C   UNL     1     -10.460   7.666  67.931  1.00  0.00    -0.270 C  
HETATM    2  C   UNL     1      -9.821   7.992  69.271  1.00  0.00    -0.178 C  
ENDROOT
BRANCH   2   3
HETATM    3  C   UNL     1     -10.536   7.271  70.411  1.00  0.00    -0.232 C  
BRANCH   3   4
HETATM    4  C   UNL     1     -10.309   7.985  71.741  1.00  0.00    -0.275 C  
BRANCH   4   5
HETATM    5  C   UNL     1     -11.633   8.447  72.342  1.00  0.00    -0.450 C  
BRANCH   5   6
HETATM    6  C   UNL     1     -12.508   9.114  71.285  1.00  0.00    -0.366 C  
BRANCH   6   7
HETATM    7  C   UNL     1     -13.076  10.430  71.807  1.00  0.00    -0.567 C  
BRANCH   7   8
HETATM    8  C   UNL     1     -12.483  11.613  71.051  1.00  0.00    -0.436 C  
BRANCH   8   9
HETATM    9  C   UNL     1     -11.451  11.141  70.033  1.00  0.00    -0.376 C  
BRANCH   9  10
HETATM   10  C   UNL     1     -11.379  12.101  68.851  1.00  0.00    -0.335 C  
BRANCH  10  11
HETATM   11  C   UNL     1     -11.827  13.502  69.257  1.00  0.00    -0.392 C  
BRANCH  11  12
HETATM   12  C   UNL     1     -10.649  14.309  69.793  1.00  0.00     0.118 C  
BRANCH  12  13
HETATM   13  C   UNL     1     -10.725  15.765  69.343  1.00  0.00    -0.266 C  
BRANCH  13  14
HETATM   14  C   UNL     1      -9.526  16.123  68.468  1.00  0.00    -0.216 C  
BRANCH  14  15
HETATM   15  C   UNL     1      -9.954  16.412  67.032  1.00  0.00    -0.261 C  
HETATM   16  C   UNL     1     -10.278  17.874  66.829  1.00  0.00    -0.360 C  
HETATM   17  O   UNL     1     -10.657  18.141  65.557  1.00  0.00    -0.638 OA 
HETATM   18  O   UNL     1     -10.216  18.740  67.687  1.00  0.00    -0.356 OA 
ENDBRANCH  14  15
ENDBRANCH  13  14
ENDBRANCH  12  13
ENDBRANCH  11  12
ENDBRANCH  10  11
ENDBRANCH   9  10
ENDBRANCH   8   9
ENDBRANCH   7   8
ENDBRANCH   6   7
ENDBRANCH   5   6
ENDBRANCH   4   5
ENDBRANCH   3   4
ENDBRANCH   2   3
TORSDOF 13
ENDMDL
MODEL      267
REMARK 921   NORMALIZED FREE ENERGY PREDICTED BY IDOCK:   -3.12 KCAL/MOL
REMARK 922        TOTAL FREE ENERGY PREDICTED BY IDOCK:   -6.89 KCAL/MOL
REMARK 923 INTER-LIGAND FREE ENERGY PREDICTED BY IDOCK:   -4.74 KCAL/MOL
REMARK 924 INTRA-LIGAND FREE ENERGY PREDICTED BY IDOCK:   -2.15 KCAL/MOL
REMARK 927      BINDING AFFINITY PREDICTED BY RF-SCORE:    0.00 PKD
ROOT
HETATM    1  C   UNL     1      -6.541   9.478  69.926  1.00  0.00    -0.059 C  
HETATM    2  C   UNL     1      -7.447   8.443  69.283  1.00  0.00    -0.084 C  
ENDROOT
BRANCH   2   3
HETATM    3  C   UNL     1      -8.637   8.118  70.183  1.00  0.00    -0.129 C  
BRANCH   3   4
HETATM    4  C   UNL     1      -9.388   9.385  70.581  1.00  0.00    -0.314 C  
BRANCH   4   5
HETATM    5  C   UNL     1     -10.829   9.063  70.968  1.00  0.00    -0.345 C  
BRANCH   5   6
HETATM    6  C   UNL     1     -11.692  10.320  70.950  1.00  0.00    -0.472 C  
BRANCH   6   7
HETATM    7  C   UNL     1     -12.013  10.734  69.517  1.00  0.00    -0.364 C  
BRANCH   7   8
HETATM    8  C   UNL     1     -11.547  12.159  69.247  1.00  0.00    -0.377 C  
BRANCH   8   9
HETATM    9  C   UNL     1     -11.723  12.516  67.775  1.00  0.00    -0.419 C  
BRANCH   9  10
HETATM   10  C   UNL     1     -10.393  12.935  67.158  1.00  0.00    -0.239 C  
BRANCH  10  11
HETATM   11  C   UNL     1      -9.219  12.409  67.978  1.00  0.00    -0.203 C  
BRANCH  11  12
HETATM   12  C   UNL     1      -8.706  11.094  67.401  1.00  0.00    -0.133 C  
BRANCH  12  13
HETATM   13  C   UNL     1      -9.351  10.793  66.050  1.00  0.00    -0.215 C  
BRANCH  13  14
HETATM   14  C   UNL     1      -9.552   9.290  65.871  1.00  0.00    -0.345 C  
BRANCH  14  15
HETATM   15  C   UNL     1     -10.406   8.708  66.994  1.00  0.00    -0.368 C  
HETATM   16  C   UNL     1     -10.252   7.208  67.093  1.00  0.00    -0.257 C  
HETATM   17  O   UNL     1     -11.004   6.683  68.088  1.00  0.00    -0.260 OA 
HETATM   18  O   UNL     1      -9.542   6.520  66.377  1.00  0.00    -0.163 OA 
ENDBRANCH  14  15
ENDBRANCH  13  14
ENDBRANCH  12  13
ENDBRANCH  11  12
ENDBRANCH  10  11
ENDBRANCH   9  10
ENDBRANCH   8   9
ENDBRANCH   7   8
ENDBRANCH   6   7
ENDBRANCH   5   6
ENDBRANCH   4   5
ENDBRANCH   3   4
ENDBRANCH   2   3
TORSDOF 13
ENDMDL
MODEL      268
REMARK 921   NORMALIZED FREE ENERGY PREDICTED BY IDOCK:   -3.11 KCAL/MOL
REMARK 922        TOTAL FREE ENERGY PREDICTED BY IDOCK:   -6.87 KCAL/MOL
REMARK 923 INTER-LIGAND FREE ENERGY PREDICTED BY IDOCK:   -5.89 KCAL/MOL
REMARK 924 INTRA-LIGAND FREE ENERGY PREDICTED BY IDOCK:   -0.99 KCAL/MOL
REMARK 927      BINDING AFFINITY PREDICTED BY RF-SCORE:    0.00 PKD
ROOT
HETATM    1  C   UNL     1     -13.413  15.178  71.431  1.00  0.00    -0.561 C  
HETATM    2  C   UNL     1     -12.433  14.617  70.415  1.00  0.00    -0.410 C  
ENDROOT
BRANCH   2   3
HETATM    3  C   UNL     1     -11.924  15.710  69.478  1.00  0.00    -0.363 C  
BRANCH   3   4
HETATM    4  C   UNL     1     -11.497  15.127  68.134  1.00  0.00    -0.356 C  
BRANCH   4   5
HETATM    5  C   UNL     1     -11.658  13.610  68.125  1.00  0.00    -0.367 C  
BRANCH   5   6
HETATM    6  C   UNL     1     -10.314  12.918  68.330  1.00  0.00    -0.248 C  
BRANCH   6   7
HETATM    7  C   UNL     1     -10.514  11.471  68.770  1.00  0.00    -0.227 C  
BRANCH   7   8
HETATM    8  C   UNL     1     -11.995  11.110  68.788  1.00  0.00    -0.337 C  
BRANCH   8   9
HETATM    9  C   UNL     1     -12.439  10.721  70.195  1.00  0.00    -0.357 C  
BRANCH   9  10
HETATM   10  C   UNL     1     -11.607   9.556  70.720  1.00  0.00    -0.378 C  
BRANCH  10  11
HETATM   11  C   UNL     1     -12.453   8.626  71.584  1.00  0.00    -0.382 C  
BRANCH  11  12
HETATM   12  C   UNL     1     -11.808   7.248  71.682  1.00  0.00    -0.330 C  
BRANCH  12  13
HETATM   13  C   UNL     1     -10.820   7.017  70.542  1.00  0.00    -0.279 C  
BRANCH  13  14
HETATM   14  C   UNL     1     -11.532   6.443  69.319  1.00  0.00    -0.318 C  
BRANCH  14  15
HETATM   15  C   UNL     1     -10.541   6.109  68.207  1.00  0.00    -0.324 C  
HETATM   16  C   UNL     1     -10.327   7.282  67.279  1.00  0.00    -0.279 C  
HETATM   17  O   UNL     1      -9.448   6.996  66.290  1.00  0.00    -0.158 OA 
HETATM   18  O   UNL     1     -10.866   8.372  67.378  1.00  0.00    -0.213 OA 
ENDBRANCH  14  15
ENDBRANCH  13  14
ENDBRANCH  12  13
ENDBRANCH  11  12
ENDBRANCH  10  11
ENDBRANCH   9  10
ENDBRANCH   8   9
ENDBRANCH   7   8
ENDBRANCH   6   7
ENDBRANCH   5   6
ENDBRANCH   4   5
ENDBRANCH   3   4
ENDBRANCH   2   3
TORSDOF 13
ENDMDL
MODEL      269
REMARK 921   NORMALIZED FREE ENERGY PREDICTED BY IDOCK:   -3.10 KCAL/MOL
REMARK 922        TOTAL FREE ENERGY PREDICTED BY IDOCK:   -6.85 KCAL/MOL
REMARK 923 INTER-LIGAND FREE ENERGY PREDICTED BY IDOCK:   -5.25 KCAL/MOL
REMARK 924 INTRA-LIGAND FREE ENERGY PREDICTED BY IDOCK:   -1.60 KCAL/MOL
REMARK 927      BINDING AFFINITY PREDICTED BY RF-SCORE:    0.00 PKD
ROOT
HETATM    1  C   UNL     1      -8.180   8.167  65.098  1.00  0.00    -0.156 C  
HETATM    2  C   UNL     1      -8.633   7.818  66.505  1.00  0.00    -0.149 C  
ENDROOT
BRANCH   2   3
HETATM    3  C   UNL     1     -10.043   8.337  66.775  1.00  0.00    -0.373 C  
BRANCH   3   4
HETATM    4  C   UNL     1     -10.296   8.490  68.272  1.00  0.00    -0.246 C  
BRANCH   4   5
HETATM    5  C   UNL     1      -9.819   9.852  68.767  1.00  0.00    -0.177 C  
BRANCH   5   6
HETATM    6  C   UNL     1     -10.994  10.804  68.961  1.00  0.00    -0.289 C  
BRANCH   6   7
HETATM    7  C   UNL     1     -10.680  12.176  68.373  1.00  0.00    -0.252 C  
BRANCH   7   8
HETATM    8  C   UNL     1      -9.939  12.042  67.048  1.00  0.00    -0.218 C  
BRANCH   8   9
HETATM    9  C   UNL     1     -10.918  11.796  65.905  1.00  0.00    -0.354 C  
BRANCH   9  10
HETATM   10  C   UNL     1     -12.020  12.848  65.902  1.00  0.00    -0.504 C  
BRANCH  10  11
HETATM   11  C   UNL     1     -12.288  13.357  64.488  1.00  0.00    -0.415 C  
BRANCH  11  12
HETATM   12  C   UNL     1     -11.973  14.845  64.383  1.00  0.00    -0.408 C  
BRANCH  12  13
HETATM   13  C   UNL     1     -10.563  15.149  64.884  1.00  0.00    -0.392 C  
BRANCH  13  14
HETATM   14  C   UNL     1     -10.591  16.262  65.930  1.00  0.00    -0.307 C  
BRANCH  14  15
HETATM   15  C   UNL     1      -9.726  15.910  67.137  1.00  0.00    -0.227 C  
HETATM   16  C   UNL     1     -10.460  16.143  68.436  1.00  0.00    -0.274 C  
HETATM   17  O   UNL     1      -9.702  15.832  69.514  1.00  0.00    -0.261 OA 
HETATM   18  O   UNL     1     -11.602  16.561  68.541  1.00  0.00    -0.252 OA 
ENDBRANCH  14  15
ENDBRANCH  13  14
ENDBRANCH  12  13
ENDBRANCH  11  12
ENDBRANCH  10  11
ENDBRANCH   9  10
ENDBRANCH   8   9
ENDBRANCH   7   8
ENDBRANCH   6   7
ENDBRANCH   5   6
ENDBRANCH   4   5
ENDBRANCH   3   4
ENDBRANCH   2   3
TORSDOF 13
ENDMDL
MODEL      270
REMARK 921   NORMALIZED FREE ENERGY PREDICTED BY IDOCK:   -3.08 KCAL/MOL
REMARK 922        TOTAL FREE ENERGY PREDICTED BY IDOCK:   -6.83 KCAL/MOL
REMARK 923 INTER-LIGAND FREE ENERGY PREDICTED BY IDOCK:   -6.03 KCAL/MOL
REMARK 924 INTRA-LIGAND FREE ENERGY PREDICTED BY IDOCK:   -0.80 KCAL/MOL
REMARK 927      BINDING AFFINITY PREDICTED BY RF-SCORE:    0.00 PKD
ROOT
HETATM    1  C   UNL     1      -6.954   6.250  64.659  1.00  0.00    -0.051 C  
HETATM    2  C   UNL     1      -7.828   7.443  65.007  1.00  0.00    -0.124 C  
ENDROOT
BRANCH   2   3
HETATM    3  C   UNL     1      -6.980   8.662  65.360  1.00  0.00    -0.075 C  
BRANCH   3   4
HETATM    4  C   UNL     1      -7.781   9.952  65.210  1.00  0.00    -0.129 C  
BRANCH   4   5
HETATM    5  C   UNL     1      -9.264   9.649  65.013  1.00  0.00    -0.310 C  
BRANCH   5   6
HETATM    6  C   UNL     1     -10.084  10.145  66.200  1.00  0.00    -0.314 C  
BRANCH   6   7
HETATM    7  C   UNL     1     -10.036   9.139  67.346  1.00  0.00    -0.289 C  
BRANCH   7   8
HETATM    8  C   UNL     1      -9.933   9.853  68.689  1.00  0.00    -0.177 C  
BRANCH   8   9
HETATM    9  C   UNL     1     -10.875   9.223  69.709  1.00  0.00    -0.239 C  
BRANCH   9  10
HETATM   10  C   UNL     1     -11.420  10.278  70.664  1.00  0.00    -0.435 C  
BRANCH  10  11
HETATM   11  C   UNL     1     -12.486   9.687  71.582  1.00  0.00    -0.494 C  
BRANCH  11  12
HETATM   12  C   UNL     1     -13.489  10.757  72.000  1.00  0.00    -0.296 C  
BRANCH  12  13
HETATM   13  C   UNL     1     -13.016  12.149  71.591  1.00  0.00    -0.427 C  
BRANCH  13  14
HETATM   14  C   UNL     1     -13.901  13.225  72.217  1.00  0.00    -0.637 C  
BRANCH  14  15
HETATM   15  C   UNL     1     -13.063  14.336  72.844  1.00  0.00    -0.589 C  
HETATM   16  C   UNL     1     -12.965  15.541  71.938  1.00  0.00    -0.441 C  
HETATM   17  O   UNL     1     -12.224  16.533  72.486  1.00  0.00    -0.440 OA 
HETATM   18  O   UNL     1     -13.478  15.642  70.835  1.00  0.00    -0.569 OA 
ENDBRANCH  14  15
ENDBRANCH  13  14
ENDBRANCH  12  13
ENDBRANCH  11  12
ENDBRANCH  10  11
ENDBRANCH   9  10
ENDBRANCH   8   9
ENDBRANCH   7   8
ENDBRANCH   6   7
ENDBRANCH   5   6
ENDBRANCH   4   5
ENDBRANCH   3   4
ENDBRANCH   2   3
TORSDOF 13
ENDMDL
MODEL      271
REMARK 921   NORMALIZED FREE ENERGY PREDICTED BY IDOCK:   -3.08 KCAL/MOL
REMARK 922        TOTAL FREE ENERGY PREDICTED BY IDOCK:   -6.82 KCAL/MOL
REMARK 923 INTER-LIGAND FREE ENERGY PREDICTED BY IDOCK:   -5.50 KCAL/MOL
REMARK 924 INTRA-LIGAND FREE ENERGY PREDICTED BY IDOCK:   -1.33 KCAL/MOL
REMARK 927      BINDING AFFINITY PREDICTED BY RF-SCORE:    0.00 PKD
ROOT
HETATM    1  C   UNL     1     -14.390  14.578  71.765  1.00  0.00    -0.609 C  
HETATM    2  C   UNL     1     -13.461  15.172  72.810  1.00  0.00    -0.603 C  
ENDROOT
BRANCH   2   3
HETATM    3  C   UNL     1     -12.413  16.076  72.165  1.00  0.00    -0.524 C  
BRANCH   3   4
HETATM    4  C   UNL     1     -11.298  15.255  71.524  1.00  0.00    -0.432 C  
BRANCH   4   5
HETATM    5  C   UNL     1     -10.818  15.909  70.231  1.00  0.00    -0.349 C  
BRANCH   5   6
HETATM    6  C   UNL     1     -11.891  15.833  69.151  1.00  0.00    -0.367 C  
BRANCH   6   7
HETATM    7  C   UNL     1     -12.005  14.414  68.602  1.00  0.00    -0.332 C  
BRANCH   7   8
HETATM    8  C   UNL     1     -11.610  14.369  67.130  1.00  0.00    -0.406 C  
BRANCH   8   9
HETATM    9  C   UNL     1     -12.187  13.130  66.454  1.00  0.00    -0.396 C  
BRANCH   9  10
HETATM   10  C   UNL     1     -11.345  11.900  66.772  1.00  0.00    -0.393 C  
BRANCH  10  11
HETATM   11  C   UNL     1     -11.865  11.189  68.018  1.00  0.00    -0.203 C  
BRANCH  11  12
HETATM   12  C   UNL     1     -10.715  10.833  68.954  1.00  0.00    -0.259 C  
BRANCH  12  13
HETATM   13  C   UNL     1      -9.501  10.334  68.174  1.00  0.00    -0.155 C  
BRANCH  13  14
HETATM   14  C   UNL     1      -8.238  11.069  68.614  1.00  0.00    -0.151 C  
BRANCH  14  15
HETATM   15  C   UNL     1      -7.838  12.140  67.603  1.00  0.00    -0.153 C  
HETATM   16  C   UNL     1      -8.168  13.528  68.101  1.00  0.00    -0.162 C  
HETATM   17  O   UNL     1      -7.815  14.486  67.211  1.00  0.00    -0.192 OA 
HETATM   18  O   UNL     1      -8.690  13.793  69.171  1.00  0.00     0.189 OA 
ENDBRANCH  14  15
ENDBRANCH  13  14
ENDBRANCH  12  13
ENDBRANCH  11  12
ENDBRANCH  10  11
ENDBRANCH   9  10
ENDBRANCH   8   9
ENDBRANCH   7   8
ENDBRANCH   6   7
ENDBRANCH   5   6
ENDBRANCH   4   5
ENDBRANCH   3   4
ENDBRANCH   2   3
TORSDOF 13
ENDMDL
MODEL      272
REMARK 921   NORMALIZED FREE ENERGY PREDICTED BY IDOCK:   -3.07 KCAL/MOL
REMARK 922        TOTAL FREE ENERGY PREDICTED BY IDOCK:   -6.81 KCAL/MOL
REMARK 923 INTER-LIGAND FREE ENERGY PREDICTED BY IDOCK:   -5.16 KCAL/MOL
REMARK 924 INTRA-LIGAND FREE ENERGY PREDICTED BY IDOCK:   -1.65 KCAL/MOL
REMARK 927      BINDING AFFINITY PREDICTED BY RF-SCORE:    0.00 PKD
ROOT
HETATM    1  C   UNL     1     -12.253  14.195  64.115  1.00  0.00    -0.423 C  
HETATM    2  C   UNL     1     -12.698  12.951  64.865  1.00  0.00    -0.474 C  
ENDROOT
BRANCH   2   3
HETATM    3  C   UNL     1     -11.629  11.862  64.808  1.00  0.00    -0.302 C  
BRANCH   3   4
HETATM    4  C   UNL     1     -10.826  11.811  66.105  1.00  0.00    -0.336 C  
BRANCH   4   5
HETATM    5  C   UNL     1      -9.631  12.758  66.041  1.00  0.00    -0.182 C  
BRANCH   5   6
HETATM    6  C   UNL     1      -9.798  13.914  67.021  1.00  0.00    -0.257 C  
BRANCH   6   7
HETATM    7  C   UNL     1      -9.055  13.629  68.323  1.00  0.00    -0.193 C  
BRANCH   7   8
HETATM    8  C   UNL     1      -7.632  13.161  68.043  1.00  0.00    -0.144 C  
BRANCH   8   9
HETATM    9  C   UNL     1      -7.331  11.867  68.792  1.00  0.00    -0.105 C  
BRANCH   9  10
HETATM   10  C   UNL     1      -7.269  10.688  67.828  1.00  0.00    -0.088 C  
BRANCH  10  11
HETATM   11  C   UNL     1      -8.279   9.611  68.215  1.00  0.00    -0.106 C  
BRANCH  11  12
HETATM   12  C   UNL     1      -9.279  10.152  69.231  1.00  0.00    -0.220 C  
BRANCH  12  13
HETATM   13  C   UNL     1     -10.658   9.527  69.036  1.00  0.00    -0.238 C  
BRANCH  13  14
HETATM   14  C   UNL     1     -11.451   9.553  70.341  1.00  0.00    -0.297 C  
BRANCH  14  15
HETATM   15  C   UNL     1     -11.892  10.971  70.693  1.00  0.00    -0.434 C  
HETATM   16  C   UNL     1     -12.980  10.973  71.741  1.00  0.00    -0.438 C  
HETATM   17  O   UNL     1     -13.378  12.227  72.061  1.00  0.00    -0.506 OA 
HETATM   18  O   UNL     1     -13.468   9.982  72.260  1.00  0.00    -0.417 OA 
ENDBRANCH  14  15
ENDBRANCH  13  14
ENDBRANCH  12  13
ENDBRANCH  11  12
ENDBRANCH  10  11
ENDBRANCH   9  10
ENDBRANCH   8   9
ENDBRANCH   7   8
ENDBRANCH   6   7
ENDBRANCH   5   6
ENDBRANCH   4   5
ENDBRANCH   3   4
ENDBRANCH   2   3
TORSDOF 13
ENDMDL
MODEL      273
REMARK 921   NORMALIZED FREE ENERGY PREDICTED BY IDOCK:   -3.07 KCAL/MOL
REMARK 922        TOTAL FREE ENERGY PREDICTED BY IDOCK:   -6.80 KCAL/MOL
REMARK 923 INTER-LIGAND FREE ENERGY PREDICTED BY IDOCK:   -4.86 KCAL/MOL
REMARK 924 INTRA-LIGAND FREE ENERGY PREDICTED BY IDOCK:   -1.94 KCAL/MOL
REMARK 927      BINDING AFFINITY PREDICTED BY RF-SCORE:    0.00 PKD
ROOT
HETATM    1  C   UNL     1     -10.987   7.714  73.095  1.00  0.00    -0.411 C  
HETATM    2  C   UNL     1     -10.220   8.630  72.156  1.00  0.00    -0.394 C  
ENDROOT
BRANCH   2   3
HETATM    3  C   UNL     1     -10.891   8.702  70.787  1.00  0.00    -0.272 C  
BRANCH   3   4
HETATM    4  C   UNL     1      -9.881   9.042  69.695  1.00  0.00    -0.182 C  
BRANCH   4   5
HETATM    5  C   UNL     1     -10.572   9.690  68.498  1.00  0.00    -0.253 C  
BRANCH   5   6
HETATM    6  C   UNL     1     -10.710   8.699  67.347  1.00  0.00    -0.212 C  
BRANCH   6   7
HETATM    7  C   UNL     1      -9.537   7.724  67.330  1.00  0.00    -0.192 C  
BRANCH   7   8
HETATM    8  C   UNL     1      -8.815   7.769  65.989  1.00  0.00    -0.189 C  
BRANCH   8   9
HETATM    9  C   UNL     1      -7.333   8.073  66.182  1.00  0.00    -0.074 C  
BRANCH   9  10
HETATM   10  C   UNL     1      -7.146   9.347  66.997  1.00  0.00    -0.086 C  
BRANCH  10  11
HETATM   11  C   UNL     1      -7.556  10.577  66.193  1.00  0.00    -0.135 C  
BRANCH  11  12
HETATM   12  C   UNL     1      -7.879  11.744  67.120  1.00  0.00    -0.166 C  
BRANCH  12  13
HETATM   13  C   UNL     1      -9.158  12.456  66.690  1.00  0.00    -0.204 C  
BRANCH  13  14
HETATM   14  C   UNL     1      -9.799  11.742  65.502  1.00  0.00    -0.262 C  
BRANCH  14  15
HETATM   15  C   UNL     1     -11.318  11.880  65.527  1.00  0.00    -0.334 C  
HETATM   16  C   UNL     1     -11.881  12.105  64.143  1.00  0.00    -0.404 C  
HETATM   17  O   UNL     1     -13.230  12.227  64.155  1.00  0.00    -0.745 OA 
HETATM   18  O   UNL     1     -11.229  12.176  63.114  1.00  0.00    -0.348 OA 
ENDBRANCH  14  15
ENDBRANCH  13  14
ENDBRANCH  12  13
ENDBRANCH  11  12
ENDBRANCH  10  11
ENDBRANCH   9  10
ENDBRANCH   8   9
ENDBRANCH   7   8
ENDBRANCH   6   7
ENDBRANCH   5   6
ENDBRANCH   4   5
ENDBRANCH   3   4
ENDBRANCH   2   3
TORSDOF 13
ENDMDL
MODEL      274
REMARK 921   NORMALIZED FREE ENERGY PREDICTED BY IDOCK:   -3.07 KCAL/MOL
REMARK 922        TOTAL FREE ENERGY PREDICTED BY IDOCK:   -6.80 KCAL/MOL
REMARK 923 INTER-LIGAND FREE ENERGY PREDICTED BY IDOCK:   -5.41 KCAL/MOL
REMARK 924 INTRA-LIGAND FREE ENERGY PREDICTED BY IDOCK:   -1.39 KCAL/MOL
REMARK 927      BINDING AFFINITY PREDICTED BY RF-SCORE:    0.00 PKD
ROOT
HETATM    1  C   UNL     1     -10.924   7.345  73.272  1.00  0.00    -0.367 C  
HETATM    2  C   UNL     1     -10.602   7.898  71.895  1.00  0.00    -0.285 C  
ENDROOT
BRANCH   2   3
HETATM    3  C   UNL     1     -11.681   8.872  71.427  1.00  0.00    -0.385 C  
BRANCH   3   4
HETATM    4  C   UNL     1     -11.187   9.719  70.257  1.00  0.00    -0.347 C  
BRANCH   4   5
HETATM    5  C   UNL     1     -12.094  10.927  70.041  1.00  0.00    -0.433 C  
BRANCH   5   6
HETATM    6  C   UNL     1     -11.728  11.661  68.755  1.00  0.00    -0.392 C  
BRANCH   6   7
HETATM    7  C   UNL     1     -10.494  11.036  68.110  1.00  0.00    -0.216 C  
BRANCH   7   8
HETATM    8  C   UNL     1      -9.275  11.933  68.293  1.00  0.00    -0.187 C  
BRANCH   8   9
HETATM    9  C   UNL     1      -8.944  12.665  66.997  1.00  0.00    -0.216 C  
BRANCH   9  10
HETATM   10  C   UNL     1      -8.423  14.068  67.288  1.00  0.00    -0.220 C  
BRANCH  10  11
HETATM   11  C   UNL     1      -8.543  14.399  68.773  1.00  0.00    -0.125 C  
BRANCH  11  12
HETATM   12  C   UNL     1      -9.419  15.631  68.980  1.00  0.00    -0.243 C  
BRANCH  12  13
HETATM   13  C   UNL     1     -10.897  15.255  69.037  1.00  0.00    -0.244 C  
BRANCH  13  14
HETATM   14  C   UNL     1     -11.591  15.592  67.719  1.00  0.00    -0.193 C  
BRANCH  14  15
HETATM   15  C   UNL     1     -12.312  14.375  67.146  1.00  0.00    -0.106 C  
HETATM   16  C   UNL     1     -12.158  14.291  65.645  1.00  0.00    -0.393 C  
HETATM   17  O   UNL     1     -12.794  13.213  65.128  1.00  0.00    -0.669 OA 
HETATM   18  O   UNL     1     -11.542  15.082  64.950  1.00  0.00    -0.386 OA 
ENDBRANCH  14  15
ENDBRANCH  13  14
ENDBRANCH  12  13
ENDBRANCH  11  12
ENDBRANCH  10  11
ENDBRANCH   9  10
ENDBRANCH   8   9
ENDBRANCH   7   8
ENDBRANCH   6   7
ENDBRANCH   5   6
ENDBRANCH   4   5
ENDBRANCH   3   4
ENDBRANCH   2   3
TORSDOF 13
ENDMDL
MODEL      275
REMARK 921   NORMALIZED FREE ENERGY PREDICTED BY IDOCK:   -3.06 KCAL/MOL
REMARK 922        TOTAL FREE ENERGY PREDICTED BY IDOCK:   -6.79 KCAL/MOL
REMARK 923 INTER-LIGAND FREE ENERGY PREDICTED BY IDOCK:   -5.69 KCAL/MOL
REMARK 924 INTRA-LIGAND FREE ENERGY PREDICTED BY IDOCK:   -1.11 KCAL/MOL
REMARK 927      BINDING AFFINITY PREDICTED BY RF-SCORE:    0.00 PKD
ROOT
HETATM    1  C   UNL     1     -12.036  11.095  69.331  1.00  0.00    -0.420 C  
HETATM    2  C   UNL     1     -10.632  10.522  69.424  1.00  0.00    -0.269 C  
ENDROOT
BRANCH   2   3
HETATM    3  C   UNL     1     -10.664   9.000  69.539  1.00  0.00    -0.215 C  
BRANCH   3   4
HETATM    4  C   UNL     1     -10.126   8.341  68.272  1.00  0.00    -0.231 C  
BRANCH   4   5
HETATM    5  C   UNL     1      -9.427   9.365  67.383  1.00  0.00    -0.163 C  
BRANCH   5   6
HETATM    6  C   UNL     1     -10.032   9.375  65.982  1.00  0.00    -0.352 C  
BRANCH   6   7
HETATM    7  C   UNL     1      -9.600  10.622  65.217  1.00  0.00    -0.293 C  
BRANCH   7   8
HETATM    8  C   UNL     1     -10.652  11.719  65.332  1.00  0.00    -0.325 C  
BRANCH   8   9
HETATM    9  C   UNL     1     -10.277  12.716  66.423  1.00  0.00    -0.263 C  
BRANCH   9  10
HETATM   10  C   UNL     1     -10.119  14.117  65.843  1.00  0.00    -0.337 C  
BRANCH  10  11
HETATM   11  C   UNL     1      -9.032  14.894  66.579  1.00  0.00    -0.288 C  
BRANCH  11  12
HETATM   12  C   UNL     1      -8.987  16.341  66.099  1.00  0.00    -0.374 C  
BRANCH  12  13
HETATM   13  C   UNL     1     -10.387  16.945  66.027  1.00  0.00    -0.335 C  
BRANCH  13  14
HETATM   14  C   UNL     1     -10.327  18.463  66.175  1.00  0.00    -0.431 C  
BRANCH  14  15
HETATM   15  C   UNL     1      -9.008  18.908  66.800  1.00  0.00    -0.320 C  
HETATM   16  C   UNL     1      -9.205  19.436  68.202  1.00  0.00    -0.336 C  
HETATM   17  O   UNL     1      -8.039  19.832  68.766  1.00  0.00    -0.304 OA 
HETATM   18  O   UNL     1     -10.272  19.513  68.788  1.00  0.00    -0.431 OA 
ENDBRANCH  14  15
ENDBRANCH  13  14
ENDBRANCH  12  13
ENDBRANCH  11  12
ENDBRANCH  10  11
ENDBRANCH   9  10
ENDBRANCH   8   9
ENDBRANCH   7   8
ENDBRANCH   6   7
ENDBRANCH   5   6
ENDBRANCH   4   5
ENDBRANCH   3   4
ENDBRANCH   2   3
TORSDOF 13
ENDMDL
MODEL      276
REMARK 921   NORMALIZED FREE ENERGY PREDICTED BY IDOCK:   -3.06 KCAL/MOL
REMARK 922        TOTAL FREE ENERGY PREDICTED BY IDOCK:   -6.79 KCAL/MOL
REMARK 923 INTER-LIGAND FREE ENERGY PREDICTED BY IDOCK:   -4.88 KCAL/MOL
REMARK 924 INTRA-LIGAND FREE ENERGY PREDICTED BY IDOCK:   -1.91 KCAL/MOL
REMARK 927      BINDING AFFINITY PREDICTED BY RF-SCORE:    0.00 PKD
ROOT
HETATM    1  C   UNL     1     -11.659   6.386  70.306  1.00  0.00    -0.451 C  
HETATM    2  C   UNL     1     -12.111   6.396  71.756  1.00  0.00    -0.351 C  
ENDROOT
BRANCH   2   3
HETATM    3  C   UNL     1     -11.303   7.398  72.577  1.00  0.00    -0.358 C  
BRANCH   3   4
HETATM    4  C   UNL     1      -9.819   7.043  72.573  1.00  0.00    -0.175 C  
BRANCH   4   5
HETATM    5  C   UNL     1      -9.003   8.130  71.879  1.00  0.00    -0.225 C  
BRANCH   5   6
HETATM    6  C   UNL     1      -9.876   9.334  71.540  1.00  0.00    -0.245 C  
BRANCH   6   7
HETATM    7  C   UNL     1      -9.841   9.620  70.042  1.00  0.00    -0.286 C  
BRANCH   7   8
HETATM    8  C   UNL     1      -8.405   9.694  69.538  1.00  0.00    -0.154 C  
BRANCH   8   9
HETATM    9  C   UNL     1      -8.294   9.100  68.137  1.00  0.00    -0.120 C  
BRANCH   9  10
HETATM   10  C   UNL     1      -9.451   8.147  67.861  1.00  0.00    -0.162 C  
BRANCH  10  11
HETATM   11  C   UNL     1     -10.254   8.600  66.645  1.00  0.00    -0.343 C  
BRANCH  11  12
HETATM   12  C   UNL     1      -9.480   9.644  65.847  1.00  0.00    -0.296 C  
BRANCH  12  13
HETATM   13  C   UNL     1     -10.344  10.865  65.548  1.00  0.00    -0.316 C  
BRANCH  13  14
HETATM   14  C   UNL     1     -10.996  11.391  66.826  1.00  0.00    -0.347 C  
BRANCH  14  15
HETATM   15  C   UNL     1     -10.102  12.410  67.525  1.00  0.00    -0.205 C  
HETATM   16  C   UNL     1     -10.908  13.524  68.151  1.00  0.00    -0.254 C  
HETATM   17  O   UNL     1     -10.123  14.433  68.776  1.00  0.00    -0.236 OA 
HETATM   18  O   UNL     1     -12.124  13.625  68.117  1.00  0.00    -0.359 OA 
ENDBRANCH  14  15
ENDBRANCH  13  14
ENDBRANCH  12  13
ENDBRANCH  11  12
ENDBRANCH  10  11
ENDBRANCH   9  10
ENDBRANCH   8   9
ENDBRANCH   7   8
ENDBRANCH   6   7
ENDBRANCH   5   6
ENDBRANCH   4   5
ENDBRANCH   3   4
ENDBRANCH   2   3
TORSDOF 13
ENDMDL
MODEL      277
REMARK 921   NORMALIZED FREE ENERGY PREDICTED BY IDOCK:   -3.04 KCAL/MOL
REMARK 922        TOTAL FREE ENERGY PREDICTED BY IDOCK:   -6.75 KCAL/MOL
REMARK 923 INTER-LIGAND FREE ENERGY PREDICTED BY IDOCK:   -5.49 KCAL/MOL
REMARK 924 INTRA-LIGAND FREE ENERGY PREDICTED BY IDOCK:   -1.27 KCAL/MOL
REMARK 927      BINDING AFFINITY PREDICTED BY RF-SCORE:    0.00 PKD
ROOT
HETATM    1  C   UNL     1     -14.404  14.824  71.821  1.00  0.00    -0.656 C  
HETATM    2  C   UNL     1     -13.074  14.263  72.294  1.00  0.00    -0.493 C  
ENDROOT
BRANCH   2   3
HETATM    3  C   UNL     1     -12.434  13.384  71.221  1.00  0.00    -0.368 C  
BRANCH   3   4
HETATM    4  C   UNL     1     -13.029  11.979  71.234  1.00  0.00    -0.315 C  
BRANCH   4   5
HETATM    5  C   UNL     1     -12.243  11.049  70.314  1.00  0.00    -0.447 C  
BRANCH   5   6
HETATM    6  C   UNL     1     -11.291  11.840  69.423  1.00  0.00    -0.337 C  
BRANCH   6   7
HETATM    7  C   UNL     1     -11.428  11.406  67.967  1.00  0.00    -0.377 C  
BRANCH   7   8
HETATM    8  C   UNL     1     -10.058  11.234  67.322  1.00  0.00    -0.214 C  
BRANCH   8   9
HETATM    9  C   UNL     1     -10.110  10.189  66.213  1.00  0.00    -0.303 C  
BRANCH   9  10
HETATM   10  C   UNL     1      -8.930   9.230  66.319  1.00  0.00    -0.193 C  
BRANCH  10  11
HETATM   11  C   UNL     1      -9.406   7.800  66.559  1.00  0.00    -0.243 C  
BRANCH  11  12
HETATM   12  C   UNL     1      -9.090   7.360  67.985  1.00  0.00    -0.130 C  
BRANCH  12  13
HETATM   13  C   UNL     1     -10.365   7.181  68.804  1.00  0.00    -0.200 C  
BRANCH  13  14
HETATM   14  C   UNL     1     -10.496   8.288  69.847  1.00  0.00    -0.223 C  
BRANCH  14  15
HETATM   15  C   UNL     1     -10.275   7.749  71.257  1.00  0.00    -0.218 C  
HETATM   16  C   UNL     1     -11.580   7.564  71.996  1.00  0.00    -0.287 C  
HETATM   17  O   UNL     1     -11.394   7.084  73.248  1.00  0.00    -0.161 OA 
HETATM   18  O   UNL     1     -12.689   7.808  71.548  1.00  0.00    -0.322 OA 
ENDBRANCH  14  15
ENDBRANCH  13  14
ENDBRANCH  12  13
ENDBRANCH  11  12
ENDBRANCH  10  11
ENDBRANCH   9  10
ENDBRANCH   8   9
ENDBRANCH   7   8
ENDBRANCH   6   7
ENDBRANCH   5   6
ENDBRANCH   4   5
ENDBRANCH   3   4
ENDBRANCH   2   3
TORSDOF 13
ENDMDL
MODEL      278
REMARK 921   NORMALIZED FREE ENERGY PREDICTED BY IDOCK:   -3.03 KCAL/MOL
REMARK 922        TOTAL FREE ENERGY PREDICTED BY IDOCK:   -6.74 KCAL/MOL
REMARK 923 INTER-LIGAND FREE ENERGY PREDICTED BY IDOCK:   -5.54 KCAL/MOL
REMARK 924 INTRA-LIGAND FREE ENERGY PREDICTED BY IDOCK:   -1.20 KCAL/MOL
REMARK 927      BINDING AFFINITY PREDICTED BY RF-SCORE:    0.00 PKD
ROOT
HETATM    1  C   UNL     1      -6.949  18.149  65.959  1.00  0.00    -0.327 C  
HETATM    2  C   UNL     1      -7.866  19.348  66.128  1.00  0.00    -0.317 C  
ENDROOT
BRANCH   2   3
HETATM    3  C   UNL     1      -7.541  20.114  67.407  1.00  0.00    -0.334 C  
BRANCH   3   4
HETATM    4  C   UNL     1      -8.033  19.362  68.640  1.00  0.00    -0.403 C  
BRANCH   4   5
HETATM    5  C   UNL     1      -9.515  19.020  68.511  1.00  0.00    -0.436 C  
BRANCH   5   6
HETATM    6  C   UNL     1      -9.757  17.537  68.771  1.00  0.00    -0.298 C  
BRANCH   6   7
HETATM    7  C   UNL     1     -10.766  16.973  67.776  1.00  0.00    -0.318 C  
BRANCH   7   8
HETATM    8  C   UNL     1     -10.062  16.182  66.680  1.00  0.00    -0.283 C  
BRANCH   8   9
HETATM    9  C   UNL     1     -10.724  14.822  66.484  1.00  0.00    -0.319 C  
BRANCH   9  10
HETATM   10  C   UNL     1     -11.816  14.599  67.524  1.00  0.00    -0.375 C  
BRANCH  10  11
HETATM   11  C   UNL     1     -11.412  13.512  68.516  1.00  0.00    -0.345 C  
BRANCH  11  12
HETATM   12  C   UNL     1     -11.700  12.128  67.945  1.00  0.00    -0.403 C  
BRANCH  12  13
HETATM   13  C   UNL     1     -10.414  11.431  67.510  1.00  0.00    -0.233 C  
BRANCH  13  14
HETATM   14  C   UNL     1     -10.708  10.360  66.462  1.00  0.00    -0.162 C  
BRANCH  14  15
HETATM   15  C   UNL     1     -10.301  10.825  65.066  1.00  0.00    -0.357 C  
HETATM   16  C   UNL     1      -9.264   9.913  64.454  1.00  0.00    -0.264 C  
HETATM   17  O   UNL     1      -8.898  10.316  63.215  1.00  0.00    -0.179 OA 
HETATM   18  O   UNL     1      -8.789   8.922  64.985  1.00  0.00    -0.190 OA 
ENDBRANCH  14  15
ENDBRANCH  13  14
ENDBRANCH  12  13
ENDBRANCH  11  12
ENDBRANCH  10  11
ENDBRANCH   9  10
ENDBRANCH   8   9
ENDBRANCH   7   8
ENDBRANCH   6   7
ENDBRANCH   5   6
ENDBRANCH   4   5
ENDBRANCH   3   4
ENDBRANCH   2   3
TORSDOF 13
ENDMDL
MODEL      279
REMARK 921   NORMALIZED FREE ENERGY PREDICTED BY IDOCK:   -3.03 KCAL/MOL
REMARK 922        TOTAL FREE ENERGY PREDICTED BY IDOCK:   -6.73 KCAL/MOL
REMARK 923 INTER-LIGAND FREE ENERGY PREDICTED BY IDOCK:   -5.38 KCAL/MOL
REMARK 924 INTRA-LIGAND FREE ENERGY PREDICTED BY IDOCK:   -1.35 KCAL/MOL
REMARK 927      BINDING AFFINITY PREDICTED BY RF-SCORE:    0.00 PKD
ROOT
HETATM    1  C   UNL     1      -6.795   9.411  67.763  1.00  0.00    -0.079 C  
HETATM    2  C   UNL     1      -6.133   9.228  66.409  1.00  0.00    -0.063 C  
ENDROOT
BRANCH   2   3
HETATM    3  C   UNL     1      -6.256   7.784  65.927  1.00  0.00    -0.042 C  
BRANCH   3   4
HETATM    4  C   UNL     1      -6.471   7.725  64.417  1.00  0.00    -0.052 C  
BRANCH   4   5
HETATM    5  C   UNL     1      -7.941   7.940  64.070  1.00  0.00    -0.124 C  
BRANCH   5   6
HETATM    6  C   UNL     1      -8.086   8.810  62.826  1.00  0.00    -0.176 C  
BRANCH   6   7
HETATM    7  C   UNL     1      -9.113   9.914  63.056  1.00  0.00    -0.291 C  
BRANCH   7   8
HETATM    8  C   UNL     1      -9.118  10.353  64.516  1.00  0.00    -0.263 C  
BRANCH   8   9
HETATM    9  C   UNL     1     -10.275  11.308  64.789  1.00  0.00    -0.347 C  
BRANCH   9  10
HETATM   10  C   UNL     1     -11.223  11.363  63.596  1.00  0.00    -0.366 C  
BRANCH  10  11
HETATM   11  C   UNL     1     -12.487  12.147  63.937  1.00  0.00    -0.581 C  
BRANCH  11  12
HETATM   12  C   UNL     1     -12.429  12.663  65.371  1.00  0.00    -0.421 C  
BRANCH  12  13
HETATM   13  C   UNL     1     -12.607  14.178  65.421  1.00  0.00    -0.485 C  
BRANCH  13  14
HETATM   14  C   UNL     1     -11.453  14.880  64.711  1.00  0.00    -0.410 C  
BRANCH  14  15
HETATM   15  C   UNL     1     -10.374  15.313  65.700  1.00  0.00    -0.389 C  
HETATM   16  C   UNL     1     -10.223  16.816  65.739  1.00  0.00    -0.291 C  
HETATM   17  O   UNL     1      -9.269  17.210  66.615  1.00  0.00    -0.240 OA 
HETATM   18  O   UNL     1     -10.866  17.611  65.073  1.00  0.00    -0.758 OA 
ENDBRANCH  14  15
ENDBRANCH  13  14
ENDBRANCH  12  13
ENDBRANCH  11  12
ENDBRANCH  10  11
ENDBRANCH   9  10
ENDBRANCH   8   9
ENDBRANCH   7   8
ENDBRANCH   6   7
ENDBRANCH   5   6
ENDBRANCH   4   5
ENDBRANCH   3   4
ENDBRANCH   2   3
TORSDOF 13
ENDMDL
MODEL      280
REMARK 921   NORMALIZED FREE ENERGY PREDICTED BY IDOCK:   -3.03 KCAL/MOL
REMARK 922        TOTAL FREE ENERGY PREDICTED BY IDOCK:   -6.73 KCAL/MOL
REMARK 923 INTER-LIGAND FREE ENERGY PREDICTED BY IDOCK:   -5.03 KCAL/MOL
REMARK 924 INTRA-LIGAND FREE ENERGY PREDICTED BY IDOCK:   -1.70 KCAL/MOL
REMARK 927      BINDING AFFINITY PREDICTED BY RF-SCORE:    0.00 PKD
ROOT
HETATM    1  C   UNL     1     -12.068  14.055  64.368  1.00  0.00    -0.486 C  
HETATM    2  C   UNL     1     -12.256  12.900  63.399  1.00  0.00    -0.574 C  
ENDROOT
BRANCH   2   3
HETATM    3  C   UNL     1     -11.355  11.723  63.763  1.00  0.00    -0.524 C  
BRANCH   3   4
HETATM    4  C   UNL     1     -10.581  12.000  65.049  1.00  0.00    -0.332 C  
BRANCH   4   5
HETATM    5  C   UNL     1      -9.390  11.054  65.180  1.00  0.00    -0.249 C  
BRANCH   5   6
HETATM    6  C   UNL     1      -9.856   9.612  65.353  1.00  0.00    -0.322 C  
BRANCH   6   7
HETATM    7  C   UNL     1     -10.349   9.371  66.776  1.00  0.00    -0.303 C  
BRANCH   7   8
HETATM    8  C   UNL     1     -10.159   7.913  67.176  1.00  0.00    -0.328 C  
BRANCH   8   9
HETATM    9  C   UNL     1     -10.097   7.772  68.693  1.00  0.00    -0.211 C  
BRANCH   9  10
HETATM   10  C   UNL     1     -10.704   8.993  69.374  1.00  0.00    -0.202 C  
BRANCH  10  11
HETATM   11  C   UNL     1      -9.737   9.590  70.391  1.00  0.00    -0.328 C  
BRANCH  11  12
HETATM   12  C   UNL     1      -8.329   9.043  70.181  1.00  0.00    -0.156 C  
BRANCH  12  13
HETATM   13  C   UNL     1      -7.325  10.170  69.955  1.00  0.00    -0.169 C  
BRANCH  13  14
HETATM   14  C   UNL     1      -7.663  10.945  68.683  1.00  0.00    -0.122 C  
BRANCH  14  15
HETATM   15  C   UNL     1      -6.781  10.508  67.517  1.00  0.00    -0.070 C  
HETATM   16  C   UNL     1      -6.094  11.684  66.864  1.00  0.00    -0.148 C  
HETATM   17  O   UNL     1      -5.308  11.305  65.828  1.00  0.00    -0.226 OA 
HETATM   18  O   UNL     1      -6.211  12.851  67.201  1.00  0.00    -0.281 OA 
ENDBRANCH  14  15
ENDBRANCH  13  14
ENDBRANCH  12  13
ENDBRANCH  11  12
ENDBRANCH  10  11
ENDBRANCH   9  10
ENDBRANCH   8   9
ENDBRANCH   7   8
ENDBRANCH   6   7
ENDBRANCH   5   6
ENDBRANCH   4   5
ENDBRANCH   3   4
ENDBRANCH   2   3
TORSDOF 13
ENDMDL
MODEL      281
REMARK 921   NORMALIZED FREE ENERGY PREDICTED BY IDOCK:   -3.02 KCAL/MOL
REMARK 922        TOTAL FREE ENERGY PREDICTED BY IDOCK:   -6.72 KCAL/MOL
REMARK 923 INTER-LIGAND FREE ENERGY PREDICTED BY IDOCK:   -5.33 KCAL/MOL
REMARK 924 INTRA-LIGAND FREE ENERGY PREDICTED BY IDOCK:   -1.39 KCAL/MOL
REMARK 927      BINDING AFFINITY PREDICTED BY RF-SCORE:    0.00 PKD
ROOT
HETATM    1  C   UNL     1      -6.954  10.000  68.348  1.00  0.00    -0.067 C  
HETATM    2  C   UNL     1      -7.895   8.813  68.236  1.00  0.00    -0.101 C  
ENDROOT
BRANCH   2   3
HETATM    3  C   UNL     1      -8.380   8.627  66.801  1.00  0.00    -0.108 C  
BRANCH   3   4
HETATM    4  C   UNL     1      -9.888   8.839  66.698  1.00  0.00    -0.335 C  
BRANCH   4   5
HETATM    5  C   UNL     1     -10.217  10.320  66.525  1.00  0.00    -0.289 C  
BRANCH   5   6
HETATM    6  C   UNL     1      -9.273  10.974  65.521  1.00  0.00    -0.235 C  
BRANCH   6   7
HETATM    7  C   UNL     1      -9.569  10.488  64.106  1.00  0.00    -0.369 C  
BRANCH   7   8
HETATM    8  C   UNL     1     -10.027  11.641  63.221  1.00  0.00    -0.442 C  
BRANCH   8   9
HETATM    9  C   UNL     1     -11.548  11.740  63.207  1.00  0.00    -0.325 C  
BRANCH   9  10
HETATM   10  C   UNL     1     -12.005  13.114  63.681  1.00  0.00    -0.580 C  
BRANCH  10  11
HETATM   11  C   UNL     1     -12.995  12.994  64.836  1.00  0.00    -0.218 C  
BRANCH  11  12
HETATM   12  C   UNL     1     -12.717  14.055  65.896  1.00  0.00    -0.436 C  
BRANCH  12  13
HETATM   13  C   UNL     1     -11.322  13.888  66.492  1.00  0.00    -0.340 C  
BRANCH  13  14
HETATM   14  C   UNL     1     -11.223  14.599  67.840  1.00  0.00    -0.318 C  
BRANCH  14  15
HETATM   15  C   UNL     1     -10.377  15.865  67.739  1.00  0.00    -0.278 C  
HETATM   16  C   UNL     1     -10.313  16.600  69.057  1.00  0.00    -0.317 C  
HETATM   17  O   UNL     1      -9.562  17.724  68.978  1.00  0.00    -0.237 OA 
HETATM   18  O   UNL     1     -10.860  16.253  70.091  1.00  0.00    -0.334 OA 
ENDBRANCH  14  15
ENDBRANCH  13  14
ENDBRANCH  12  13
ENDBRANCH  11  12
ENDBRANCH  10  11
ENDBRANCH   9  10
ENDBRANCH   8   9
ENDBRANCH   7   8
ENDBRANCH   6   7
ENDBRANCH   5   6
ENDBRANCH   4   5
ENDBRANCH   3   4
ENDBRANCH   2   3
TORSDOF 13
ENDMDL
MODEL      282
REMARK 921   NORMALIZED FREE ENERGY PREDICTED BY IDOCK:   -3.02 KCAL/MOL
REMARK 922        TOTAL FREE ENERGY PREDICTED BY IDOCK:   -6.72 KCAL/MOL
REMARK 923 INTER-LIGAND FREE ENERGY PREDICTED BY IDOCK:   -5.05 KCAL/MOL
REMARK 924 INTRA-LIGAND FREE ENERGY PREDICTED BY IDOCK:   -1.67 KCAL/MOL
REMARK 927      BINDING AFFINITY PREDICTED BY RF-SCORE:    0.00 PKD
ROOT
HETATM    1  C   UNL     1      -9.857  10.981  63.994  1.00  0.00    -0.365 C  
HETATM    2  C   UNL     1     -11.025  11.476  64.830  1.00  0.00    -0.338 C  
ENDROOT
BRANCH   2   3
HETATM    3  C   UNL     1     -10.886  11.038  66.286  1.00  0.00    -0.234 C  
BRANCH   3   4
HETATM    4  C   UNL     1     -10.105  12.067  67.098  1.00  0.00    -0.217 C  
BRANCH   4   5
HETATM    5  C   UNL     1      -9.190  11.380  68.108  1.00  0.00    -0.178 C  
BRANCH   5   6
HETATM    6  C   UNL     1      -9.996  10.526  69.080  1.00  0.00    -0.236 C  
BRANCH   6   7
HETATM    7  C   UNL     1      -9.083   9.577  69.850  1.00  0.00    -0.237 C  
BRANCH   7   8
HETATM    8  C   UNL     1      -8.351   8.638  68.898  1.00  0.00    -0.124 C  
BRANCH   8   9
HETATM    9  C   UNL     1      -9.284   7.540  68.398  1.00  0.00    -0.139 C  
BRANCH   9  10
HETATM   10  C   UNL     1      -9.639   6.578  69.526  1.00  0.00    -0.152 C  
BRANCH  10  11
HETATM   11  C   UNL     1     -11.132   6.265  69.528  1.00  0.00    -0.476 C  
BRANCH  11  12
HETATM   12  C   UNL     1     -11.722   6.467  70.920  1.00  0.00    -0.416 C  
BRANCH  12  13
HETATM   13  C   UNL     1     -12.122   7.923  71.145  1.00  0.00    -0.294 C  
BRANCH  13  14
HETATM   14  C   UNL     1     -11.408   8.496  72.367  1.00  0.00    -0.412 C  
BRANCH  14  15
HETATM   15  C   UNL     1     -10.777   7.391  73.209  1.00  0.00    -0.441 C  
HETATM   16  C   UNL     1      -9.326   7.680  73.514  1.00  0.00    -0.282 C  
HETATM   17  O   UNL     1      -8.758   6.706  74.262  1.00  0.00    -0.135 OA 
HETATM   18  O   UNL     1      -8.707   8.665  73.145  1.00  0.00    -0.371 OA 
ENDBRANCH  14  15
ENDBRANCH  13  14
ENDBRANCH  12  13
ENDBRANCH  11  12
ENDBRANCH  10  11
ENDBRANCH   9  10
ENDBRANCH   8   9
ENDBRANCH   7   8
ENDBRANCH   6   7
ENDBRANCH   5   6
ENDBRANCH   4   5
ENDBRANCH   3   4
ENDBRANCH   2   3
TORSDOF 13
ENDMDL
MODEL      283
REMARK 921   NORMALIZED FREE ENERGY PREDICTED BY IDOCK:   -3.02 KCAL/MOL
REMARK 922        TOTAL FREE ENERGY PREDICTED BY IDOCK:   -6.71 KCAL/MOL
REMARK 923 INTER-LIGAND FREE ENERGY PREDICTED BY IDOCK:   -5.30 KCAL/MOL
REMARK 924 INTRA-LIGAND FREE ENERGY PREDICTED BY IDOCK:   -1.42 KCAL/MOL
REMARK 927      BINDING AFFINITY PREDICTED BY RF-SCORE:    0.00 PKD
ROOT
HETATM    1  C   UNL     1     -12.888  13.274  65.700  1.00  0.00    -0.221 C  
HETATM    2  C   UNL     1     -11.814  14.003  66.489  1.00  0.00    -0.439 C  
ENDROOT
BRANCH   2   3
HETATM    3  C   UNL     1     -10.662  14.434  65.584  1.00  0.00    -0.326 C  
BRANCH   3   4
HETATM    4  C   UNL     1     -10.229  13.296  64.665  1.00  0.00    -0.334 C  
BRANCH   4   5
HETATM    5  C   UNL     1      -9.568  12.176  65.463  1.00  0.00    -0.141 C  
BRANCH   5   6
HETATM    6  C   UNL     1      -9.985  10.808  64.932  1.00  0.00    -0.374 C  
BRANCH   6   7
HETATM    7  C   UNL     1     -10.450   9.906  66.071  1.00  0.00    -0.112 C  
BRANCH   7   8
HETATM    8  C   UNL     1     -10.201  10.567  67.421  1.00  0.00    -0.253 C  
BRANCH   8   9
HETATM    9  C   UNL     1     -11.519  10.882  68.120  1.00  0.00    -0.368 C  
BRANCH   9  10
HETATM   10  C   UNL     1     -11.295  11.140  69.606  1.00  0.00    -0.366 C  
BRANCH  10  11
HETATM   11  C   UNL     1     -10.659   9.929  70.281  1.00  0.00    -0.359 C  
BRANCH  11  12
HETATM   12  C   UNL     1     -11.705   9.134  71.056  1.00  0.00    -0.363 C  
BRANCH  12  13
HETATM   13  C   UNL     1     -11.292   7.672  71.203  1.00  0.00    -0.286 C  
BRANCH  13  14
HETATM   14  C   UNL     1     -11.854   6.835  70.056  1.00  0.00    -0.265 C  
BRANCH  14  15
HETATM   15  C   UNL     1     -10.778   5.946  69.440  1.00  0.00    -0.406 C  
HETATM   16  C   UNL     1     -10.689   6.133  67.944  1.00  0.00    -0.296 C  
HETATM   17  O   UNL     1      -9.735   5.349  67.388  1.00  0.00    -0.126 OA 
HETATM   18  O   UNL     1     -11.378   6.892  67.281  1.00  0.00    -0.263 OA 
ENDBRANCH  14  15
ENDBRANCH  13  14
ENDBRANCH  12  13
ENDBRANCH  11  12
ENDBRANCH  10  11
ENDBRANCH   9  10
ENDBRANCH   8   9
ENDBRANCH   7   8
ENDBRANCH   6   7
ENDBRANCH   5   6
ENDBRANCH   4   5
ENDBRANCH   3   4
ENDBRANCH   2   3
TORSDOF 13
ENDMDL
MODEL      284
REMARK 921   NORMALIZED FREE ENERGY PREDICTED BY IDOCK:   -3.00 KCAL/MOL
REMARK 922        TOTAL FREE ENERGY PREDICTED BY IDOCK:   -6.68 KCAL/MOL
REMARK 923 INTER-LIGAND FREE ENERGY PREDICTED BY IDOCK:   -4.92 KCAL/MOL
REMARK 924 INTRA-LIGAND FREE ENERGY PREDICTED BY IDOCK:   -1.76 KCAL/MOL
REMARK 927      BINDING AFFINITY PREDICTED BY RF-SCORE:    0.00 PKD
ROOT
HETATM    1  C   UNL     1     -12.443  10.743  71.213  1.00  0.00    -0.504 C  
HETATM    2  C   UNL     1     -12.080  10.822  69.741  1.00  0.00    -0.389 C  
ENDROOT
BRANCH   2   3
HETATM    3  C   UNL     1     -11.048   9.760  69.370  1.00  0.00    -0.205 C  
BRANCH   3   4
HETATM    4  C   UNL     1     -10.008   9.594  70.474  1.00  0.00    -0.318 C  
BRANCH   4   5
HETATM    5  C   UNL     1      -8.598   9.804  69.928  1.00  0.00    -0.236 C  
BRANCH   5   6
HETATM    6  C   UNL     1      -8.640  10.314  68.492  1.00  0.00    -0.126 C  
BRANCH   6   7
HETATM    7  C   UNL     1      -7.937  11.664  68.378  1.00  0.00    -0.140 C  
BRANCH   7   8
HETATM    8  C   UNL     1      -8.535  12.492  67.247  1.00  0.00    -0.185 C  
BRANCH   8   9
HETATM    9  C   UNL     1      -9.984  12.856  67.551  1.00  0.00    -0.215 C  
BRANCH   9  10
HETATM   10  C   UNL     1     -10.865  12.632  66.327  1.00  0.00    -0.300 C  
BRANCH  10  11
HETATM   11  C   UNL     1     -10.478  13.577  65.194  1.00  0.00    -0.375 C  
BRANCH  11  12
HETATM   12  C   UNL     1     -10.709  15.029  65.600  1.00  0.00    -0.365 C  
BRANCH  12  13
HETATM   13  C   UNL     1      -9.402  15.818  65.602  1.00  0.00    -0.202 C  
BRANCH  13  14
HETATM   14  C   UNL     1      -9.404  16.862  66.715  1.00  0.00    -0.267 C  
BRANCH  14  15
HETATM   15  C   UNL     1     -10.564  16.640  67.682  1.00  0.00    -0.321 C  
HETATM   16  C   UNL     1     -10.088  16.097  69.009  1.00  0.00    -0.247 C  
HETATM   17  O   UNL     1     -11.111  15.898  69.875  1.00  0.00    -0.285 OA 
HETATM   18  O   UNL     1      -8.929  15.855  69.302  1.00  0.00    -0.242 OA 
ENDBRANCH  14  15
ENDBRANCH  13  14
ENDBRANCH  12  13
ENDBRANCH  11  12
ENDBRANCH  10  11
ENDBRANCH   9  10
ENDBRANCH   8   9
ENDBRANCH   7   8
ENDBRANCH   6   7
ENDBRANCH   5   6
ENDBRANCH   4   5
ENDBRANCH   3   4
ENDBRANCH   2   3
TORSDOF 13
ENDMDL
MODEL      285
REMARK 921   NORMALIZED FREE ENERGY PREDICTED BY IDOCK:   -2.99 KCAL/MOL
REMARK 922        TOTAL FREE ENERGY PREDICTED BY IDOCK:   -6.67 KCAL/MOL
REMARK 923 INTER-LIGAND FREE ENERGY PREDICTED BY IDOCK:   -5.34 KCAL/MOL
REMARK 924 INTRA-LIGAND FREE ENERGY PREDICTED BY IDOCK:   -1.33 KCAL/MOL
REMARK 927      BINDING AFFINITY PREDICTED BY RF-SCORE:    0.00 PKD
ROOT
HETATM    1  C   UNL     1     -12.178  15.427  69.706  1.00  0.00    -0.336 C  
HETATM    2  C   UNL     1     -12.053  13.924  69.887  1.00  0.00    -0.406 C  
ENDROOT
BRANCH   2   3
HETATM    3  C   UNL     1     -11.722  13.235  68.566  1.00  0.00    -0.388 C  
BRANCH   3   4
HETATM    4  C   UNL     1     -10.366  12.537  68.634  1.00  0.00    -0.193 C  
BRANCH   4   5
HETATM    5  C   UNL     1     -10.526  11.027  68.482  1.00  0.00    -0.210 C  
BRANCH   5   6
HETATM    6  C   UNL     1     -11.716  10.521  69.290  1.00  0.00    -0.281 C  
BRANCH   6   7
HETATM    7  C   UNL     1     -11.306  10.229  70.730  1.00  0.00    -0.421 C  
BRANCH   7   8
HETATM    8  C   UNL     1     -12.459  10.504  71.689  1.00  0.00    -0.443 C  
BRANCH   8   9
HETATM    9  C   UNL     1     -13.019   9.201  72.248  1.00  0.00    -0.492 C  
BRANCH   9  10
HETATM   10  C   UNL     1     -11.965   8.100  72.212  1.00  0.00    -0.434 C  
BRANCH  10  11
HETATM   11  C   UNL     1     -12.486   6.867  71.480  1.00  0.00    -0.420 C  
BRANCH  11  12
HETATM   12  C   UNL     1     -11.766   6.689  70.147  1.00  0.00    -0.412 C  
BRANCH  12  13
HETATM   13  C   UNL     1     -10.254   6.811  70.313  1.00  0.00    -0.216 C  
BRANCH  13  14
HETATM   14  C   UNL     1      -9.575   5.465  70.073  1.00  0.00    -0.227 C  
BRANCH  14  15
HETATM   15  C   UNL     1      -8.356   5.291  70.975  1.00  0.00    -0.121 C  
HETATM   16  C   UNL     1      -8.693   4.507  72.223  1.00  0.00    -0.118 C  
HETATM   17  O   UNL     1      -7.617   4.346  73.029  1.00  0.00    -0.078 OA 
HETATM   18  O   UNL     1      -9.792   4.058  72.504  1.00  0.00    -0.143 OA 
ENDBRANCH  14  15
ENDBRANCH  13  14
ENDBRANCH  12  13
ENDBRANCH  11  12
ENDBRANCH  10  11
ENDBRANCH   9  10
ENDBRANCH   8   9
ENDBRANCH   7   8
ENDBRANCH   6   7
ENDBRANCH   5   6
ENDBRANCH   4   5
ENDBRANCH   3   4
ENDBRANCH   2   3
TORSDOF 13
ENDMDL
MODEL      286
REMARK 921   NORMALIZED FREE ENERGY PREDICTED BY IDOCK:   -2.99 KCAL/MOL
REMARK 922        TOTAL FREE ENERGY PREDICTED BY IDOCK:   -6.67 KCAL/MOL
REMARK 923 INTER-LIGAND FREE ENERGY PREDICTED BY IDOCK:   -4.90 KCAL/MOL
REMARK 924 INTRA-LIGAND FREE ENERGY PREDICTED BY IDOCK:   -1.78 KCAL/MOL
REMARK 927      BINDING AFFINITY PREDICTED BY RF-SCORE:    0.00 PKD
ROOT
HETATM    1  C   UNL     1      -6.992  12.895  68.524  1.00  0.00    -0.098 C  
HETATM    2  C   UNL     1      -7.258  11.545  67.882  1.00  0.00    -0.085 C  
ENDROOT
BRANCH   2   3
HETATM    3  C   UNL     1      -8.200  11.679  66.688  1.00  0.00    -0.140 C  
BRANCH   3   4
HETATM    4  C   UNL     1      -8.903  10.358  66.390  1.00  0.00    -0.159 C  
BRANCH   4   5
HETATM    5  C   UNL     1     -10.284  10.603  65.788  1.00  0.00    -0.317 C  
BRANCH   5   6
HETATM    6  C   UNL     1     -11.028  11.691  66.554  1.00  0.00    -0.349 C  
BRANCH   6   7
HETATM    7  C   UNL     1     -11.578  11.146  67.869  1.00  0.00    -0.328 C  
BRANCH   7   8
HETATM    8  C   UNL     1     -10.954  11.867  69.058  1.00  0.00    -0.267 C  
BRANCH   8   9
HETATM    9  C   UNL     1     -12.023  12.579  69.880  1.00  0.00    -0.371 C  
BRANCH   9  10
HETATM   10  C   UNL     1     -12.169  14.030  69.435  1.00  0.00    -0.336 C  
BRANCH  10  11
HETATM   11  C   UNL     1     -10.811  14.638  69.099  1.00  0.00    -0.269 C  
BRANCH  11  12
HETATM   12  C   UNL     1     -10.882  15.425  67.795  1.00  0.00    -0.302 C  
BRANCH  12  13
HETATM   13  C   UNL     1      -9.561  15.357  67.034  1.00  0.00    -0.227 C  
BRANCH  13  14
HETATM   14  C   UNL     1      -9.381  16.591  66.153  1.00  0.00    -0.339 C  
BRANCH  14  15
HETATM   15  C   UNL     1      -8.594  17.679  66.877  1.00  0.00    -0.260 C  
HETATM   16  C   UNL     1      -9.479  18.837  67.276  1.00  0.00    -0.301 C  
HETATM   17  O   UNL     1      -8.790  19.807  67.922  1.00  0.00    -0.316 OA 
HETATM   18  O   UNL     1     -10.677  18.922  67.059  1.00  0.00    -0.430 OA 
ENDBRANCH  14  15
ENDBRANCH  13  14
ENDBRANCH  12  13
ENDBRANCH  11  12
ENDBRANCH  10  11
ENDBRANCH   9  10
ENDBRANCH   8   9
ENDBRANCH   7   8
ENDBRANCH   6   7
ENDBRANCH   5   6
ENDBRANCH   4   5
ENDBRANCH   3   4
ENDBRANCH   2   3
TORSDOF 13
ENDMDL
MODEL      287
REMARK 921   NORMALIZED FREE ENERGY PREDICTED BY IDOCK:   -2.99 KCAL/MOL
REMARK 922        TOTAL FREE ENERGY PREDICTED BY IDOCK:   -6.67 KCAL/MOL
REMARK 923 INTER-LIGAND FREE ENERGY PREDICTED BY IDOCK:   -5.62 KCAL/MOL
REMARK 924 INTRA-LIGAND FREE ENERGY PREDICTED BY IDOCK:   -1.05 KCAL/MOL
REMARK 927      BINDING AFFINITY PREDICTED BY RF-SCORE:    0.00 PKD
ROOT
HETATM    1  C   UNL     1     -11.239  15.709  69.872  1.00  0.00    -0.335 C  
HETATM    2  C   UNL     1     -12.369  14.707  70.029  1.00  0.00    -0.365 C  
ENDROOT
BRANCH   2   3
HETATM    3  C   UNL     1     -13.355  15.153  71.106  1.00  0.00    -0.535 C  
BRANCH   3   4
HETATM    4  C   UNL     1     -13.779  13.979  71.985  1.00  0.00    -0.569 C  
BRANCH   4   5
HETATM    5  C   UNL     1     -12.874  12.773  71.751  1.00  0.00    -0.342 C  
BRANCH   5   6
HETATM    6  C   UNL     1     -13.612  11.472  72.050  1.00  0.00    -0.138 C  
BRANCH   6   7
HETATM    7  C   UNL     1     -12.818  10.272  71.541  1.00  0.00    -0.557 C  
BRANCH   7   8
HETATM    8  C   UNL     1     -13.192   9.011  72.310  1.00  0.00    -0.519 C  
BRANCH   8   9
HETATM    9  C   UNL     1     -12.089   7.963  72.197  1.00  0.00    -0.371 C  
BRANCH   9  10
HETATM   10  C   UNL     1     -12.210   7.192  70.887  1.00  0.00    -0.354 C  
BRANCH  10  11
HETATM   11  C   UNL     1     -10.915   6.452  70.566  1.00  0.00    -0.364 C  
BRANCH  11  12
HETATM   12  C   UNL     1      -9.808   7.437  70.203  1.00  0.00    -0.180 C  
BRANCH  12  13
HETATM   13  C   UNL     1     -10.243   8.365  69.072  1.00  0.00    -0.217 C  
BRANCH  13  14
HETATM   14  C   UNL     1      -9.082   9.249  68.623  1.00  0.00    -0.132 C  
BRANCH  14  15
HETATM   15  C   UNL     1      -8.434   9.958  69.808  1.00  0.00    -0.206 C  
HETATM   16  C   UNL     1      -6.932   9.798  69.802  1.00  0.00    -0.087 C  
HETATM   17  O   UNL     1      -6.348  10.426  70.849  1.00  0.00    -0.307 OA 
HETATM   18  O   UNL     1      -6.288   9.183  68.968  1.00  0.00    -0.043 OA 
ENDBRANCH  14  15
ENDBRANCH  13  14
ENDBRANCH  12  13
ENDBRANCH  11  12
ENDBRANCH  10  11
ENDBRANCH   9  10
ENDBRANCH   8   9
ENDBRANCH   7   8
ENDBRANCH   6   7
ENDBRANCH   5   6
ENDBRANCH   4   5
ENDBRANCH   3   4
ENDBRANCH   2   3
TORSDOF 13
ENDMDL
MODEL      288
REMARK 921   NORMALIZED FREE ENERGY PREDICTED BY IDOCK:   -2.99 KCAL/MOL
REMARK 922        TOTAL FREE ENERGY PREDICTED BY IDOCK:   -6.67 KCAL/MOL
REMARK 923 INTER-LIGAND FREE ENERGY PREDICTED BY IDOCK:   -5.01 KCAL/MOL
REMARK 924 INTRA-LIGAND FREE ENERGY PREDICTED BY IDOCK:   -1.66 KCAL/MOL
REMARK 927      BINDING AFFINITY PREDICTED BY RF-SCORE:    0.00 PKD
ROOT
HETATM    1  C   UNL     1      -8.497   8.044  72.900  1.00  0.00    -0.244 C  
HETATM    2  C   UNL     1      -9.623   7.025  72.931  1.00  0.00    -0.174 C  
ENDROOT
BRANCH   2   3
HETATM    3  C   UNL     1      -9.913   6.567  74.358  1.00  0.00    -0.374 C  
BRANCH   3   4
HETATM    4  C   UNL     1     -10.505   5.161  74.375  1.00  0.00    -0.294 C  
BRANCH   4   5
HETATM    5  C   UNL     1     -10.622   4.604  72.959  1.00  0.00    -0.278 C  
BRANCH   5   6
HETATM    6  C   UNL     1      -9.833   3.307  72.817  1.00  0.00    -0.201 C  
BRANCH   6   7
HETATM    7  C   UNL     1      -9.534   3.016  71.350  1.00  0.00    -0.216 C  
BRANCH   7   8
HETATM    8  C   UNL     1      -9.973   4.177  70.466  1.00  0.00    -0.177 C  
BRANCH   8   9
HETATM    9  C   UNL     1      -9.183   4.194  69.162  1.00  0.00    -0.211 C  
BRANCH   9  10
HETATM   10  C   UNL     1      -9.432   5.488  68.396  1.00  0.00    -0.144 C  
BRANCH  10  11
HETATM   11  C   UNL     1     -10.199   6.491  69.252  1.00  0.00    -0.216 C  
BRANCH  11  12
HETATM   12  C   UNL     1      -9.496   7.844  69.255  1.00  0.00    -0.152 C  
BRANCH  12  13
HETATM   13  C   UNL     1     -10.502   8.991  69.208  1.00  0.00    -0.238 C  
BRANCH  13  14
HETATM   14  C   UNL     1     -11.328   9.036  70.491  1.00  0.00    -0.282 C  
BRANCH  14  15
HETATM   15  C   UNL     1     -11.881  10.436  70.745  1.00  0.00    -0.466 C  
HETATM   16  C   UNL     1     -12.960  10.427  71.803  1.00  0.00    -0.475 C  
HETATM   17  O   UNL     1     -13.456  11.664  72.036  1.00  0.00    -0.411 OA 
HETATM   18  O   UNL     1     -13.363   9.439  72.397  1.00  0.00    -0.452 OA 
ENDBRANCH  14  15
ENDBRANCH  13  14
ENDBRANCH  12  13
ENDBRANCH  11  12
ENDBRANCH  10  11
ENDBRANCH   9  10
ENDBRANCH   8   9
ENDBRANCH   7   8
ENDBRANCH   6   7
ENDBRANCH   5   6
ENDBRANCH   4   5
ENDBRANCH   3   4
ENDBRANCH   2   3
TORSDOF 13
ENDMDL
MODEL      289
REMARK 921   NORMALIZED FREE ENERGY PREDICTED BY IDOCK:   -2.98 KCAL/MOL
REMARK 922        TOTAL FREE ENERGY PREDICTED BY IDOCK:   -6.65 KCAL/MOL
REMARK 923 INTER-LIGAND FREE ENERGY PREDICTED BY IDOCK:   -5.73 KCAL/MOL
REMARK 924 INTRA-LIGAND FREE ENERGY PREDICTED BY IDOCK:   -0.92 KCAL/MOL
REMARK 927      BINDING AFFINITY PREDICTED BY RF-SCORE:    0.00 PKD
ROOT
HETATM    1  C   UNL     1     -12.297  15.838  72.488  1.00  0.00    -0.550 C  
HETATM    2  C   UNL     1     -13.246  15.533  71.342  1.00  0.00    -0.587 C  
ENDROOT
BRANCH   2   3
HETATM    3  C   UNL     1     -14.225  14.423  71.718  1.00  0.00    -0.572 C  
BRANCH   3   4
HETATM    4  C   UNL     1     -13.557  13.378  72.607  1.00  0.00    -0.543 C  
BRANCH   4   5
HETATM    5  C   UNL     1     -13.471  12.032  71.891  1.00  0.00    -0.305 C  
BRANCH   5   6
HETATM    6  C   UNL     1     -12.520  12.108  70.701  1.00  0.00    -0.330 C  
BRANCH   6   7
HETATM    7  C   UNL     1     -12.284  10.721  70.110  1.00  0.00    -0.425 C  
BRANCH   7   8
HETATM    8  C   UNL     1     -10.821  10.539  69.725  1.00  0.00    -0.335 C  
BRANCH   8   9
HETATM    9  C   UNL     1     -10.462  11.423  68.535  1.00  0.00    -0.223 C  
BRANCH   9  10
HETATM   10  C   UNL     1      -8.955  11.638  68.458  1.00  0.00    -0.138 C  
BRANCH  10  11
HETATM   11  C   UNL     1      -8.533  12.061  67.054  1.00  0.00    -0.183 C  
BRANCH  11  12
HETATM   12  C   UNL     1      -7.946  10.879  66.289  1.00  0.00    -0.161 C  
BRANCH  12  13
HETATM   13  C   UNL     1      -8.842  10.475  65.122  1.00  0.00    -0.206 C  
BRANCH  13  14
HETATM   14  C   UNL     1      -9.249   9.008  65.236  1.00  0.00    -0.205 C  
BRANCH  14  15
HETATM   15  C   UNL     1     -10.096   8.763  66.481  1.00  0.00    -0.349 C  
HETATM   16  C   UNL     1     -10.060   7.313  66.905  1.00  0.00    -0.247 C  
HETATM   17  O   UNL     1     -10.808   7.086  68.010  1.00  0.00    -0.208 OA 
HETATM   18  O   UNL     1      -9.442   6.425  66.341  1.00  0.00    -0.163 OA 
ENDBRANCH  14  15
ENDBRANCH  13  14
ENDBRANCH  12  13
ENDBRANCH  11  12
ENDBRANCH  10  11
ENDBRANCH   9  10
ENDBRANCH   8   9
ENDBRANCH   7   8
ENDBRANCH   6   7
ENDBRANCH   5   6
ENDBRANCH   4   5
ENDBRANCH   3   4
ENDBRANCH   2   3
TORSDOF 13
ENDMDL
MODEL      290
REMARK 921   NORMALIZED FREE ENERGY PREDICTED BY IDOCK:   -2.97 KCAL/MOL
REMARK 922        TOTAL FREE ENERGY PREDICTED BY IDOCK:   -6.64 KCAL/MOL
REMARK 923 INTER-LIGAND FREE ENERGY PREDICTED BY IDOCK:   -4.57 KCAL/MOL
REMARK 924 INTRA-LIGAND FREE ENERGY PREDICTED BY IDOCK:   -2.07 KCAL/MOL
REMARK 927      BINDING AFFINITY PREDICTED BY RF-SCORE:    0.00 PKD
ROOT
HETATM    1  C   UNL     1      -7.585  10.210  69.820  1.00  0.00    -0.175 C  
HETATM    2  C   UNL     1      -8.856   9.378  69.811  1.00  0.00    -0.193 C  
ENDROOT
BRANCH   2   3
HETATM    3  C   UNL     1     -10.093  10.263  69.679  1.00  0.00    -0.257 C  
BRANCH   3   4
HETATM    4  C   UNL     1     -10.733  10.113  68.301  1.00  0.00    -0.277 C  
BRANCH   4   5
HETATM    5  C   UNL     1      -9.706  10.351  67.197  1.00  0.00    -0.206 C  
BRANCH   5   6
HETATM    6  C   UNL     1     -10.205   9.808  65.862  1.00  0.00    -0.245 C  
BRANCH   6   7
HETATM    7  C   UNL     1      -9.066   9.157  65.084  1.00  0.00    -0.234 C  
BRANCH   7   8
HETATM    8  C   UNL     1      -8.158   8.364  66.016  1.00  0.00    -0.104 C  
BRANCH   8   9
HETATM    9  C   UNL     1      -8.049   6.913  65.559  1.00  0.00    -0.132 C  
BRANCH   9  10
HETATM   10  C   UNL     1      -9.045   6.035  66.307  1.00  0.00    -0.160 C  
BRANCH  10  11
HETATM   11  C   UNL     1      -9.028   6.340  67.802  1.00  0.00    -0.112 C  
BRANCH  11  12
HETATM   12  C   UNL     1     -10.135   5.574  68.519  1.00  0.00    -0.240 C  
BRANCH  12  13
HETATM   13  C   UNL     1     -11.244   6.512  68.986  1.00  0.00    -0.354 C  
BRANCH  13  14
HETATM   14  C   UNL     1     -11.296   6.570  70.511  1.00  0.00    -0.426 C  
BRANCH  14  15
HETATM   15  C   UNL     1     -12.514   7.352  70.995  1.00  0.00    -0.285 C  
HETATM   16  C   UNL     1     -12.163   8.288  72.127  1.00  0.00    -0.364 C  
HETATM   17  O   UNL     1     -13.237   8.988  72.562  1.00  0.00    -0.445 OA 
HETATM   18  O   UNL     1     -11.053   8.424  72.617  1.00  0.00    -0.359 OA 
ENDBRANCH  14  15
ENDBRANCH  13  14
ENDBRANCH  12  13
ENDBRANCH  11  12
ENDBRANCH  10  11
ENDBRANCH   9  10
ENDBRANCH   8   9
ENDBRANCH   7   8
ENDBRANCH   6   7
ENDBRANCH   5   6
ENDBRANCH   4   5
ENDBRANCH   3   4
ENDBRANCH   2   3
TORSDOF 13
ENDMDL
MODEL      291
REMARK 921   NORMALIZED FREE ENERGY PREDICTED BY IDOCK:   -2.97 KCAL/MOL
REMARK 922        TOTAL FREE ENERGY PREDICTED BY IDOCK:   -6.64 KCAL/MOL
REMARK 923 INTER-LIGAND FREE ENERGY PREDICTED BY IDOCK:   -5.42 KCAL/MOL
REMARK 924 INTRA-LIGAND FREE ENERGY PREDICTED BY IDOCK:   -1.22 KCAL/MOL
REMARK 927      BINDING AFFINITY PREDICTED BY RF-SCORE:    0.00 PKD
ROOT
HETATM    1  C   UNL     1      -5.955  17.314  68.813  1.00  0.00    -0.167 C  
HETATM    2  C   UNL     1      -6.777  18.480  69.335  1.00  0.00    -0.206 C  
ENDROOT
BRANCH   2   3
HETATM    3  C   UNL     1      -7.692  19.039  68.249  1.00  0.00    -0.346 C  
BRANCH   3   4
HETATM    4  C   UNL     1      -9.017  19.517  68.837  1.00  0.00    -0.316 C  
BRANCH   4   5
HETATM    5  C   UNL     1     -10.135  19.420  67.803  1.00  0.00    -0.508 C  
BRANCH   5   6
HETATM    6  C   UNL     1     -10.777  18.037  67.822  1.00  0.00    -0.350 C  
BRANCH   6   7
HETATM    7  C   UNL     1     -10.531  17.309  66.505  1.00  0.00    -0.260 C  
BRANCH   7   8
HETATM    8  C   UNL     1      -9.905  15.941  66.750  1.00  0.00    -0.254 C  
BRANCH   8   9
HETATM    9  C   UNL     1     -10.450  15.319  68.031  1.00  0.00    -0.248 C  
BRANCH   9  10
HETATM   10  C   UNL     1     -11.004  13.926  67.762  1.00  0.00    -0.271 C  
BRANCH  10  11
HETATM   11  C   UNL     1     -12.226  13.990  66.849  1.00  0.00    -0.415 C  
BRANCH  11  12
HETATM   12  C   UNL     1     -12.232  12.816  65.875  1.00  0.00    -0.422 C  
BRANCH  12  13
HETATM   13  C   UNL     1     -11.775  13.249  64.485  1.00  0.00    -0.420 C  
BRANCH  13  14
HETATM   14  C   UNL     1     -11.462  12.033  63.617  1.00  0.00    -0.556 C  
BRANCH  14  15
HETATM   15  C   UNL     1      -9.972  11.949  63.297  1.00  0.00    -0.409 C  
HETATM   16  C   UNL     1      -9.255  10.992  64.221  1.00  0.00    -0.152 C  
HETATM   17  O   UNL     1      -7.932  10.910  63.944  1.00  0.00     0.123 OA 
HETATM   18  O   UNL     1      -9.774  10.353  65.122  1.00  0.00    -0.243 OA 
ENDBRANCH  14  15
ENDBRANCH  13  14
ENDBRANCH  12  13
ENDBRANCH  11  12
ENDBRANCH  10  11
ENDBRANCH   9  10
ENDBRANCH   8   9
ENDBRANCH   7   8
ENDBRANCH   6   7
ENDBRANCH   5   6
ENDBRANCH   4   5
ENDBRANCH   3   4
ENDBRANCH   2   3
TORSDOF 13
ENDMDL
MODEL      292
REMARK 921   NORMALIZED FREE ENERGY PREDICTED BY IDOCK:   -2.96 KCAL/MOL
REMARK 922        TOTAL FREE ENERGY PREDICTED BY IDOCK:   -6.62 KCAL/MOL
REMARK 923 INTER-LIGAND FREE ENERGY PREDICTED BY IDOCK:   -5.46 KCAL/MOL
REMARK 924 INTRA-LIGAND FREE ENERGY PREDICTED BY IDOCK:   -1.17 KCAL/MOL
REMARK 927      BINDING AFFINITY PREDICTED BY RF-SCORE:    0.00 PKD
ROOT
HETATM    1  C   UNL     1      -6.977  18.263  68.766  1.00  0.00    -0.280 C  
HETATM    2  C   UNL     1      -7.895  19.466  68.906  1.00  0.00    -0.370 C  
ENDROOT
BRANCH   2   3
HETATM    3  C   UNL     1      -8.439  19.905  67.549  1.00  0.00    -0.378 C  
BRANCH   3   4
HETATM    4  C   UNL     1      -9.964  19.868  67.529  1.00  0.00    -0.552 C  
BRANCH   4   5
HETATM    5  C   UNL     1     -10.469  18.786  66.580  1.00  0.00    -0.484 C  
BRANCH   5   6
HETATM    6  C   UNL     1     -10.570  17.440  67.292  1.00  0.00    -0.284 C  
BRANCH   6   7
HETATM    7  C   UNL     1      -9.523  16.468  66.759  1.00  0.00    -0.266 C  
BRANCH   7   8
HETATM    8  C   UNL     1      -9.694  15.090  67.386  1.00  0.00    -0.216 C  
BRANCH   8   9
HETATM    9  C   UNL     1     -11.055  14.970  68.064  1.00  0.00    -0.304 C  
BRANCH   9  10
HETATM   10  C   UNL     1     -11.825  13.771  67.522  1.00  0.00    -0.422 C  
BRANCH  10  11
HETATM   11  C   UNL     1     -10.997  13.011  66.490  1.00  0.00    -0.307 C  
BRANCH  11  12
HETATM   12  C   UNL     1     -11.264  11.512  66.583  1.00  0.00    -0.336 C  
BRANCH  12  13
HETATM   13  C   UNL     1     -10.991  10.988  67.990  1.00  0.00    -0.312 C  
BRANCH  13  14
HETATM   14  C   UNL     1     -10.182   9.694  67.936  1.00  0.00    -0.242 C  
BRANCH  14  15
HETATM   15  C   UNL     1      -9.282   9.551  69.160  1.00  0.00    -0.163 C  
HETATM   16  C   UNL     1      -9.671   8.359  70.003  1.00  0.00    -0.176 C  
HETATM   17  O   UNL     1      -8.877   8.223  71.091  1.00  0.00    -0.132 OA 
HETATM   18  O   UNL     1     -10.586   7.589  69.762  1.00  0.00    -0.232 OA 
ENDBRANCH  14  15
ENDBRANCH  13  14
ENDBRANCH  12  13
ENDBRANCH  11  12
ENDBRANCH  10  11
ENDBRANCH   9  10
ENDBRANCH   8   9
ENDBRANCH   7   8
ENDBRANCH   6   7
ENDBRANCH   5   6
ENDBRANCH   4   5
ENDBRANCH   3   4
ENDBRANCH   2   3
TORSDOF 13
ENDMDL
MODEL      293
REMARK 921   NORMALIZED FREE ENERGY PREDICTED BY IDOCK:   -2.96 KCAL/MOL
REMARK 922        TOTAL FREE ENERGY PREDICTED BY IDOCK:   -6.62 KCAL/MOL
REMARK 923 INTER-LIGAND FREE ENERGY PREDICTED BY IDOCK:   -5.21 KCAL/MOL
REMARK 924 INTRA-LIGAND FREE ENERGY PREDICTED BY IDOCK:   -1.40 KCAL/MOL
REMARK 927      BINDING AFFINITY PREDICTED BY RF-SCORE:    0.00 PKD
ROOT
HETATM    1  C   UNL     1     -11.780  10.830  70.338  1.00  0.00    -0.445 C  
HETATM    2  C   UNL     1     -11.905  11.389  68.931  1.00  0.00    -0.413 C  
ENDROOT
BRANCH   2   3
HETATM    3  C   UNL     1     -10.780  10.879  68.033  1.00  0.00    -0.263 C  
BRANCH   3   4
HETATM    4  C   UNL     1      -9.626  10.320  68.861  1.00  0.00    -0.193 C  
BRANCH   4   5
HETATM    5  C   UNL     1      -8.288  10.855  68.356  1.00  0.00    -0.136 C  
BRANCH   5   6
HETATM    6  C   UNL     1      -8.492  11.827  67.198  1.00  0.00    -0.170 C  
BRANCH   6   7
HETATM    7  C   UNL     1      -7.866  13.181  67.515  1.00  0.00    -0.173 C  
BRANCH   7   8
HETATM    8  C   UNL     1      -8.813  14.316  67.144  1.00  0.00    -0.243 C  
BRANCH   8   9
HETATM    9  C   UNL     1      -9.189  15.131  68.377  1.00  0.00    -0.189 C  
BRANCH   9  10
HETATM   10  C   UNL     1     -10.633  14.862  68.782  1.00  0.00    -0.247 C  
BRANCH  10  11
HETATM   11  C   UNL     1     -11.490  16.114  68.617  1.00  0.00    -0.340 C  
BRANCH  11  12
HETATM   12  C   UNL     1     -10.621  17.368  68.642  1.00  0.00    -0.318 C  
BRANCH  12  13
HETATM   13  C   UNL     1     -10.740  18.150  67.337  1.00  0.00    -0.355 C  
BRANCH  13  14
HETATM   14  C   UNL     1      -9.796  19.350  67.340  1.00  0.00    -0.447 C  
BRANCH  14  15
HETATM   15  C   UNL     1      -8.582  19.098  68.228  1.00  0.00    -0.370 C  
HETATM   16  C   UNL     1      -7.538  20.178  68.066  1.00  0.00    -0.243 C  
HETATM   17  O   UNL     1      -6.456  19.964  68.852  1.00  0.00    -0.284 OA 
HETATM   18  O   UNL     1      -7.625  21.143  67.325  1.00  0.00    -0.383 OA 
ENDBRANCH  14  15
ENDBRANCH  13  14
ENDBRANCH  12  13
ENDBRANCH  11  12
ENDBRANCH  10  11
ENDBRANCH   9  10
ENDBRANCH   8   9
ENDBRANCH   7   8
ENDBRANCH   6   7
ENDBRANCH   5   6
ENDBRANCH   4   5
ENDBRANCH   3   4
ENDBRANCH   2   3
TORSDOF 13
ENDMDL
MODEL      294
REMARK 921   NORMALIZED FREE ENERGY PREDICTED BY IDOCK:   -2.96 KCAL/MOL
REMARK 922        TOTAL FREE ENERGY PREDICTED BY IDOCK:   -6.61 KCAL/MOL
REMARK 923 INTER-LIGAND FREE ENERGY PREDICTED BY IDOCK:   -5.27 KCAL/MOL
REMARK 924 INTRA-LIGAND FREE ENERGY PREDICTED BY IDOCK:   -1.34 KCAL/MOL
REMARK 927      BINDING AFFINITY PREDICTED BY RF-SCORE:    0.00 PKD
ROOT
HETATM    1  C   UNL     1     -13.671  13.212  72.224  1.00  0.00    -0.647 C  
HETATM    2  C   UNL     1     -13.607  14.453  71.350  1.00  0.00    -0.431 C  
ENDROOT
BRANCH   2   3
HETATM    3  C   UNL     1     -12.605  15.464  71.902  1.00  0.00    -0.455 C  
BRANCH   3   4
HETATM    4  C   UNL     1     -11.547  15.814  70.860  1.00  0.00    -0.440 C  
BRANCH   4   5
HETATM    5  C   UNL     1     -11.680  14.922  69.630  1.00  0.00    -0.356 C  
BRANCH   5   6
HETATM    6  C   UNL     1     -10.318  14.658  68.997  1.00  0.00    -0.237 C  
BRANCH   6   7
HETATM    7  C   UNL     1     -10.084  13.161  68.822  1.00  0.00    -0.072 C  
BRANCH   7   8
HETATM    8  C   UNL     1     -11.133  12.553  67.898  1.00  0.00    -0.286 C  
BRANCH   8   9
HETATM    9  C   UNL     1     -11.901  11.443  68.609  1.00  0.00    -0.377 C  
BRANCH   9  10
HETATM   10  C   UNL     1     -11.323  11.190  69.996  1.00  0.00    -0.326 C  
BRANCH  10  11
HETATM   11  C   UNL     1     -11.510   9.733  70.409  1.00  0.00    -0.347 C  
BRANCH  11  12
HETATM   12  C   UNL     1     -10.357   9.273  71.295  1.00  0.00    -0.397 C  
BRANCH  12  13
HETATM   13  C   UNL     1      -9.428   8.323  70.545  1.00  0.00    -0.178 C  
BRANCH  13  14
HETATM   14  C   UNL     1     -10.222   7.193  69.894  1.00  0.00    -0.215 C  
BRANCH  14  15
HETATM   15  C   UNL     1     -10.037   7.186  68.380  1.00  0.00    -0.182 C  
HETATM   16  C   UNL     1      -9.018   6.159  67.947  1.00  0.00    -0.112 C  
HETATM   17  O   UNL     1      -8.848   6.143  66.603  1.00  0.00    -0.120 OA 
HETATM   18  O   UNL     1      -8.401   5.414  68.691  1.00  0.00    -0.094 OA 
ENDBRANCH  14  15
ENDBRANCH  13  14
ENDBRANCH  12  13
ENDBRANCH  11  12
ENDBRANCH  10  11
ENDBRANCH   9  10
ENDBRANCH   8   9
ENDBRANCH   7   8
ENDBRANCH   6   7
ENDBRANCH   5   6
ENDBRANCH   4   5
ENDBRANCH   3   4
ENDBRANCH   2   3
TORSDOF 13
ENDMDL
MODEL      295
REMARK 921   NORMALIZED FREE ENERGY PREDICTED BY IDOCK:   -2.96 KCAL/MOL
REMARK 922        TOTAL FREE ENERGY PREDICTED BY IDOCK:   -6.61 KCAL/MOL
REMARK 923 INTER-LIGAND FREE ENERGY PREDICTED BY IDOCK:   -5.33 KCAL/MOL
REMARK 924 INTRA-LIGAND FREE ENERGY PREDICTED BY IDOCK:   -1.28 KCAL/MOL
REMARK 927      BINDING AFFINITY PREDICTED BY RF-SCORE:    0.00 PKD
ROOT
HETATM    1  C   UNL     1      -6.840   9.490  67.935  1.00  0.00    -0.074 C  
HETATM    2  C   UNL     1      -6.604   9.410  66.437  1.00  0.00    -0.071 C  
ENDROOT
BRANCH   2   3
HETATM    3  C   UNL     1      -6.539   7.959  65.966  1.00  0.00    -0.049 C  
BRANCH   3   4
HETATM    4  C   UNL     1      -6.610   7.871  64.444  1.00  0.00    -0.056 C  
BRANCH   4   5
HETATM    5  C   UNL     1      -8.055   7.965  63.962  1.00  0.00    -0.078 C  
BRANCH   5   6
HETATM    6  C   UNL     1      -8.155   8.821  62.703  1.00  0.00    -0.171 C  
BRANCH   6   7
HETATM    7  C   UNL     1      -8.917  10.111  62.986  1.00  0.00    -0.259 C  
BRANCH   7   8
HETATM    8  C   UNL     1      -9.355  10.172  64.445  1.00  0.00    -0.348 C  
BRANCH   8   9
HETATM    9  C   UNL     1     -10.494  11.170  64.625  1.00  0.00    -0.400 C  
BRANCH   9  10
HETATM   10  C   UNL     1     -10.894  11.782  63.288  1.00  0.00    -0.400 C  
BRANCH  10  11
HETATM   11  C   UNL     1     -12.027  12.788  63.462  1.00  0.00    -0.633 C  
BRANCH  11  12
HETATM   12  C   UNL     1     -12.619  12.694  64.864  1.00  0.00    -0.525 C  
BRANCH  12  13
HETATM   13  C   UNL     1     -12.625  14.055  65.555  1.00  0.00    -0.543 C  
BRANCH  13  14
HETATM   14  C   UNL     1     -11.433  14.185  66.501  1.00  0.00    -0.368 C  
BRANCH  14  15
HETATM   15  C   UNL     1     -11.614  13.318  67.743  1.00  0.00    -0.380 C  
HETATM   16  C   UNL     1     -11.980  14.146  68.953  1.00  0.00    -0.341 C  
HETATM   17  O   UNL     1     -12.143  13.385  70.061  1.00  0.00    -0.326 OA 
HETATM   18  O   UNL     1     -12.118  15.358  68.968  1.00  0.00    -0.312 OA 
ENDBRANCH  14  15
ENDBRANCH  13  14
ENDBRANCH  12  13
ENDBRANCH  11  12
ENDBRANCH  10  11
ENDBRANCH   9  10
ENDBRANCH   8   9
ENDBRANCH   7   8
ENDBRANCH   6   7
ENDBRANCH   5   6
ENDBRANCH   4   5
ENDBRANCH   3   4
ENDBRANCH   2   3
TORSDOF 13
ENDMDL
MODEL      296
REMARK 921   NORMALIZED FREE ENERGY PREDICTED BY IDOCK:   -2.96 KCAL/MOL
REMARK 922        TOTAL FREE ENERGY PREDICTED BY IDOCK:   -6.61 KCAL/MOL
REMARK 923 INTER-LIGAND FREE ENERGY PREDICTED BY IDOCK:   -5.07 KCAL/MOL
REMARK 924 INTRA-LIGAND FREE ENERGY PREDICTED BY IDOCK:   -1.54 KCAL/MOL
REMARK 927      BINDING AFFINITY PREDICTED BY RF-SCORE:    0.00 PKD
ROOT
HETATM    1  C   UNL     1      -8.209  14.420  67.324  1.00  0.00    -0.223 C  
HETATM    2  C   UNL     1      -9.178  15.588  67.393  1.00  0.00    -0.209 C  
ENDROOT
BRANCH   2   3
HETATM    3  C   UNL     1      -9.630  16.010  65.998  1.00  0.00    -0.385 C  
BRANCH   3   4
HETATM    4  C   UNL     1     -10.165  14.819  65.208  1.00  0.00    -0.415 C  
BRANCH   4   5
HETATM    5  C   UNL     1     -11.691  14.791  65.234  1.00  0.00    -0.311 C  
BRANCH   5   6
HETATM    6  C   UNL     1     -12.212  13.365  65.090  1.00  0.00    -0.473 C  
BRANCH   6   7
HETATM    7  C   UNL     1     -12.196  12.930  63.629  1.00  0.00    -0.581 C  
BRANCH   7   8
HETATM    8  C   UNL     1     -11.710  11.491  63.497  1.00  0.00    -0.248 C  
BRANCH   8   9
HETATM    9  C   UNL     1     -10.233  11.453  63.119  1.00  0.00    -0.380 C  
BRANCH   9  10
HETATM   10  C   UNL     1      -9.510  10.345  63.875  1.00  0.00    -0.354 C  
BRANCH  10  11
HETATM   11  C   UNL     1     -10.025  10.235  65.307  1.00  0.00    -0.387 C  
BRANCH  11  12
HETATM   12  C   UNL     1      -9.252  11.171  66.231  1.00  0.00    -0.211 C  
BRANCH  12  13
HETATM   13  C   UNL     1      -9.261  10.661  67.669  1.00  0.00    -0.153 C  
BRANCH  13  14
HETATM   14  C   UNL     1      -7.871  10.180  68.080  1.00  0.00    -0.096 C  
BRANCH  14  15
HETATM   15  C   UNL     1      -7.294  11.043  69.198  1.00  0.00    -0.121 C  
HETATM   16  C   UNL     1      -6.452  10.229  70.154  1.00  0.00    -0.128 C  
HETATM   17  O   UNL     1      -5.934  10.987  71.149  1.00  0.00    -0.362 OA 
HETATM   18  O   UNL     1      -6.244   9.030  70.070  1.00  0.00    -0.036 OA 
ENDBRANCH  14  15
ENDBRANCH  13  14
ENDBRANCH  12  13
ENDBRANCH  11  12
ENDBRANCH  10  11
ENDBRANCH   9  10
ENDBRANCH   8   9
ENDBRANCH   7   8
ENDBRANCH   6   7
ENDBRANCH   5   6
ENDBRANCH   4   5
ENDBRANCH   3   4
ENDBRANCH   2   3
TORSDOF 13
ENDMDL
MODEL      297
REMARK 921   NORMALIZED FREE ENERGY PREDICTED BY IDOCK:   -2.94 KCAL/MOL
REMARK 922        TOTAL FREE ENERGY PREDICTED BY IDOCK:   -6.58 KCAL/MOL
REMARK 923 INTER-LIGAND FREE ENERGY PREDICTED BY IDOCK:   -5.65 KCAL/MOL
REMARK 924 INTRA-LIGAND FREE ENERGY PREDICTED BY IDOCK:   -0.93 KCAL/MOL
REMARK 927      BINDING AFFINITY PREDICTED BY RF-SCORE:    0.00 PKD
ROOT
HETATM    1  C   UNL     1     -11.337  16.172  69.668  1.00  0.00    -0.316 C  
HETATM    2  C   UNL     1     -12.067  14.870  69.949  1.00  0.00    -0.379 C  
ENDROOT
BRANCH   2   3
HETATM    3  C   UNL     1     -13.248  15.093  70.890  1.00  0.00    -0.488 C  
BRANCH   3   4
HETATM    4  C   UNL     1     -13.697  13.781  71.529  1.00  0.00    -0.286 C  
BRANCH   4   5
HETATM    5  C   UNL     1     -12.704  12.663  71.228  1.00  0.00    -0.354 C  
BRANCH   5   6
HETATM    6  C   UNL     1     -13.223  11.322  71.736  1.00  0.00    -0.480 C  
BRANCH   6   7
HETATM    7  C   UNL     1     -12.497  10.168  71.051  1.00  0.00    -0.474 C  
BRANCH   7   8
HETATM    8  C   UNL     1     -12.153   9.072  72.053  1.00  0.00    -0.440 C  
BRANCH   8   9
HETATM    9  C   UNL     1     -10.694   8.650  71.913  1.00  0.00    -0.414 C  
BRANCH   9  10
HETATM   10  C   UNL     1     -10.581   7.356  71.115  1.00  0.00    -0.235 C  
BRANCH  10  11
HETATM   11  C   UNL     1      -9.625   7.521  69.938  1.00  0.00    -0.160 C  
BRANCH  11  12
HETATM   12  C   UNL     1     -10.399   7.771  68.647  1.00  0.00    -0.221 C  
BRANCH  12  13
HETATM   13  C   UNL     1     -10.114   9.164  68.093  1.00  0.00    -0.225 C  
BRANCH  13  14
HETATM   14  C   UNL     1     -10.397   9.216  66.593  1.00  0.00    -0.289 C  
BRANCH  14  15
HETATM   15  C   UNL     1      -9.103   9.189  65.784  1.00  0.00    -0.265 C  
HETATM   16  C   UNL     1      -9.064  10.295  64.757  1.00  0.00    -0.219 C  
HETATM   17  O   UNL     1      -7.918  10.281  64.035  1.00  0.00    -0.156 OA 
HETATM   18  O   UNL     1      -9.942  11.122  64.570  1.00  0.00    -0.251 OA 
ENDBRANCH  14  15
ENDBRANCH  13  14
ENDBRANCH  12  13
ENDBRANCH  11  12
ENDBRANCH  10  11
ENDBRANCH   9  10
ENDBRANCH   8   9
ENDBRANCH   7   8
ENDBRANCH   6   7
ENDBRANCH   5   6
ENDBRANCH   4   5
ENDBRANCH   3   4
ENDBRANCH   2   3
TORSDOF 13
ENDMDL
MODEL      298
REMARK 921   NORMALIZED FREE ENERGY PREDICTED BY IDOCK:   -2.93 KCAL/MOL
REMARK 922        TOTAL FREE ENERGY PREDICTED BY IDOCK:   -6.57 KCAL/MOL
REMARK 923 INTER-LIGAND FREE ENERGY PREDICTED BY IDOCK:   -5.36 KCAL/MOL
REMARK 924 INTRA-LIGAND FREE ENERGY PREDICTED BY IDOCK:   -1.20 KCAL/MOL
REMARK 927      BINDING AFFINITY PREDICTED BY RF-SCORE:    0.00 PKD
ROOT
HETATM    1  C   UNL     1     -14.402  14.801  71.618  1.00  0.00    -0.645 C  
HETATM    2  C   UNL     1     -12.945  14.485  71.324  1.00  0.00    -0.403 C  
ENDROOT
BRANCH   2   3
HETATM    3  C   UNL     1     -12.201  15.725  70.835  1.00  0.00    -0.458 C  
BRANCH   3   4
HETATM    4  C   UNL     1     -11.431  15.434  69.550  1.00  0.00    -0.330 C  
BRANCH   4   5
HETATM    5  C   UNL     1     -11.894  14.120  68.927  1.00  0.00    -0.382 C  
BRANCH   5   6
HETATM    6  C   UNL     1     -11.230  13.896  67.572  1.00  0.00    -0.323 C  
BRANCH   6   7
HETATM    7  C   UNL     1     -10.389  12.624  67.587  1.00  0.00    -0.221 C  
BRANCH   7   8
HETATM    8  C   UNL     1      -9.675  12.430  66.254  1.00  0.00    -0.253 C  
BRANCH   8   9
HETATM    9  C   UNL     1     -10.256  11.238  65.500  1.00  0.00    -0.312 C  
BRANCH   9  10
HETATM   10  C   UNL     1     -10.703  10.151  66.469  1.00  0.00    -0.118 C  
BRANCH  10  11
HETATM   11  C   UNL     1      -9.618   9.093  66.645  1.00  0.00    -0.263 C  
BRANCH  11  12
HETATM   12  C   UNL     1      -9.697   8.465  68.032  1.00  0.00    -0.184 C  
BRANCH  12  13
HETATM   13  C   UNL     1      -9.425   9.496  69.123  1.00  0.00    -0.163 C  
BRANCH  13  14
HETATM   14  C   UNL     1     -10.566   9.520  70.139  1.00  0.00    -0.298 C  
BRANCH  14  15
HETATM   15  C   UNL     1     -10.096   9.044  71.510  1.00  0.00    -0.409 C  
HETATM   16  C   UNL     1     -10.406   7.581  71.729  1.00  0.00    -0.192 C  
HETATM   17  O   UNL     1      -9.992   7.148  72.943  1.00  0.00    -0.172 OA 
HETATM   18  O   UNL     1     -10.964   6.847  70.930  1.00  0.00    -0.237 OA 
ENDBRANCH  14  15
ENDBRANCH  13  14
ENDBRANCH  12  13
ENDBRANCH  11  12
ENDBRANCH  10  11
ENDBRANCH   9  10
ENDBRANCH   8   9
ENDBRANCH   7   8
ENDBRANCH   6   7
ENDBRANCH   5   6
ENDBRANCH   4   5
ENDBRANCH   3   4
ENDBRANCH   2   3
TORSDOF 13
ENDMDL
MODEL      299
REMARK 921   NORMALIZED FREE ENERGY PREDICTED BY IDOCK:   -2.93 KCAL/MOL
REMARK 922        TOTAL FREE ENERGY PREDICTED BY IDOCK:   -6.56 KCAL/MOL
REMARK 923 INTER-LIGAND FREE ENERGY PREDICTED BY IDOCK:   -4.86 KCAL/MOL
REMARK 924 INTRA-LIGAND FREE ENERGY PREDICTED BY IDOCK:   -1.70 KCAL/MOL
REMARK 927      BINDING AFFINITY PREDICTED BY RF-SCORE:    0.00 PKD
ROOT
HETATM    1  C   UNL     1      -7.453   6.092  68.363  1.00  0.00    -0.087 C  
HETATM    2  C   UNL     1      -8.896   5.854  68.775  1.00  0.00    -0.111 C  
ENDROOT
BRANCH   2   3
HETATM    3  C   UNL     1      -9.864   6.511  67.794  1.00  0.00    -0.139 C  
BRANCH   3   4
HETATM    4  C   UNL     1     -10.385   7.837  68.341  1.00  0.00    -0.231 C  
BRANCH   4   5
HETATM    5  C   UNL     1     -10.185   8.959  67.326  1.00  0.00    -0.326 C  
BRANCH   5   6
HETATM    6  C   UNL     1      -9.284   8.505  66.182  1.00  0.00    -0.269 C  
BRANCH   6   7
HETATM    7  C   UNL     1      -8.174   9.521  65.933  1.00  0.00    -0.115 C  
BRANCH   7   8
HETATM    8  C   UNL     1      -7.221   9.585  67.121  1.00  0.00    -0.087 C  
BRANCH   8   9
HETATM    9  C   UNL     1      -6.670  10.996  67.296  1.00  0.00    -0.086 C  
BRANCH   9  10
HETATM   10  C   UNL     1      -7.737  12.036  66.978  1.00  0.00    -0.129 C  
BRANCH  10  11
HETATM   11  C   UNL     1      -8.559  12.374  68.218  1.00  0.00    -0.172 C  
BRANCH  11  12
HETATM   12  C   UNL     1      -9.664  13.368  67.877  1.00  0.00    -0.226 C  
BRANCH  12  13
HETATM   13  C   UNL     1     -10.817  12.683  67.148  1.00  0.00    -0.282 C  
BRANCH  13  14
HETATM   14  C   UNL     1     -11.838  13.712  66.667  1.00  0.00    -0.447 C  
BRANCH  14  15
HETATM   15  C   UNL     1     -11.152  14.979  66.162  1.00  0.00    -0.329 C  
HETATM   16  C   UNL     1     -11.572  15.317  64.751  1.00  0.00    -0.322 C  
HETATM   17  O   UNL     1     -10.970  16.440  64.295  1.00  0.00    -0.788 OA 
HETATM   18  O   UNL     1     -12.357  14.675  64.072  1.00  0.00    -0.712 OA 
ENDBRANCH  14  15
ENDBRANCH  13  14
ENDBRANCH  12  13
ENDBRANCH  11  12
ENDBRANCH  10  11
ENDBRANCH   9  10
ENDBRANCH   8   9
ENDBRANCH   7   8
ENDBRANCH   6   7
ENDBRANCH   5   6
ENDBRANCH   4   5
ENDBRANCH   3   4
ENDBRANCH   2   3
TORSDOF 13
ENDMDL
MODEL      300
REMARK 921   NORMALIZED FREE ENERGY PREDICTED BY IDOCK:   -2.93 KCAL/MOL
REMARK 922        TOTAL FREE ENERGY PREDICTED BY IDOCK:   -6.56 KCAL/MOL
REMARK 923 INTER-LIGAND FREE ENERGY PREDICTED BY IDOCK:   -5.26 KCAL/MOL
REMARK 924 INTRA-LIGAND FREE ENERGY PREDICTED BY IDOCK:   -1.30 KCAL/MOL
REMARK 927      BINDING AFFINITY PREDICTED BY RF-SCORE:    0.00 PKD
ROOT
HETATM    1  C   UNL     1      -9.266   9.091  71.091  1.00  0.00    -0.326 C  
HETATM    2  C   UNL     1     -10.720   8.653  71.123  1.00  0.00    -0.303 C  
ENDROOT
BRANCH   2   3
HETATM    3  C   UNL     1     -10.966   7.642  72.240  1.00  0.00    -0.328 C  
BRANCH   3   4
HETATM    4  C   UNL     1     -11.293   6.263  71.673  1.00  0.00    -0.347 C  
BRANCH   4   5
HETATM    5  C   UNL     1     -11.250   6.280  70.148  1.00  0.00    -0.470 C  
BRANCH   5   6
HETATM    6  C   UNL     1     -10.109   5.414  69.625  1.00  0.00    -0.319 C  
BRANCH   6   7
HETATM    7  C   UNL     1      -9.852   5.693  68.148  1.00  0.00    -0.170 C  
BRANCH   7   8
HETATM    8  C   UNL     1     -10.897   6.651  67.588  1.00  0.00    -0.393 C  
BRANCH   8   9
HETATM    9  C   UNL     1     -10.229   7.853  66.928  1.00  0.00    -0.380 C  
BRANCH   9  10
HETATM   10  C   UNL     1     -10.771   9.156  67.503  1.00  0.00    -0.255 C  
BRANCH  10  11
HETATM   11  C   UNL     1      -9.981  10.354  66.986  1.00  0.00    -0.252 C  
BRANCH  11  12
HETATM   12  C   UNL     1     -10.904  11.347  66.288  1.00  0.00    -0.318 C  
BRANCH  12  13
HETATM   13  C   UNL     1     -11.026  12.643  67.084  1.00  0.00    -0.296 C  
BRANCH  13  14
HETATM   14  C   UNL     1      -9.646  13.169  67.473  1.00  0.00    -0.208 C  
BRANCH  14  15
HETATM   15  C   UNL     1      -9.745  14.227  68.568  1.00  0.00    -0.225 C  
HETATM   16  C   UNL     1      -9.644  15.625  68.005  1.00  0.00    -0.203 C  
HETATM   17  O   UNL     1      -9.732  16.571  68.969  1.00  0.00    -0.247 OA 
HETATM   18  O   UNL     1      -9.499  15.906  66.827  1.00  0.00    -0.217 OA 
ENDBRANCH  14  15
ENDBRANCH  13  14
ENDBRANCH  12  13
ENDBRANCH  11  12
ENDBRANCH  10  11
ENDBRANCH   9  10
ENDBRANCH   8   9
ENDBRANCH   7   8
ENDBRANCH   6   7
ENDBRANCH   5   6
ENDBRANCH   4   5
ENDBRANCH   3   4
ENDBRANCH   2   3
TORSDOF 13
ENDMDL
MODEL      301
REMARK 921   NORMALIZED FREE ENERGY PREDICTED BY IDOCK:   -2.93 KCAL/MOL
REMARK 922        TOTAL FREE ENERGY PREDICTED BY IDOCK:   -6.56 KCAL/MOL
REMARK 923 INTER-LIGAND FREE ENERGY PREDICTED BY IDOCK:   -5.03 KCAL/MOL
REMARK 924 INTRA-LIGAND FREE ENERGY PREDICTED BY IDOCK:   -1.53 KCAL/MOL
REMARK 927      BINDING AFFINITY PREDICTED BY RF-SCORE:    0.00 PKD
ROOT
HETATM    1  C   UNL     1      -9.311  19.555  68.902  1.00  0.00    -0.393 C  
HETATM    2  C   UNL     1      -8.069  18.978  68.245  1.00  0.00    -0.359 C  
ENDROOT
BRANCH   2   3
HETATM    3  C   UNL     1      -8.242  18.876  66.732  1.00  0.00    -0.287 C  
BRANCH   3   4
HETATM    4  C   UNL     1      -9.630  19.343  66.304  1.00  0.00    -0.437 C  
BRANCH   4   5
HETATM    5  C   UNL     1     -10.370  18.236  65.558  1.00  0.00     0.144 C  
BRANCH   5   6
HETATM    6  C   UNL     1     -10.377  16.944  66.368  1.00  0.00    -0.302 C  
BRANCH   6   7
HETATM    7  C   UNL     1     -10.882  15.780  65.522  1.00  0.00    -0.343 C  
BRANCH   7   8
HETATM    8  C   UNL     1     -10.150  14.492  65.880  1.00  0.00    -0.346 C  
BRANCH   8   9
HETATM    9  C   UNL     1      -8.794  14.798  66.508  1.00  0.00    -0.223 C  
BRANCH   9  10
HETATM   10  C   UNL     1      -8.781  14.408  67.981  1.00  0.00    -0.170 C  
BRANCH  10  11
HETATM   11  C   UNL     1      -9.642  13.172  68.228  1.00  0.00    -0.218 C  
BRANCH  11  12
HETATM   12  C   UNL     1     -10.667  13.440  69.324  1.00  0.00    -0.018 C  
BRANCH  12  13
HETATM   13  C   UNL     1     -11.992  13.918  68.738  1.00  0.00    -0.393 C  
BRANCH  13  14
HETATM   14  C   UNL     1     -12.358  15.296  69.285  1.00  0.00    -0.128 C  
BRANCH  14  15
HETATM   15  C   UNL     1     -13.395  15.192  70.400  1.00  0.00    -0.080 C  
HETATM   16  C   UNL     1     -12.850  15.695  71.717  1.00  0.00    -0.458 C  
HETATM   17  O   UNL     1     -13.763  15.608  72.713  1.00  0.00    -0.543 OA 
HETATM   18  O   UNL     1     -11.726  16.133  71.899  1.00  0.00    -0.475 OA 
ENDBRANCH  14  15
ENDBRANCH  13  14
ENDBRANCH  12  13
ENDBRANCH  11  12
ENDBRANCH  10  11
ENDBRANCH   9  10
ENDBRANCH   8   9
ENDBRANCH   7   8
ENDBRANCH   6   7
ENDBRANCH   5   6
ENDBRANCH   4   5
ENDBRANCH   3   4
ENDBRANCH   2   3
TORSDOF 13
ENDMDL
MODEL      302
REMARK 921   NORMALIZED FREE ENERGY PREDICTED BY IDOCK:   -2.93 KCAL/MOL
REMARK 922        TOTAL FREE ENERGY PREDICTED BY IDOCK:   -6.56 KCAL/MOL
REMARK 923 INTER-LIGAND FREE ENERGY PREDICTED BY IDOCK:   -5.48 KCAL/MOL
REMARK 924 INTRA-LIGAND FREE ENERGY PREDICTED BY IDOCK:   -1.08 KCAL/MOL
REMARK 927      BINDING AFFINITY PREDICTED BY RF-SCORE:    0.00 PKD
ROOT
HETATM    1  C   UNL     1     -13.399   7.154  71.462  1.00  0.00    -0.413 C  
HETATM    2  C   UNL     1     -12.060   7.587  72.035  1.00  0.00    -0.326 C  
ENDROOT
BRANCH   2   3
HETATM    3  C   UNL     1     -10.904   7.069  71.184  1.00  0.00    -0.263 C  
BRANCH   3   4
HETATM    4  C   UNL     1     -11.414   6.252  70.000  1.00  0.00    -0.460 C  
BRANCH   4   5
HETATM    5  C   UNL     1     -10.913   6.836  68.682  1.00  0.00    -0.261 C  
BRANCH   5   6
HETATM    6  C   UNL     1     -10.250   8.191  68.903  1.00  0.00    -0.221 C  
BRANCH   6   7
HETATM    7  C   UNL     1      -9.358   8.555  67.719  1.00  0.00    -0.153 C  
BRANCH   7   8
HETATM    8  C   UNL     1     -10.195   8.827  66.475  1.00  0.00    -0.314 C  
BRANCH   8   9
HETATM    9  C   UNL     1      -9.832  10.176  65.864  1.00  0.00    -0.308 C  
BRANCH   9  10
HETATM   10  C   UNL     1      -9.279  11.119  66.927  1.00  0.00    -0.179 C  
BRANCH  10  11
HETATM   11  C   UNL     1     -10.366  12.051  67.450  1.00  0.00    -0.226 C  
BRANCH  11  12
HETATM   12  C   UNL     1     -11.359  12.395  66.345  1.00  0.00    -0.392 C  
BRANCH  12  13
HETATM   13  C   UNL     1     -12.066  13.718  66.627  1.00  0.00    -0.471 C  
BRANCH  13  14
HETATM   14  C   UNL     1     -11.735  14.217  68.032  1.00  0.00    -0.394 C  
BRANCH  14  15
HETATM   15  C   UNL     1     -11.574  15.734  68.057  1.00  0.00    -0.213 C  
HETATM   16  C   UNL     1     -10.467  16.162  68.992  1.00  0.00    -0.261 C  
HETATM   17  O   UNL     1     -10.314  17.507  69.021  1.00  0.00    -0.356 OA 
HETATM   18  O   UNL     1      -9.772  15.412  69.660  1.00  0.00    -0.266 OA 
ENDBRANCH  14  15
ENDBRANCH  13  14
ENDBRANCH  12  13
ENDBRANCH  11  12
ENDBRANCH  10  11
ENDBRANCH   9  10
ENDBRANCH   8   9
ENDBRANCH   7   8
ENDBRANCH   6   7
ENDBRANCH   5   6
ENDBRANCH   4   5
ENDBRANCH   3   4
ENDBRANCH   2   3
TORSDOF 13
ENDMDL
MODEL      303
REMARK 921   NORMALIZED FREE ENERGY PREDICTED BY IDOCK:   -2.93 KCAL/MOL
REMARK 922        TOTAL FREE ENERGY PREDICTED BY IDOCK:   -6.56 KCAL/MOL
REMARK 923 INTER-LIGAND FREE ENERGY PREDICTED BY IDOCK:   -5.23 KCAL/MOL
REMARK 924 INTRA-LIGAND FREE ENERGY PREDICTED BY IDOCK:   -1.33 KCAL/MOL
REMARK 927      BINDING AFFINITY PREDICTED BY RF-SCORE:    0.00 PKD
ROOT
HETATM    1  C   UNL     1     -13.927   7.252  71.567  1.00  0.00    -0.486 C  
HETATM    2  C   UNL     1     -14.194   8.726  71.820  1.00  0.00    -0.443 C  
ENDROOT
BRANCH   2   3
HETATM    3  C   UNL     1     -12.888   9.508  71.941  1.00  0.00    -0.508 C  
BRANCH   3   4
HETATM    4  C   UNL     1     -13.129  11.008  71.791  1.00  0.00    -0.554 C  
BRANCH   4   5
HETATM    5  C   UNL     1     -12.354  11.566  70.601  1.00  0.00    -0.457 C  
BRANCH   5   6
HETATM    6  C   UNL     1     -11.460  10.496  69.983  1.00  0.00    -0.393 C  
BRANCH   6   7
HETATM    7  C   UNL     1     -11.619  10.470  68.467  1.00  0.00    -0.222 C  
BRANCH   7   8
HETATM    8  C   UNL     1     -10.865   9.291  67.863  1.00  0.00    -0.181 C  
BRANCH   8   9
HETATM    9  C   UNL     1      -9.895   9.765  66.785  1.00  0.00    -0.265 C  
BRANCH   9  10
HETATM   10  C   UNL     1      -8.821  10.666  67.384  1.00  0.00    -0.132 C  
BRANCH  10  11
HETATM   11  C   UNL     1      -8.587  11.894  66.510  1.00  0.00    -0.126 C  
BRANCH  11  12
HETATM   12  C   UNL     1      -7.735  12.923  67.245  1.00  0.00    -0.122 C  
BRANCH  12  13
HETATM   13  C   UNL     1      -8.468  14.256  67.377  1.00  0.00    -0.216 C  
BRANCH  13  14
HETATM   14  C   UNL     1      -8.975  14.453  68.804  1.00  0.00    -0.131 C  
BRANCH  14  15
HETATM   15  C   UNL     1     -10.495  14.331  68.873  1.00  0.00    -0.241 C  
HETATM   16  C   UNL     1     -11.147  15.657  69.190  1.00  0.00    -0.284 C  
HETATM   17  O   UNL     1     -12.496  15.559  69.252  1.00  0.00    -0.157 OA 
HETATM   18  O   UNL     1     -10.560  16.710  69.376  1.00  0.00    -0.312 OA 
ENDBRANCH  14  15
ENDBRANCH  13  14
ENDBRANCH  12  13
ENDBRANCH  11  12
ENDBRANCH  10  11
ENDBRANCH   9  10
ENDBRANCH   8   9
ENDBRANCH   7   8
ENDBRANCH   6   7
ENDBRANCH   5   6
ENDBRANCH   4   5
ENDBRANCH   3   4
ENDBRANCH   2   3
TORSDOF 13
ENDMDL
MODEL      304
REMARK 921   NORMALIZED FREE ENERGY PREDICTED BY IDOCK:   -2.92 KCAL/MOL
REMARK 922        TOTAL FREE ENERGY PREDICTED BY IDOCK:   -6.55 KCAL/MOL
REMARK 923 INTER-LIGAND FREE ENERGY PREDICTED BY IDOCK:   -5.66 KCAL/MOL
REMARK 924 INTRA-LIGAND FREE ENERGY PREDICTED BY IDOCK:   -0.89 KCAL/MOL
REMARK 927      BINDING AFFINITY PREDICTED BY RF-SCORE:    0.00 PKD
ROOT
HETATM    1  C   UNL     1      -9.443   9.154  71.103  1.00  0.00    -0.331 C  
HETATM    2  C   UNL     1     -10.939   8.928  70.963  1.00  0.00    -0.341 C  
ENDROOT
BRANCH   2   3
HETATM    3  C   UNL     1     -11.487   8.124  72.139  1.00  0.00    -0.412 C  
BRANCH   3   4
HETATM    4  C   UNL     1     -11.901   6.722  71.702  1.00  0.00    -0.370 C  
BRANCH   4   5
HETATM    5  C   UNL     1     -11.566   6.492  70.231  1.00  0.00    -0.473 C  
BRANCH   5   6
HETATM    6  C   UNL     1     -10.471   5.441  70.079  1.00  0.00    -0.373 C  
BRANCH   6   7
HETATM    7  C   UNL     1      -9.938   5.420  68.650  1.00  0.00    -0.232 C  
BRANCH   7   8
HETATM    8  C   UNL     1     -10.740   6.361  67.758  1.00  0.00    -0.377 C  
BRANCH   8   9
HETATM    9  C   UNL     1      -9.817   7.141  66.828  1.00  0.00    -0.272 C  
BRANCH   9  10
HETATM   10  C   UNL     1     -10.316   8.569  66.645  1.00  0.00    -0.303 C  
BRANCH  10  11
HETATM   11  C   UNL     1      -9.425   9.340  65.676  1.00  0.00    -0.324 C  
BRANCH  11  12
HETATM   12  C   UNL     1     -10.269  10.172  64.715  1.00  0.00    -0.122 C  
BRANCH  12  13
HETATM   13  C   UNL     1      -9.862  11.642  64.752  1.00  0.00    -0.261 C  
BRANCH  13  14
HETATM   14  C   UNL     1     -10.004  12.205  66.165  1.00  0.00    -0.253 C  
BRANCH  14  15
HETATM   15  C   UNL     1     -11.283  11.710  66.833  1.00  0.00    -0.376 C  
HETATM   16  C   UNL     1     -11.169  11.729  68.340  1.00  0.00    -0.251 C  
HETATM   17  O   UNL     1     -12.300  11.292  68.942  1.00  0.00    -0.485 OA 
HETATM   18  O   UNL     1     -10.189  12.088  68.973  1.00  0.00    -0.108 OA 
ENDBRANCH  14  15
ENDBRANCH  13  14
ENDBRANCH  12  13
ENDBRANCH  11  12
ENDBRANCH  10  11
ENDBRANCH   9  10
ENDBRANCH   8   9
ENDBRANCH   7   8
ENDBRANCH   6   7
ENDBRANCH   5   6
ENDBRANCH   4   5
ENDBRANCH   3   4
ENDBRANCH   2   3
TORSDOF 13
ENDMDL
MODEL      305
REMARK 921   NORMALIZED FREE ENERGY PREDICTED BY IDOCK:   -2.92 KCAL/MOL
REMARK 922        TOTAL FREE ENERGY PREDICTED BY IDOCK:   -6.54 KCAL/MOL
REMARK 923 INTER-LIGAND FREE ENERGY PREDICTED BY IDOCK:   -5.30 KCAL/MOL
REMARK 924 INTRA-LIGAND FREE ENERGY PREDICTED BY IDOCK:   -1.24 KCAL/MOL
REMARK 927      BINDING AFFINITY PREDICTED BY RF-SCORE:    0.00 PKD
ROOT
HETATM    1  C   UNL     1     -12.853  14.045  65.261  1.00  0.00    -0.418 C  
HETATM    2  C   UNL     1     -12.365  14.186  66.692  1.00  0.00    -0.375 C  
ENDROOT
BRANCH   2   3
HETATM    3  C   UNL     1     -10.942  14.740  66.737  1.00  0.00    -0.327 C  
BRANCH   3   4
HETATM    4  C   UNL     1     -10.053  14.054  65.704  1.00  0.00    -0.342 C  
BRANCH   4   5
HETATM    5  C   UNL     1      -9.537  12.719  66.232  1.00  0.00    -0.242 C  
BRANCH   5   6
HETATM    6  C   UNL     1     -10.177  11.553  65.485  1.00  0.00    -0.303 C  
BRANCH   6   7
HETATM    7  C   UNL     1     -10.851  10.592  66.460  1.00  0.00    -0.168 C  
BRANCH   7   8
HETATM    8  C   UNL     1     -10.698  11.081  67.895  1.00  0.00    -0.263 C  
BRANCH   8   9
HETATM    9  C   UNL     1     -12.022  10.975  68.645  1.00  0.00    -0.247 C  
BRANCH   9  10
HETATM   10  C   UNL     1     -11.818  11.211  70.137  1.00  0.00    -0.449 C  
BRANCH  10  11
HETATM   11  C   UNL     1     -11.083  10.038  70.781  1.00  0.00    -0.407 C  
BRANCH  11  12
HETATM   12  C   UNL     1     -12.075   9.025  71.343  1.00  0.00    -0.392 C  
BRANCH  12  13
HETATM   13  C   UNL     1     -11.379   8.012  72.247  1.00  0.00    -0.413 C  
BRANCH  13  14
HETATM   14  C   UNL     1     -11.326   6.640  71.579  1.00  0.00    -0.326 C  
BRANCH  14  15
HETATM   15  C   UNL     1     -11.943   5.566  72.469  1.00  0.00    -0.085 C  
HETATM   16  C   UNL     1     -10.898   4.611  72.998  1.00  0.00    -0.247 C  
HETATM   17  O   UNL     1     -11.437   3.654  73.791  1.00  0.00    -0.161 OA 
HETATM   18  O   UNL     1      -9.703   4.664  72.759  1.00  0.00    -0.135 OA 
ENDBRANCH  14  15
ENDBRANCH  13  14
ENDBRANCH  12  13
ENDBRANCH  11  12
ENDBRANCH  10  11
ENDBRANCH   9  10
ENDBRANCH   8   9
ENDBRANCH   7   8
ENDBRANCH   6   7
ENDBRANCH   5   6
ENDBRANCH   4   5
ENDBRANCH   3   4
ENDBRANCH   2   3
TORSDOF 13
ENDMDL
MODEL      306
REMARK 921   NORMALIZED FREE ENERGY PREDICTED BY IDOCK:   -2.91 KCAL/MOL
REMARK 922        TOTAL FREE ENERGY PREDICTED BY IDOCK:   -6.52 KCAL/MOL
REMARK 923 INTER-LIGAND FREE ENERGY PREDICTED BY IDOCK:   -5.31 KCAL/MOL
REMARK 924 INTRA-LIGAND FREE ENERGY PREDICTED BY IDOCK:   -1.21 KCAL/MOL
REMARK 927      BINDING AFFINITY PREDICTED BY RF-SCORE:    0.00 PKD
ROOT
HETATM    1  C   UNL     1      -6.022  14.352  70.870  1.00  0.00    -0.185 C  
HETATM    2  C   UNL     1      -6.315  15.080  69.570  1.00  0.00    -0.131 C  
ENDROOT
BRANCH   2   3
HETATM    3  C   UNL     1      -7.812  15.084  69.266  1.00  0.00    -0.190 C  
BRANCH   3   4
HETATM    4  C   UNL     1      -8.072  15.346  67.786  1.00  0.00    -0.152 C  
BRANCH   4   5
HETATM    5  C   UNL     1      -9.135  16.426  67.605  1.00  0.00    -0.198 C  
BRANCH   5   6
HETATM    6  C   UNL     1     -10.447  16.016  68.266  1.00  0.00    -0.269 C  
BRANCH   6   7
HETATM    7  C   UNL     1     -11.068  14.827  67.540  1.00  0.00    -0.323 C  
BRANCH   7   8
HETATM    8  C   UNL     1     -11.897  13.980  68.498  1.00  0.00    -0.399 C  
BRANCH   8   9
HETATM    9  C   UNL     1     -12.030  14.669  69.852  1.00  0.00    -0.381 C  
BRANCH   9  10
HETATM   10  C   UNL     1     -12.396  13.662  70.937  1.00  0.00    -0.450 C  
BRANCH  10  11
HETATM   11  C   UNL     1     -12.191  12.232  70.447  1.00  0.00    -0.371 C  
BRANCH  11  12
HETATM   12  C   UNL     1     -12.846  11.238  71.400  1.00  0.00    -0.515 C  
BRANCH  12  13
HETATM   13  C   UNL     1     -12.194   9.862  71.300  1.00  0.00    -0.480 C  
BRANCH  13  14
HETATM   14  C   UNL     1     -10.907   9.934  70.480  1.00  0.00    -0.391 C  
BRANCH  14  15
HETATM   15  C   UNL     1     -10.736   8.694  69.609  1.00  0.00    -0.204 C  
HETATM   16  C   UNL     1     -10.660   9.048  68.142  1.00  0.00    -0.171 C  
HETATM   17  O   UNL     1     -10.506   7.954  67.360  1.00  0.00    -0.255 OA 
HETATM   18  O   UNL     1     -10.727  10.176  67.680  1.00  0.00    -0.246 OA 
ENDBRANCH  14  15
ENDBRANCH  13  14
ENDBRANCH  12  13
ENDBRANCH  11  12
ENDBRANCH  10  11
ENDBRANCH   9  10
ENDBRANCH   8   9
ENDBRANCH   7   8
ENDBRANCH   6   7
ENDBRANCH   5   6
ENDBRANCH   4   5
ENDBRANCH   3   4
ENDBRANCH   2   3
TORSDOF 13
ENDMDL
MODEL      307
REMARK 921   NORMALIZED FREE ENERGY PREDICTED BY IDOCK:   -2.90 KCAL/MOL
REMARK 922        TOTAL FREE ENERGY PREDICTED BY IDOCK:   -6.52 KCAL/MOL
REMARK 923 INTER-LIGAND FREE ENERGY PREDICTED BY IDOCK:   -5.77 KCAL/MOL
REMARK 924 INTRA-LIGAND FREE ENERGY PREDICTED BY IDOCK:   -0.75 KCAL/MOL
REMARK 927      BINDING AFFINITY PREDICTED BY RF-SCORE:    0.00 PKD
ROOT
HETATM    1  C   UNL     1     -12.042  16.152  72.252  1.00  0.00    -0.616 C  
HETATM    2  C   UNL     1     -12.305  14.741  71.756  1.00  0.00    -0.414 C  
ENDROOT
BRANCH   2   3
HETATM    3  C   UNL     1     -13.414  14.071  72.564  1.00  0.00    -0.661 C  
BRANCH   3   4
HETATM    4  C   UNL     1     -13.531  12.590  72.216  1.00  0.00    -0.490 C  
BRANCH   4   5
HETATM    5  C   UNL     1     -12.554  12.215  71.104  1.00  0.00    -0.360 C  
BRANCH   5   6
HETATM    6  C   UNL     1     -12.537  10.707  70.879  1.00  0.00    -0.503 C  
BRANCH   6   7
HETATM    7  C   UNL     1     -13.389   9.996  71.927  1.00  0.00    -0.516 C  
BRANCH   7   8
HETATM    8  C   UNL     1     -13.130   8.494  71.906  1.00  0.00    -0.391 C  
BRANCH   8   9
HETATM    9  C   UNL     1     -11.690   8.199  71.498  1.00  0.00    -0.325 C  
BRANCH   9  10
HETATM   10  C   UNL     1     -11.446   6.697  71.424  1.00  0.00    -0.349 C  
BRANCH  10  11
HETATM   11  C   UNL     1     -10.949   6.290  70.040  1.00  0.00    -0.422 C  
BRANCH  11  12
HETATM   12  C   UNL     1      -9.425   6.234  70.012  1.00  0.00    -0.167 C  
BRANCH  12  13
HETATM   13  C   UNL     1      -8.832   7.546  69.505  1.00  0.00    -0.137 C  
BRANCH  13  14
HETATM   14  C   UNL     1      -7.934   7.300  68.295  1.00  0.00    -0.124 C  
BRANCH  14  15
HETATM   15  C   UNL     1      -8.065   8.423  67.270  1.00  0.00    -0.105 C  
HETATM   16  C   UNL     1      -7.030   8.305  66.176  1.00  0.00    -0.062 C  
HETATM   17  O   UNL     1      -7.140   9.297  65.261  1.00  0.00    -0.086 OA 
HETATM   18  O   UNL     1      -6.180   7.433  66.095  1.00  0.00    -0.039 OA 
ENDBRANCH  14  15
ENDBRANCH  13  14
ENDBRANCH  12  13
ENDBRANCH  11  12
ENDBRANCH  10  11
ENDBRANCH   9  10
ENDBRANCH   8   9
ENDBRANCH   7   8
ENDBRANCH   6   7
ENDBRANCH   5   6
ENDBRANCH   4   5
ENDBRANCH   3   4
ENDBRANCH   2   3
TORSDOF 13
ENDMDL
MODEL      308
REMARK 921   NORMALIZED FREE ENERGY PREDICTED BY IDOCK:   -2.89 KCAL/MOL
REMARK 922        TOTAL FREE ENERGY PREDICTED BY IDOCK:   -6.50 KCAL/MOL
REMARK 923 INTER-LIGAND FREE ENERGY PREDICTED BY IDOCK:   -5.36 KCAL/MOL
REMARK 924 INTRA-LIGAND FREE ENERGY PREDICTED BY IDOCK:   -1.14 KCAL/MOL
REMARK 927      BINDING AFFINITY PREDICTED BY RF-SCORE:    0.00 PKD
ROOT
HETATM    1  C   UNL     1      -8.467   4.147  68.492  1.00  0.00    -0.105 C  
HETATM    2  C   UNL     1      -8.042   5.020  67.324  1.00  0.00    -0.107 C  
ENDROOT
BRANCH   2   3
HETATM    3  C   UNL     1      -9.246   5.448  66.489  1.00  0.00    -0.139 C  
BRANCH   3   4
HETATM    4  C   UNL     1      -9.295   6.965  66.331  1.00  0.00    -0.183 C  
BRANCH   4   5
HETATM    5  C   UNL     1     -10.492   7.549  67.076  1.00  0.00    -0.409 C  
BRANCH   5   6
HETATM    6  C   UNL     1     -10.114   7.925  68.505  1.00  0.00    -0.216 C  
BRANCH   6   7
HETATM    7  C   UNL     1      -9.656   9.378  68.577  1.00  0.00    -0.154 C  
BRANCH   7   8
HETATM    8  C   UNL     1     -10.367  10.223  67.527  1.00  0.00    -0.276 C  
BRANCH   8   9
HETATM    9  C   UNL     1     -10.440  11.682  67.966  1.00  0.00    -0.217 C  
BRANCH   9  10
HETATM   10  C   UNL     1     -11.819  12.264  67.679  1.00  0.00    -0.334 C  
BRANCH  10  11
HETATM   11  C   UNL     1     -11.717  13.501  66.792  1.00  0.00    -0.430 C  
BRANCH  11  12
HETATM   12  C   UNL     1     -12.652  13.382  65.593  1.00  0.00    -0.496 C  
BRANCH  12  13
HETATM   13  C   UNL     1     -12.000  13.930  64.326  1.00  0.00    -0.477 C  
BRANCH  13  14
HETATM   14  C   UNL     1     -11.824  12.824  63.289  1.00  0.00    -0.493 C  
BRANCH  14  15
HETATM   15  C   UNL     1     -11.403  11.511  63.944  1.00  0.00    -0.400 C  
HETATM   16  C   UNL     1      -9.954  11.188  63.665  1.00  0.00    -0.363 C  
HETATM   17  O   UNL     1      -9.570  10.026  64.244  1.00  0.00    -0.297 OA 
HETATM   18  O   UNL     1      -9.190  11.870  63.001  1.00  0.00    -0.261 OA 
ENDBRANCH  14  15
ENDBRANCH  13  14
ENDBRANCH  12  13
ENDBRANCH  11  12
ENDBRANCH  10  11
ENDBRANCH   9  10
ENDBRANCH   8   9
ENDBRANCH   7   8
ENDBRANCH   6   7
ENDBRANCH   5   6
ENDBRANCH   4   5
ENDBRANCH   3   4
ENDBRANCH   2   3
TORSDOF 13
ENDMDL
MODEL      309
REMARK 921   NORMALIZED FREE ENERGY PREDICTED BY IDOCK:   -2.88 KCAL/MOL
REMARK 922        TOTAL FREE ENERGY PREDICTED BY IDOCK:   -6.48 KCAL/MOL
REMARK 923 INTER-LIGAND FREE ENERGY PREDICTED BY IDOCK:   -5.96 KCAL/MOL
REMARK 924 INTRA-LIGAND FREE ENERGY PREDICTED BY IDOCK:   -0.53 KCAL/MOL
REMARK 927      BINDING AFFINITY PREDICTED BY RF-SCORE:    0.00 PKD
ROOT
HETATM    1  C   UNL     1     -11.148   2.538  73.693  1.00  0.00    -0.318 C  
HETATM    2  C   UNL     1     -10.499   3.845  73.268  1.00  0.00    -0.256 C  
ENDROOT
BRANCH   2   3
HETATM    3  C   UNL     1     -11.533   4.963  73.158  1.00  0.00    -0.362 C  
BRANCH   3   4
HETATM    4  C   UNL     1     -11.260   5.847  71.945  1.00  0.00    -0.323 C  
BRANCH   4   5
HETATM    5  C   UNL     1     -12.392   6.849  71.738  1.00  0.00    -0.401 C  
BRANCH   5   6
HETATM    6  C   UNL     1     -12.095   8.163  72.454  1.00  0.00    -0.406 C  
BRANCH   6   7
HETATM    7  C   UNL     1     -11.420   9.152  71.509  1.00  0.00    -0.437 C  
BRANCH   7   8
HETATM    8  C   UNL     1     -12.229  10.440  71.406  1.00  0.00    -0.461 C  
BRANCH   8   9
HETATM    9  C   UNL     1     -12.314  10.910  69.958  1.00  0.00    -0.385 C  
BRANCH   9  10
HETATM   10  C   UNL     1     -12.114  12.418  69.867  1.00  0.00    -0.317 C  
BRANCH  10  11
HETATM   11  C   UNL     1     -11.761  12.839  68.443  1.00  0.00    -0.380 C  
BRANCH  11  12
HETATM   12  C   UNL     1     -11.614  14.354  68.351  1.00  0.00    -0.351 C  
BRANCH  12  13
HETATM   13  C   UNL     1     -11.144  14.947  69.676  1.00  0.00    -0.298 C  
BRANCH  13  14
HETATM   14  C   UNL     1     -10.363  16.238  69.443  1.00  0.00    -0.278 C  
BRANCH  14  15
HETATM   15  C   UNL     1      -8.873  15.959  69.265  1.00  0.00    -0.249 C  
HETATM   16  C   UNL     1      -8.125  17.190  68.809  1.00  0.00    -0.252 C  
HETATM   17  O   UNL     1      -6.802  16.954  68.650  1.00  0.00    -0.164 OA 
HETATM   18  O   UNL     1      -8.623  18.285  68.599  1.00  0.00    -0.320 OA 
ENDBRANCH  14  15
ENDBRANCH  13  14
ENDBRANCH  12  13
ENDBRANCH  11  12
ENDBRANCH  10  11
ENDBRANCH   9  10
ENDBRANCH   8   9
ENDBRANCH   7   8
ENDBRANCH   6   7
ENDBRANCH   5   6
ENDBRANCH   4   5
ENDBRANCH   3   4
ENDBRANCH   2   3
TORSDOF 13
ENDMDL
MODEL      310
REMARK 921   NORMALIZED FREE ENERGY PREDICTED BY IDOCK:   -2.88 KCAL/MOL
REMARK 922        TOTAL FREE ENERGY PREDICTED BY IDOCK:   -6.48 KCAL/MOL
REMARK 923 INTER-LIGAND FREE ENERGY PREDICTED BY IDOCK:   -4.38 KCAL/MOL
REMARK 924 INTRA-LIGAND FREE ENERGY PREDICTED BY IDOCK:   -2.11 KCAL/MOL
REMARK 927      BINDING AFFINITY PREDICTED BY RF-SCORE:    0.00 PKD
ROOT
HETATM    1  C   UNL     1      -6.489  13.122  68.892  1.00  0.00    -0.097 C  
HETATM    2  C   UNL     1      -7.098  13.635  67.598  1.00  0.00    -0.179 C  
ENDROOT
BRANCH   2   3
HETATM    3  C   UNL     1      -8.457  14.283  67.848  1.00  0.00    -0.168 C  
BRANCH   3   4
HETATM    4  C   UNL     1      -8.913  15.089  66.635  1.00  0.00    -0.313 C  
BRANCH   4   5
HETATM    5  C   UNL     1     -10.009  16.079  67.023  1.00  0.00    -0.257 C  
BRANCH   5   6
HETATM    6  C   UNL     1     -11.224  15.353  67.589  1.00  0.00    -0.311 C  
BRANCH   6   7
HETATM    7  C   UNL     1     -11.728  14.298  66.609  1.00  0.00    -0.417 C  
BRANCH   7   8
HETATM    8  C   UNL     1     -11.952  12.966  67.315  1.00  0.00    -0.371 C  
BRANCH   8   9
HETATM    9  C   UNL     1     -11.908  13.142  68.829  1.00  0.00    -0.361 C  
BRANCH   9  10
HETATM   10  C   UNL     1     -11.525  11.836  69.514  1.00  0.00    -0.363 C  
BRANCH  10  11
HETATM   11  C   UNL     1     -10.906  10.858  68.520  1.00  0.00    -0.262 C  
BRANCH  11  12
HETATM   12  C   UNL     1      -9.455  10.564  68.886  1.00  0.00    -0.199 C  
BRANCH  12  13
HETATM   13  C   UNL     1      -8.636  10.200  67.650  1.00  0.00    -0.118 C  
BRANCH  13  14
HETATM   14  C   UNL     1      -9.288  10.758  66.387  1.00  0.00    -0.198 C  
BRANCH  14  15
HETATM   15  C   UNL     1      -9.551   9.655  65.366  1.00  0.00    -0.361 C  
HETATM   16  C   UNL     1      -8.409   9.519  64.385  1.00  0.00    -0.171 C  
HETATM   17  O   UNL     1      -8.632   8.541  63.476  1.00  0.00    -0.092 OA 
HETATM   18  O   UNL     1      -7.393  10.194  64.382  1.00  0.00    -0.138 OA 
ENDBRANCH  14  15
ENDBRANCH  13  14
ENDBRANCH  12  13
ENDBRANCH  11  12
ENDBRANCH  10  11
ENDBRANCH   9  10
ENDBRANCH   8   9
ENDBRANCH   7   8
ENDBRANCH   6   7
ENDBRANCH   5   6
ENDBRANCH   4   5
ENDBRANCH   3   4
ENDBRANCH   2   3
TORSDOF 13
ENDMDL
MODEL      311
REMARK 921   NORMALIZED FREE ENERGY PREDICTED BY IDOCK:   -2.88 KCAL/MOL
REMARK 922        TOTAL FREE ENERGY PREDICTED BY IDOCK:   -6.47 KCAL/MOL
REMARK 923 INTER-LIGAND FREE ENERGY PREDICTED BY IDOCK:   -5.48 KCAL/MOL
REMARK 924 INTRA-LIGAND FREE ENERGY PREDICTED BY IDOCK:   -0.99 KCAL/MOL
REMARK 927      BINDING AFFINITY PREDICTED BY RF-SCORE:    0.00 PKD
ROOT
HETATM    1  C   UNL     1      -7.577   5.242  72.910  1.00  0.00    -0.097 C  
HETATM    2  C   UNL     1      -8.732   5.344  73.891  1.00  0.00    -0.118 C  
ENDROOT
BRANCH   2   3
HETATM    3  C   UNL     1      -9.953   5.989  73.240  1.00  0.00    -0.189 C  
BRANCH   3   4
HETATM    4  C   UNL     1     -10.112   7.440  73.685  1.00  0.00    -0.376 C  
BRANCH   4   5
HETATM    5  C   UNL     1     -11.082   8.184  72.772  1.00  0.00    -0.407 C  
BRANCH   5   6
HETATM    6  C   UNL     1     -10.821   7.847  71.308  1.00  0.00    -0.263 C  
BRANCH   6   7
HETATM    7  C   UNL     1     -11.007   9.079  70.429  1.00  0.00    -0.283 C  
BRANCH   7   8
HETATM    8  C   UNL     1     -12.022  10.035  71.044  1.00  0.00    -0.469 C  
BRANCH   8   9
HETATM    9  C   UNL     1     -11.973  11.393  70.352  1.00  0.00    -0.465 C  
BRANCH   9  10
HETATM   10  C   UNL     1     -11.061  11.346  69.133  1.00  0.00    -0.317 C  
BRANCH  10  11
HETATM   11  C   UNL     1     -11.784  11.850  67.888  1.00  0.00    -0.368 C  
BRANCH  11  12
HETATM   12  C   UNL     1     -10.894  12.804  67.098  1.00  0.00    -0.282 C  
BRANCH  12  13
HETATM   13  C   UNL     1      -9.550  13.008  67.790  1.00  0.00    -0.208 C  
BRANCH  13  14
HETATM   14  C   UNL     1      -9.298  14.491  68.053  1.00  0.00    -0.201 C  
BRANCH  14  15
HETATM   15  C   UNL     1     -10.261  15.366  67.257  1.00  0.00    -0.254 C  
HETATM   16  C   UNL     1      -9.542  16.167  66.196  1.00  0.00    -0.327 C  
HETATM   17  O   UNL     1     -10.389  16.946  65.483  1.00  0.00    -0.572 OA 
HETATM   18  O   UNL     1      -8.341  16.141  65.981  1.00  0.00    -0.281 OA 
ENDBRANCH  14  15
ENDBRANCH  13  14
ENDBRANCH  12  13
ENDBRANCH  11  12
ENDBRANCH  10  11
ENDBRANCH   9  10
ENDBRANCH   8   9
ENDBRANCH   7   8
ENDBRANCH   6   7
ENDBRANCH   5   6
ENDBRANCH   4   5
ENDBRANCH   3   4
ENDBRANCH   2   3
TORSDOF 13
ENDMDL
MODEL      312
REMARK 921   NORMALIZED FREE ENERGY PREDICTED BY IDOCK:   -2.87 KCAL/MOL
REMARK 922        TOTAL FREE ENERGY PREDICTED BY IDOCK:   -6.47 KCAL/MOL
REMARK 923 INTER-LIGAND FREE ENERGY PREDICTED BY IDOCK:   -4.84 KCAL/MOL
REMARK 924 INTRA-LIGAND FREE ENERGY PREDICTED BY IDOCK:   -1.63 KCAL/MOL
REMARK 927      BINDING AFFINITY PREDICTED BY RF-SCORE:    0.00 PKD
ROOT
HETATM    1  C   UNL     1     -10.626  14.899  68.612  1.00  0.00    -0.251 C  
HETATM    2  C   UNL     1     -10.978  13.682  67.772  1.00  0.00    -0.276 C  
ENDROOT
BRANCH   2   3
HETATM    3  C   UNL     1     -11.834  12.697  68.563  1.00  0.00    -0.342 C  
BRANCH   3   4
HETATM    4  C   UNL     1     -11.153  11.335  68.666  1.00  0.00    -0.286 C  
BRANCH   4   5
HETATM    5  C   UNL     1     -11.066  10.880  70.120  1.00  0.00    -0.238 C  
BRANCH   5   6
HETATM    6  C   UNL     1     -12.390  11.105  70.842  1.00  0.00    -0.500 C  
BRANCH   6   7
HETATM    7  C   UNL     1     -12.845   9.829  71.544  1.00  0.00    -0.502 C  
BRANCH   7   8
HETATM    8  C   UNL     1     -11.832   8.708  71.341  1.00  0.00    -0.352 C  
BRANCH   8   9
HETATM    9  C   UNL     1     -12.521   7.348  71.354  1.00  0.00    -0.402 C  
BRANCH   9  10
HETATM   10  C   UNL     1     -11.870   6.403  70.351  1.00  0.00    -0.303 C  
BRANCH  10  11
HETATM   11  C   UNL     1     -10.739   7.098  69.599  1.00  0.00    -0.256 C  
BRANCH  11  12
HETATM   12  C   UNL     1      -9.529   6.177  69.476  1.00  0.00    -0.156 C  
BRANCH  12  13
HETATM   13  C   UNL     1      -8.229   6.974  69.426  1.00  0.00    -0.132 C  
BRANCH  13  14
HETATM   14  C   UNL     1      -8.509   8.470  69.551  1.00  0.00    -0.127 C  
BRANCH  14  15
HETATM   15  C   UNL     1      -7.675   9.099  70.664  1.00  0.00    -0.152 C  
HETATM   16  C   UNL     1      -6.922  10.315  70.178  1.00  0.00    -0.155 C  
HETATM   17  O   UNL     1      -6.180  10.881  71.159  1.00  0.00    -0.340 OA 
HETATM   18  O   UNL     1      -6.954  10.763  69.043  1.00  0.00    -0.068 OA 
ENDBRANCH  14  15
ENDBRANCH  13  14
ENDBRANCH  12  13
ENDBRANCH  11  12
ENDBRANCH  10  11
ENDBRANCH   9  10
ENDBRANCH   8   9
ENDBRANCH   7   8
ENDBRANCH   6   7
ENDBRANCH   5   6
ENDBRANCH   4   5
ENDBRANCH   3   4
ENDBRANCH   2   3
TORSDOF 13
ENDMDL
MODEL      313
REMARK 921   NORMALIZED FREE ENERGY PREDICTED BY IDOCK:   -2.86 KCAL/MOL
REMARK 922        TOTAL FREE ENERGY PREDICTED BY IDOCK:   -6.45 KCAL/MOL
REMARK 923 INTER-LIGAND FREE ENERGY PREDICTED BY IDOCK:   -5.60 KCAL/MOL
REMARK 924 INTRA-LIGAND FREE ENERGY PREDICTED BY IDOCK:   -0.84 KCAL/MOL
REMARK 927      BINDING AFFINITY PREDICTED BY RF-SCORE:    0.00 PKD
ROOT
HETATM    1  C   UNL     1      -9.902  19.672  67.018  1.00  0.00    -0.491 C  
HETATM    2  C   UNL     1      -9.435  18.428  67.754  1.00  0.00    -0.291 C  
ENDROOT
BRANCH   2   3
HETATM    3  C   UNL     1     -10.614  17.532  68.125  1.00  0.00    -0.366 C  
BRANCH   3   4
HETATM    4  C   UNL     1     -10.188  16.438  69.100  1.00  0.00    -0.280 C  
BRANCH   4   5
HETATM    5  C   UNL     1     -11.259  16.211  70.163  1.00  0.00    -0.374 C  
BRANCH   5   6
HETATM    6  C   UNL     1     -12.119  14.998  69.820  1.00  0.00    -0.354 C  
BRANCH   6   7
HETATM    7  C   UNL     1     -11.244  13.800  69.463  1.00  0.00    -0.221 C  
BRANCH   7   8
HETATM    8  C   UNL     1     -11.667  13.199  68.128  1.00  0.00    -0.391 C  
BRANCH   8   9
HETATM    9  C   UNL     1     -11.639  11.675  68.188  1.00  0.00    -0.389 C  
BRANCH   9  10
HETATM   10  C   UNL     1     -11.785  11.189  69.626  1.00  0.00    -0.410 C  
BRANCH  10  11
HETATM   11  C   UNL     1     -10.608  10.306  70.028  1.00  0.00    -0.321 C  
BRANCH  11  12
HETATM   12  C   UNL     1     -10.382   9.207  68.995  1.00  0.00    -0.229 C  
BRANCH  12  13
HETATM   13  C   UNL     1     -10.656   7.827  69.586  1.00  0.00    -0.242 C  
BRANCH  13  14
HETATM   14  C   UNL     1      -9.583   7.456  70.607  1.00  0.00    -0.171 C  
BRANCH  14  15
HETATM   15  C   UNL     1     -10.196   6.804  71.843  1.00  0.00    -0.206 C  
HETATM   16  C   UNL     1      -9.811   7.535  73.108  1.00  0.00    -0.262 C  
HETATM   17  O   UNL     1     -10.352   6.965  74.211  1.00  0.00    -0.346 OA 
HETATM   18  O   UNL     1      -9.100   8.524  73.167  1.00  0.00    -0.257 OA 
ENDBRANCH  14  15
ENDBRANCH  13  14
ENDBRANCH  12  13
ENDBRANCH  11  12
ENDBRANCH  10  11
ENDBRANCH   9  10
ENDBRANCH   8   9
ENDBRANCH   7   8
ENDBRANCH   6   7
ENDBRANCH   5   6
ENDBRANCH   4   5
ENDBRANCH   3   4
ENDBRANCH   2   3
TORSDOF 13
ENDMDL
MODEL      314
REMARK 921   NORMALIZED FREE ENERGY PREDICTED BY IDOCK:   -2.86 KCAL/MOL
REMARK 922        TOTAL FREE ENERGY PREDICTED BY IDOCK:   -6.44 KCAL/MOL
REMARK 923 INTER-LIGAND FREE ENERGY PREDICTED BY IDOCK:   -5.54 KCAL/MOL
REMARK 924 INTRA-LIGAND FREE ENERGY PREDICTED BY IDOCK:   -0.90 KCAL/MOL
REMARK 927      BINDING AFFINITY PREDICTED BY RF-SCORE:    0.00 PKD
ROOT
HETATM    1  C   UNL     1      -6.906  18.723  67.813  1.00  0.00    -0.225 C  
HETATM    2  C   UNL     1      -8.109  19.287  68.551  1.00  0.00    -0.401 C  
ENDROOT
BRANCH   2   3
HETATM    3  C   UNL     1      -9.365  19.224  67.685  1.00  0.00    -0.371 C  
BRANCH   3   4
HETATM    4  C   UNL     1      -9.280  18.084  66.674  1.00  0.00    -0.291 C  
BRANCH   4   5
HETATM    5  C   UNL     1     -10.385  17.060  66.916  1.00  0.00    -0.303 C  
BRANCH   5   6
HETATM    6  C   UNL     1      -9.799  15.673  67.160  1.00  0.00    -0.229 C  
BRANCH   6   7
HETATM    7  C   UNL     1      -9.915  14.811  65.907  1.00  0.00    -0.351 C  
BRANCH   7   8
HETATM    8  C   UNL     1     -11.181  15.154  65.129  1.00  0.00    -0.392 C  
BRANCH   8   9
HETATM    9  C   UNL     1     -11.597  13.990  64.235  1.00  0.00    -0.348 C  
BRANCH   9  10
HETATM   10  C   UNL     1     -10.512  12.920  64.202  1.00  0.00    -0.429 C  
BRANCH  10  11
HETATM   11  C   UNL     1     -11.123  11.526  64.089  1.00  0.00    -0.417 C  
BRANCH  11  12
HETATM   12  C   UNL     1     -10.202  10.483  64.713  1.00  0.00    -0.373 C  
BRANCH  12  13
HETATM   13  C   UNL     1     -10.405  10.398  66.223  1.00  0.00    -0.270 C  
BRANCH  13  14
HETATM   14  C   UNL     1      -9.464   9.363  66.837  1.00  0.00    -0.204 C  
BRANCH  14  15
HETATM   15  C   UNL     1     -10.095   8.696  68.055  1.00  0.00    -0.241 C  
HETATM   16  C   UNL     1     -10.595   7.306  67.734  1.00  0.00    -0.221 C  
HETATM   17  O   UNL     1     -11.155   6.705  68.810  1.00  0.00    -0.263 OA 
HETATM   18  O   UNL     1     -10.521   6.760  66.646  1.00  0.00    -0.214 OA 
ENDBRANCH  14  15
ENDBRANCH  13  14
ENDBRANCH  12  13
ENDBRANCH  11  12
ENDBRANCH  10  11
ENDBRANCH   9  10
ENDBRANCH   8   9
ENDBRANCH   7   8
ENDBRANCH   6   7
ENDBRANCH   5   6
ENDBRANCH   4   5
ENDBRANCH   3   4
ENDBRANCH   2   3
TORSDOF 13
ENDMDL
MODEL      315
REMARK 921   NORMALIZED FREE ENERGY PREDICTED BY IDOCK:   -2.86 KCAL/MOL
REMARK 922        TOTAL FREE ENERGY PREDICTED BY IDOCK:   -6.44 KCAL/MOL
REMARK 923 INTER-LIGAND FREE ENERGY PREDICTED BY IDOCK:   -5.21 KCAL/MOL
REMARK 924 INTRA-LIGAND FREE ENERGY PREDICTED BY IDOCK:   -1.24 KCAL/MOL
REMARK 927      BINDING AFFINITY PREDICTED BY RF-SCORE:    0.00 PKD
ROOT
HETATM    1  C   UNL     1      -8.941   2.730  67.253  1.00  0.00    -0.183 C  
HETATM    2  C   UNL     1      -9.040   3.636  66.038  1.00  0.00    -0.155 C  
ENDROOT
BRANCH   2   3
HETATM    3  C   UNL     1      -9.220   5.095  66.452  1.00  0.00    -0.141 C  
BRANCH   3   4
HETATM    4  C   UNL     1     -10.698   5.453  66.578  1.00  0.00    -0.309 C  
BRANCH   4   5
HETATM    5  C   UNL     1     -10.912   6.500  67.667  1.00  0.00    -0.426 C  
BRANCH   5   6
HETATM    6  C   UNL     1      -9.716   7.441  67.761  1.00  0.00    -0.171 C  
BRANCH   6   7
HETATM    7  C   UNL     1      -9.560   8.246  66.474  1.00  0.00    -0.312 C  
BRANCH   7   8
HETATM    8  C   UNL     1     -10.113   9.655  66.647  1.00  0.00    -0.307 C  
BRANCH   8   9
HETATM    9  C   UNL     1      -9.081  10.564  67.306  1.00  0.00    -0.152 C  
BRANCH   9  10
HETATM   10  C   UNL     1      -9.589  11.074  68.649  1.00  0.00    -0.198 C  
BRANCH  10  11
HETATM   11  C   UNL     1     -11.082  10.801  68.809  1.00  0.00    -0.312 C  
BRANCH  11  12
HETATM   12  C   UNL     1     -11.405  10.396  70.243  1.00  0.00    -0.406 C  
BRANCH  12  13
HETATM   13  C   UNL     1     -10.221   9.691  70.899  1.00  0.00    -0.303 C  
BRANCH  13  14
HETATM   14  C   UNL     1     -10.703   8.623  71.877  1.00  0.00    -0.414 C  
BRANCH  14  15
HETATM   15  C   UNL     1     -12.225   8.624  71.992  1.00  0.00    -0.439 C  
HETATM   16  C   UNL     1     -12.814   7.282  71.623  1.00  0.00    -0.375 C  
HETATM   17  O   UNL     1     -14.164   7.273  71.723  1.00  0.00    -0.413 OA 
HETATM   18  O   UNL     1     -12.179   6.302  71.270  1.00  0.00    -0.191 OA 
ENDBRANCH  14  15
ENDBRANCH  13  14
ENDBRANCH  12  13
ENDBRANCH  11  12
ENDBRANCH  10  11
ENDBRANCH   9  10
ENDBRANCH   8   9
ENDBRANCH   7   8
ENDBRANCH   6   7
ENDBRANCH   5   6
ENDBRANCH   4   5
ENDBRANCH   3   4
ENDBRANCH   2   3
TORSDOF 13
ENDMDL
MODEL      316
REMARK 921   NORMALIZED FREE ENERGY PREDICTED BY IDOCK:   -2.86 KCAL/MOL
REMARK 922        TOTAL FREE ENERGY PREDICTED BY IDOCK:   -6.44 KCAL/MOL
REMARK 923 INTER-LIGAND FREE ENERGY PREDICTED BY IDOCK:   -5.51 KCAL/MOL
REMARK 924 INTRA-LIGAND FREE ENERGY PREDICTED BY IDOCK:   -0.94 KCAL/MOL
REMARK 927      BINDING AFFINITY PREDICTED BY RF-SCORE:    0.00 PKD
ROOT
HETATM    1  C   UNL     1     -11.469  15.574  71.942  1.00  0.00    -0.506 C  
HETATM    2  C   UNL     1     -11.838  14.174  71.484  1.00  0.00     0.017 C  
ENDROOT
BRANCH   2   3
HETATM    3  C   UNL     1     -13.056  13.651  72.241  1.00  0.00    -0.491 C  
BRANCH   3   4
HETATM    4  C   UNL     1     -13.269  12.162  71.979  1.00  0.00    -0.496 C  
BRANCH   4   5
HETATM    5  C   UNL     1     -12.177  11.611  71.066  1.00  0.00    -0.336 C  
BRANCH   5   6
HETATM    6  C   UNL     1     -12.283  10.094  70.944  1.00  0.00    -0.455 C  
BRANCH   6   7
HETATM    7  C   UNL     1     -13.445   9.566  71.780  1.00  0.00    -0.480 C  
BRANCH   7   8
HETATM    8  C   UNL     1     -13.315   8.063  71.998  1.00  0.00    -0.276 C  
BRANCH   8   9
HETATM    9  C   UNL     1     -11.852   7.664  72.156  1.00  0.00    -0.352 C  
BRANCH   9  10
HETATM   10  C   UNL     1     -11.724   6.164  72.397  1.00  0.00    -0.319 C  
BRANCH  10  11
HETATM   11  C   UNL     1     -10.732   5.536  71.423  1.00  0.00    -0.290 C  
BRANCH  11  12
HETATM   12  C   UNL     1     -10.246   6.568  70.410  1.00  0.00    -0.227 C  
BRANCH  12  13
HETATM   13  C   UNL     1     -10.950   6.398  69.066  1.00  0.00    -0.410 C  
BRANCH  13  14
HETATM   14  C   UNL     1      -9.933   6.163  67.951  1.00  0.00    -0.149 C  
BRANCH  14  15
HETATM   15  C   UNL     1     -10.423   5.104  66.968  1.00  0.00    -0.256 C  
HETATM   16  C   UNL     1      -9.499   4.974  65.780  1.00  0.00    -0.157 C  
HETATM   17  O   UNL     1      -9.924   4.035  64.903  1.00  0.00    -0.188 OA 
HETATM   18  O   UNL     1      -8.482   5.623  65.599  1.00  0.00    -0.135 OA 
ENDBRANCH  14  15
ENDBRANCH  13  14
ENDBRANCH  12  13
ENDBRANCH  11  12
ENDBRANCH  10  11
ENDBRANCH   9  10
ENDBRANCH   8   9
ENDBRANCH   7   8
ENDBRANCH   6   7
ENDBRANCH   5   6
ENDBRANCH   4   5
ENDBRANCH   3   4
ENDBRANCH   2   3
TORSDOF 13
ENDMDL
MODEL      317
REMARK 921   NORMALIZED FREE ENERGY PREDICTED BY IDOCK:   -2.85 KCAL/MOL
REMARK 922        TOTAL FREE ENERGY PREDICTED BY IDOCK:   -6.43 KCAL/MOL
REMARK 923 INTER-LIGAND FREE ENERGY PREDICTED BY IDOCK:   -4.49 KCAL/MOL
REMARK 924 INTRA-LIGAND FREE ENERGY PREDICTED BY IDOCK:   -1.94 KCAL/MOL
REMARK 927      BINDING AFFINITY PREDICTED BY RF-SCORE:    0.00 PKD
ROOT
HETATM    1  C   UNL     1     -12.145  11.017  70.726  1.00  0.00    -0.467 C  
HETATM    2  C   UNL     1     -11.936  11.322  69.252  1.00  0.00    -0.411 C  
ENDROOT
BRANCH   2   3
HETATM    3  C   UNL     1     -10.757  10.533  68.689  1.00  0.00    -0.247 C  
BRANCH   3   4
HETATM    4  C   UNL     1      -9.809  10.090  69.800  1.00  0.00    -0.270 C  
BRANCH   4   5
HETATM    5  C   UNL     1      -8.355  10.288  69.384  1.00  0.00    -0.169 C  
BRANCH   5   6
HETATM    6  C   UNL     1      -7.633   8.949  69.267  1.00  0.00    -0.082 C  
BRANCH   6   7
HETATM    7  C   UNL     1      -7.449   8.563  67.803  1.00  0.00    -0.097 C  
BRANCH   7   8
HETATM    8  C   UNL     1      -8.188   7.268  67.488  1.00  0.00    -0.113 C  
BRANCH   8   9
HETATM    9  C   UNL     1      -9.266   7.504  66.435  1.00  0.00    -0.212 C  
BRANCH   9  10
HETATM   10  C   UNL     1     -10.644   7.580  67.081  1.00  0.00    -0.415 C  
BRANCH  10  11
HETATM   11  C   UNL     1     -10.980   6.281  67.807  1.00  0.00    -0.427 C  
BRANCH  11  12
HETATM   12  C   UNL     1     -10.531   6.347  69.263  1.00  0.00    -0.277 C  
BRANCH  12  13
HETATM   13  C   UNL     1     -11.618   6.945  70.152  1.00  0.00    -0.340 C  
BRANCH  13  14
HETATM   14  C   UNL     1     -11.124   7.082  71.590  1.00  0.00    -0.264 C  
BRANCH  14  15
HETATM   15  C   UNL     1      -9.715   6.519  71.748  1.00  0.00    -0.168 C  
HETATM   16  C   UNL     1      -8.798   7.498  72.444  1.00  0.00    -0.127 C  
HETATM   17  O   UNL     1      -7.545   7.007  72.590  1.00  0.00    -0.088 OA 
HETATM   18  O   UNL     1      -9.114   8.608  72.840  1.00  0.00    -0.314 OA 
ENDBRANCH  14  15
ENDBRANCH  13  14
ENDBRANCH  12  13
ENDBRANCH  11  12
ENDBRANCH  10  11
ENDBRANCH   9  10
ENDBRANCH   8   9
ENDBRANCH   7   8
ENDBRANCH   6   7
ENDBRANCH   5   6
ENDBRANCH   4   5
ENDBRANCH   3   4
ENDBRANCH   2   3
TORSDOF 13
ENDMDL
MODEL      318
REMARK 921   NORMALIZED FREE ENERGY PREDICTED BY IDOCK:   -2.85 KCAL/MOL
REMARK 922        TOTAL FREE ENERGY PREDICTED BY IDOCK:   -6.43 KCAL/MOL
REMARK 923 INTER-LIGAND FREE ENERGY PREDICTED BY IDOCK:   -5.48 KCAL/MOL
REMARK 924 INTRA-LIGAND FREE ENERGY PREDICTED BY IDOCK:   -0.95 KCAL/MOL
REMARK 927      BINDING AFFINITY PREDICTED BY RF-SCORE:    0.00 PKD
ROOT
HETATM    1  C   UNL     1     -11.824  10.907  68.849  1.00  0.00    -0.340 C  
HETATM    2  C   UNL     1     -10.329  11.153  68.735  1.00  0.00    -0.222 C  
ENDROOT
BRANCH   2   3
HETATM    3  C   UNL     1      -9.596   9.892  68.285  1.00  0.00    -0.151 C  
BRANCH   3   4
HETATM    4  C   UNL     1      -9.394   9.883  66.772  1.00  0.00    -0.187 C  
BRANCH   4   5
HETATM    5  C   UNL     1      -9.484  11.297  66.205  1.00  0.00    -0.232 C  
BRANCH   5   6
HETATM    6  C   UNL     1     -10.560  11.385  65.128  1.00  0.00    -0.352 C  
BRANCH   6   7
HETATM    7  C   UNL     1     -10.945  12.838  64.868  1.00  0.00    -0.324 C  
BRANCH   7   8
HETATM    8  C   UNL     1     -10.974  13.632  66.168  1.00  0.00    -0.285 C  
BRANCH   8   9
HETATM    9  C   UNL     1      -9.860  14.673  66.190  1.00  0.00    -0.334 C  
BRANCH   9  10
HETATM   10  C   UNL     1     -10.379  16.008  66.711  1.00  0.00    -0.300 C  
BRANCH  10  11
HETATM   11  C   UNL     1     -10.066  17.137  65.734  1.00  0.00    -0.192 C  
BRANCH  11  12
HETATM   12  C   UNL     1     -10.657  18.454  66.225  1.00  0.00    -0.343 C  
BRANCH  12  13
HETATM   13  C   UNL     1     -10.585  18.560  67.746  1.00  0.00    -0.422 C  
BRANCH  13  14
HETATM   14  C   UNL     1      -9.906  19.862  68.164  1.00  0.00    -0.524 C  
BRANCH  14  15
HETATM   15  C   UNL     1      -8.760  20.217  67.222  1.00  0.00    -0.441 C  
HETATM   16  C   UNL     1      -7.414  19.962  67.860  1.00  0.00    -0.293 C  
HETATM   17  O   UNL     1      -6.390  20.272  67.030  1.00  0.00    -0.188 OA 
HETATM   18  O   UNL     1      -7.233  19.529  68.986  1.00  0.00    -0.348 OA 
ENDBRANCH  14  15
ENDBRANCH  13  14
ENDBRANCH  12  13
ENDBRANCH  11  12
ENDBRANCH  10  11
ENDBRANCH   9  10
ENDBRANCH   8   9
ENDBRANCH   7   8
ENDBRANCH   6   7
ENDBRANCH   5   6
ENDBRANCH   4   5
ENDBRANCH   3   4
ENDBRANCH   2   3
TORSDOF 13
ENDMDL
MODEL      319
REMARK 921   NORMALIZED FREE ENERGY PREDICTED BY IDOCK:   -2.85 KCAL/MOL
REMARK 922        TOTAL FREE ENERGY PREDICTED BY IDOCK:   -6.42 KCAL/MOL
REMARK 923 INTER-LIGAND FREE ENERGY PREDICTED BY IDOCK:   -4.99 KCAL/MOL
REMARK 924 INTRA-LIGAND FREE ENERGY PREDICTED BY IDOCK:   -1.43 KCAL/MOL
REMARK 927      BINDING AFFINITY PREDICTED BY RF-SCORE:    0.00 PKD
ROOT
HETATM    1  C   UNL     1     -10.679  12.895  64.544  1.00  0.00    -0.392 C  
HETATM    2  C   UNL     1     -10.964  11.573  63.852  1.00  0.00    -0.474 C  
ENDROOT
BRANCH   2   3
HETATM    3  C   UNL     1      -9.913  10.525  64.211  1.00  0.00    -0.398 C  
BRANCH   3   4
HETATM    4  C   UNL     1      -9.719  10.434  65.722  1.00  0.00    -0.285 C  
BRANCH   4   5
HETATM    5  C   UNL     1      -8.599   9.458  66.068  1.00  0.00    -0.154 C  
BRANCH   5   6
HETATM    6  C   UNL     1      -9.072   8.014  65.931  1.00  0.00    -0.159 C  
BRANCH   6   7
HETATM    7  C   UNL     1      -9.808   7.567  67.190  1.00  0.00    -0.263 C  
BRANCH   7   8
HETATM    8  C   UNL     1      -9.322   6.195  67.643  1.00  0.00    -0.112 C  
BRANCH   8   9
HETATM    9  C   UNL     1      -9.946   5.814  68.981  1.00  0.00    -0.222 C  
BRANCH   9  10
HETATM   10  C   UNL     1     -11.409   6.242  69.035  1.00  0.00    -0.319 C  
BRANCH  10  11
HETATM   11  C   UNL     1     -11.870   6.433  70.477  1.00  0.00    -0.316 C  
BRANCH  11  12
HETATM   12  C   UNL     1     -10.846   5.858  71.450  1.00  0.00    -0.332 C  
BRANCH  12  13
HETATM   13  C   UNL     1     -10.440   6.889  72.499  1.00  0.00    -0.241 C  
BRANCH  13  14
HETATM   14  C   UNL     1     -10.579   8.305  71.945  1.00  0.00    -0.350 C  
BRANCH  14  15
HETATM   15  C   UNL     1      -9.266   8.795  71.339  1.00  0.00    -0.325 C  
HETATM   16  C   UNL     1      -9.502   9.702  70.155  1.00  0.00    -0.253 C  
HETATM   17  O   UNL     1      -8.343  10.143  69.611  1.00  0.00    -0.168 OA 
HETATM   18  O   UNL     1     -10.594  10.021  69.712  1.00  0.00    -0.229 OA 
ENDBRANCH  14  15
ENDBRANCH  13  14
ENDBRANCH  12  13
ENDBRANCH  11  12
ENDBRANCH  10  11
ENDBRANCH   9  10
ENDBRANCH   8   9
ENDBRANCH   7   8
ENDBRANCH   6   7
ENDBRANCH   5   6
ENDBRANCH   4   5
ENDBRANCH   3   4
ENDBRANCH   2   3
TORSDOF 13
ENDMDL
MODEL      320
REMARK 921   NORMALIZED FREE ENERGY PREDICTED BY IDOCK:   -2.84 KCAL/MOL
REMARK 922        TOTAL FREE ENERGY PREDICTED BY IDOCK:   -6.40 KCAL/MOL
REMARK 923 INTER-LIGAND FREE ENERGY PREDICTED BY IDOCK:   -4.64 KCAL/MOL
REMARK 924 INTRA-LIGAND FREE ENERGY PREDICTED BY IDOCK:   -1.76 KCAL/MOL
REMARK 927      BINDING AFFINITY PREDICTED BY RF-SCORE:    0.00 PKD
ROOT
HETATM    1  C   UNL     1      -8.415  12.250  67.310  1.00  0.00    -0.181 C  
HETATM    2  C   UNL     1      -7.716  11.109  66.590  1.00  0.00    -0.155 C  
ENDROOT
BRANCH   2   3
HETATM    3  C   UNL     1      -8.707  10.285  65.771  1.00  0.00    -0.169 C  
BRANCH   3   4
HETATM    4  C   UNL     1      -8.439   8.791  65.924  1.00  0.00    -0.154 C  
BRANCH   4   5
HETATM    5  C   UNL     1      -9.029   8.264  67.229  1.00  0.00    -0.149 C  
BRANCH   5   6
HETATM    6  C   UNL     1     -10.450   8.780  67.432  1.00  0.00    -0.349 C  
BRANCH   6   7
HETATM    7  C   UNL     1     -10.564   9.541  68.749  1.00  0.00    -0.240 C  
BRANCH   7   8
HETATM    8  C   UNL     1     -11.591  10.663  68.639  1.00  0.00    -0.297 C  
BRANCH   8   9
HETATM    9  C   UNL     1     -11.569  11.540  69.886  1.00  0.00    -0.387 C  
BRANCH   9  10
HETATM   10  C   UNL     1     -11.564  13.016  69.508  1.00  0.00    -0.342 C  
BRANCH  10  11
HETATM   11  C   UNL     1     -11.857  13.202  68.022  1.00  0.00    -0.398 C  
BRANCH  11  12
HETATM   12  C   UNL     1     -11.905  14.683  67.664  1.00  0.00    -0.366 C  
BRANCH  12  13
HETATM   13  C   UNL     1     -11.951  15.554  68.917  1.00  0.00    -0.306 C  
BRANCH  13  14
HETATM   14  C   UNL     1     -10.865  16.626  68.868  1.00  0.00    -0.321 C  
BRANCH  14  15
HETATM   15  C   UNL     1      -9.920  16.404  67.691  1.00  0.00    -0.252 C  
HETATM   16  C   UNL     1      -8.553  15.952  68.150  1.00  0.00    -0.169 C  
HETATM   17  O   UNL     1      -7.707  15.751  67.112  1.00  0.00    -0.178 OA 
HETATM   18  O   UNL     1      -8.215  15.779  69.309  1.00  0.00    -0.228 OA 
ENDBRANCH  14  15
ENDBRANCH  13  14
ENDBRANCH  12  13
ENDBRANCH  11  12
ENDBRANCH  10  11
ENDBRANCH   9  10
ENDBRANCH   8   9
ENDBRANCH   7   8
ENDBRANCH   6   7
ENDBRANCH   5   6
ENDBRANCH   4   5
ENDBRANCH   3   4
ENDBRANCH   2   3
TORSDOF 13
ENDMDL
MODEL      321
REMARK 921   NORMALIZED FREE ENERGY PREDICTED BY IDOCK:   -2.84 KCAL/MOL
REMARK 922        TOTAL FREE ENERGY PREDICTED BY IDOCK:   -6.40 KCAL/MOL
REMARK 923 INTER-LIGAND FREE ENERGY PREDICTED BY IDOCK:   -4.55 KCAL/MOL
REMARK 924 INTRA-LIGAND FREE ENERGY PREDICTED BY IDOCK:   -1.85 KCAL/MOL
REMARK 927      BINDING AFFINITY PREDICTED BY RF-SCORE:    0.00 PKD
ROOT
HETATM    1  C   UNL     1      -8.636   4.844  69.011  1.00  0.00    -0.093 C  
HETATM    2  C   UNL     1      -9.861   4.869  69.909  1.00  0.00    -0.295 C  
ENDROOT
BRANCH   2   3
HETATM    3  C   UNL     1     -10.840   5.957  69.474  1.00  0.00    -0.442 C  
BRANCH   3   4
HETATM    4  C   UNL     1     -10.345   7.340  69.889  1.00  0.00    -0.226 C  
BRANCH   4   5
HETATM    5  C   UNL     1     -10.298   8.282  68.689  1.00  0.00    -0.225 C  
BRANCH   5   6
HETATM    6  C   UNL     1     -10.507   7.516  67.386  1.00  0.00    -0.367 C  
BRANCH   6   7
HETATM    7  C   UNL     1      -9.445   7.897  66.360  1.00  0.00    -0.258 C  
BRANCH   7   8
HETATM    8  C   UNL     1      -8.050   7.822  66.970  1.00  0.00    -0.117 C  
BRANCH   8   9
HETATM    9  C   UNL     1      -7.287   9.121  66.733  1.00  0.00    -0.086 C  
BRANCH   9  10
HETATM   10  C   UNL     1      -8.212  10.199  66.182  1.00  0.00    -0.125 C  
BRANCH  10  11
HETATM   11  C   UNL     1      -8.472  11.282  67.224  1.00  0.00    -0.144 C  
BRANCH  11  12
HETATM   12  C   UNL     1      -9.951  11.654  67.256  1.00  0.00    -0.210 C  
BRANCH  12  13
HETATM   13  C   UNL     1     -10.395  12.033  68.666  1.00  0.00    -0.211 C  
BRANCH  13  14
HETATM   14  C   UNL     1     -11.874  11.709  68.871  1.00  0.00    -0.392 C  
BRANCH  14  15
HETATM   15  C   UNL     1     -12.205  11.549  70.352  1.00  0.00    -0.442 C  
HETATM   16  C   UNL     1     -12.631  12.859  70.973  1.00  0.00    -0.287 C  
HETATM   17  O   UNL     1     -12.929  12.727  72.288  1.00  0.00    -0.319 OA 
HETATM   18  O   UNL     1     -12.707  13.929  70.391  1.00  0.00    -0.305 OA 
ENDBRANCH  14  15
ENDBRANCH  13  14
ENDBRANCH  12  13
ENDBRANCH  11  12
ENDBRANCH  10  11
ENDBRANCH   9  10
ENDBRANCH   8   9
ENDBRANCH   7   8
ENDBRANCH   6   7
ENDBRANCH   5   6
ENDBRANCH   4   5
ENDBRANCH   3   4
ENDBRANCH   2   3
TORSDOF 13
ENDMDL
MODEL      322
REMARK 921   NORMALIZED FREE ENERGY PREDICTED BY IDOCK:   -2.82 KCAL/MOL
REMARK 922        TOTAL FREE ENERGY PREDICTED BY IDOCK:   -6.38 KCAL/MOL
REMARK 923 INTER-LIGAND FREE ENERGY PREDICTED BY IDOCK:   -5.04 KCAL/MOL
REMARK 924 INTRA-LIGAND FREE ENERGY PREDICTED BY IDOCK:   -1.34 KCAL/MOL
REMARK 927      BINDING AFFINITY PREDICTED BY RF-SCORE:    0.00 PKD
ROOT
HETATM    1  C   UNL     1      -9.787   8.085  72.841  1.00  0.00    -0.357 C  
HETATM    2  C   UNL     1      -9.604   7.173  71.640  1.00  0.00    -0.163 C  
ENDROOT
BRANCH   2   3
HETATM    3  C   UNL     1     -10.859   7.149  70.771  1.00  0.00    -0.267 C  
BRANCH   3   4
HETATM    4  C   UNL     1     -10.850   5.950  69.826  1.00  0.00    -0.447 C  
BRANCH   4   5
HETATM    5  C   UNL     1     -11.272   6.366  68.419  1.00  0.00    -0.297 C  
BRANCH   5   6
HETATM    6  C   UNL     1     -10.075   6.865  67.616  1.00  0.00    -0.204 C  
BRANCH   6   7
HETATM    7  C   UNL     1     -10.225   8.347  67.288  1.00  0.00    -0.349 C  
BRANCH   7   8
HETATM    8  C   UNL     1      -9.193   9.176  68.043  1.00  0.00    -0.142 C  
BRANCH   8   9
HETATM    9  C   UNL     1      -9.877  10.159  68.988  1.00  0.00    -0.211 C  
BRANCH   9  10
HETATM   10  C   UNL     1     -11.195  10.646  68.399  1.00  0.00    -0.347 C  
BRANCH  10  11
HETATM   11  C   UNL     1     -10.987  11.897  67.551  1.00  0.00    -0.299 C  
BRANCH  11  12
HETATM   12  C   UNL     1     -12.001  12.974  67.923  1.00  0.00    -0.338 C  
BRANCH  12  13
HETATM   13  C   UNL     1     -11.565  13.738  69.170  1.00  0.00    -0.363 C  
BRANCH  13  14
HETATM   14  C   UNL     1     -11.450  15.231  68.875  1.00  0.00    -0.346 C  
BRANCH  14  15
HETATM   15  C   UNL     1     -10.221  15.836  69.549  1.00  0.00    -0.271 C  
HETATM   16  C   UNL     1      -9.044  15.906  68.604  1.00  0.00    -0.206 C  
HETATM   17  O   UNL     1      -7.949  16.442  69.193  1.00  0.00    -0.239 OA 
HETATM   18  O   UNL     1      -9.044  15.532  67.443  1.00  0.00    -0.192 OA 
ENDBRANCH  14  15
ENDBRANCH  13  14
ENDBRANCH  12  13
ENDBRANCH  11  12
ENDBRANCH  10  11
ENDBRANCH   9  10
ENDBRANCH   8   9
ENDBRANCH   7   8
ENDBRANCH   6   7
ENDBRANCH   5   6
ENDBRANCH   4   5
ENDBRANCH   3   4
ENDBRANCH   2   3
TORSDOF 13
ENDMDL
MODEL      323
REMARK 921   NORMALIZED FREE ENERGY PREDICTED BY IDOCK:   -2.82 KCAL/MOL
REMARK 922        TOTAL FREE ENERGY PREDICTED BY IDOCK:   -6.38 KCAL/MOL
REMARK 923 INTER-LIGAND FREE ENERGY PREDICTED BY IDOCK:   -5.27 KCAL/MOL
REMARK 924 INTRA-LIGAND FREE ENERGY PREDICTED BY IDOCK:   -1.11 KCAL/MOL
REMARK 927      BINDING AFFINITY PREDICTED BY RF-SCORE:    0.00 PKD
ROOT
HETATM    1  C   UNL     1      -6.185  14.188  70.422  1.00  0.00    -0.149 C  
HETATM    2  C   UNL     1      -6.412  14.176  68.920  1.00  0.00    -0.094 C  
ENDROOT
BRANCH   2   3
HETATM    3  C   UNL     1      -7.901  14.208  68.587  1.00  0.00    -0.137 C  
BRANCH   3   4
HETATM    4  C   UNL     1      -8.175  13.572  67.227  1.00  0.00    -0.164 C  
BRANCH   4   5
HETATM    5  C   UNL     1      -9.400  14.201  66.570  1.00  0.00    -0.285 C  
BRANCH   5   6
HETATM    6  C   UNL     1     -10.655  13.943  67.397  1.00  0.00    -0.267 C  
BRANCH   6   7
HETATM    7  C   UNL     1     -11.243  12.574  67.073  1.00  0.00    -0.353 C  
BRANCH   7   8
HETATM    8  C   UNL     1     -11.836  11.929  68.320  1.00  0.00    -0.343 C  
BRANCH   8   9
HETATM    9  C   UNL     1     -11.767  12.885  69.507  1.00  0.00    -0.387 C  
BRANCH   9  10
HETATM   10  C   UNL     1     -12.307  12.220  70.768  1.00  0.00    -0.383 C  
BRANCH  10  11
HETATM   11  C   UNL     1     -12.371  10.705  70.603  1.00  0.00    -0.462 C  
BRANCH  11  12
HETATM   12  C   UNL     1     -13.286  10.087  71.655  1.00  0.00    -0.518 C  
BRANCH  12  13
HETATM   13  C   UNL     1     -12.699   8.791  72.207  1.00  0.00    -0.466 C  
BRANCH  13  14
HETATM   14  C   UNL     1     -11.174   8.808  72.117  1.00  0.00    -0.408 C  
BRANCH  14  15
HETATM   15  C   UNL     1     -10.606   7.393  72.065  1.00  0.00    -0.241 C  
HETATM   16  C   UNL     1     -10.358   6.943  70.643  1.00  0.00    -0.200 C  
HETATM   17  O   UNL     1      -9.853   5.689  70.587  1.00  0.00    -0.172 OA 
HETATM   18  O   UNL     1     -10.577   7.605  69.642  1.00  0.00    -0.238 OA 
ENDBRANCH  14  15
ENDBRANCH  13  14
ENDBRANCH  12  13
ENDBRANCH  11  12
ENDBRANCH  10  11
ENDBRANCH   9  10
ENDBRANCH   8   9
ENDBRANCH   7   8
ENDBRANCH   6   7
ENDBRANCH   5   6
ENDBRANCH   4   5
ENDBRANCH   3   4
ENDBRANCH   2   3
TORSDOF 13
ENDMDL
MODEL      324
REMARK 921   NORMALIZED FREE ENERGY PREDICTED BY IDOCK:   -2.82 KCAL/MOL
REMARK 922        TOTAL FREE ENERGY PREDICTED BY IDOCK:   -6.37 KCAL/MOL
REMARK 923 INTER-LIGAND FREE ENERGY PREDICTED BY IDOCK:   -5.30 KCAL/MOL
REMARK 924 INTRA-LIGAND FREE ENERGY PREDICTED BY IDOCK:   -1.08 KCAL/MOL
REMARK 927      BINDING AFFINITY PREDICTED BY RF-SCORE:    0.00 PKD
ROOT
HETATM    1  C   UNL     1      -6.386   7.574  73.872  1.00  0.00    -0.077 C  
HETATM    2  C   UNL     1      -7.575   8.209  73.172  1.00  0.00    -0.197 C  
ENDROOT
BRANCH   2   3
HETATM    3  C   UNL     1      -8.885   7.829  73.857  1.00  0.00    -0.329 C  
BRANCH   3   4
HETATM    4  C   UNL     1     -10.032   7.762  72.853  1.00  0.00    -0.341 C  
BRANCH   4   5
HETATM    5  C   UNL     1      -9.853   8.807  71.755  1.00  0.00    -0.391 C  
BRANCH   5   6
HETATM    6  C   UNL     1     -11.201   9.224  71.175  1.00  0.00    -0.413 C  
BRANCH   6   7
HETATM    7  C   UNL     1     -11.015  10.252  70.063  1.00  0.00    -0.371 C  
BRANCH   7   8
HETATM    8  C   UNL     1     -12.276  11.090  69.884  1.00  0.00    -0.408 C  
BRANCH   8   9
HETATM    9  C   UNL     1     -11.954  12.577  69.983  1.00  0.00    -0.372 C  
BRANCH   9  10
HETATM   10  C   UNL     1     -10.957  12.987  68.906  1.00  0.00    -0.271 C  
BRANCH  10  11
HETATM   11  C   UNL     1     -11.609  12.984  67.526  1.00  0.00    -0.405 C  
BRANCH  11  12
HETATM   12  C   UNL     1     -10.554  13.092  66.431  1.00  0.00    -0.294 C  
BRANCH  12  13
HETATM   13  C   UNL     1     -10.582  11.873  65.514  1.00  0.00    -0.313 C  
BRANCH  13  14
HETATM   14  C   UNL     1     -10.605  10.583  66.331  1.00  0.00    -0.218 C  
BRANCH  14  15
HETATM   15  C   UNL     1      -9.288   9.822  66.201  1.00  0.00    -0.243 C  
HETATM   16  C   UNL     1      -9.448   8.364  66.566  1.00  0.00    -0.220 C  
HETATM   17  O   UNL     1      -8.285   7.680  66.453  1.00  0.00    -0.114 OA 
HETATM   18  O   UNL     1     -10.486   7.833  66.926  1.00  0.00    -0.319 OA 
ENDBRANCH  14  15
ENDBRANCH  13  14
ENDBRANCH  12  13
ENDBRANCH  11  12
ENDBRANCH  10  11
ENDBRANCH   9  10
ENDBRANCH   8   9
ENDBRANCH   7   8
ENDBRANCH   6   7
ENDBRANCH   5   6
ENDBRANCH   4   5
ENDBRANCH   3   4
ENDBRANCH   2   3
TORSDOF 13
ENDMDL
MODEL      325
REMARK 921   NORMALIZED FREE ENERGY PREDICTED BY IDOCK:   -2.80 KCAL/MOL
REMARK 922        TOTAL FREE ENERGY PREDICTED BY IDOCK:   -6.34 KCAL/MOL
REMARK 923 INTER-LIGAND FREE ENERGY PREDICTED BY IDOCK:   -5.21 KCAL/MOL
REMARK 924 INTRA-LIGAND FREE ENERGY PREDICTED BY IDOCK:   -1.13 KCAL/MOL
REMARK 927      BINDING AFFINITY PREDICTED BY RF-SCORE:    0.00 PKD
ROOT
HETATM    1  C   UNL     1     -14.398   7.290  71.478  1.00  0.00    -0.558 C  
HETATM    2  C   UNL     1     -14.272   8.578  72.273  1.00  0.00    -0.471 C  
ENDROOT
BRANCH   2   3
HETATM    3  C   UNL     1     -12.974   9.308  71.936  1.00  0.00    -0.489 C  
BRANCH   3   4
HETATM    4  C   UNL     1     -13.132  10.817  72.103  1.00  0.00    -0.350 C  
BRANCH   4   5
HETATM    5  C   UNL     1     -12.388  11.566  71.001  1.00  0.00    -0.434 C  
BRANCH   5   6
HETATM    6  C   UNL     1     -11.565  10.605  70.149  1.00  0.00    -0.414 C  
BRANCH   6   7
HETATM    7  C   UNL     1     -11.745  10.910  68.666  1.00  0.00    -0.334 C  
BRANCH   7   8
HETATM    8  C   UNL     1     -11.232   9.759  67.809  1.00  0.00    -0.006 C  
BRANCH   8   9
HETATM    9  C   UNL     1      -9.902  10.121  67.156  1.00  0.00    -0.231 C  
BRANCH   9  10
HETATM   10  C   UNL     1      -9.620   9.213  65.965  1.00  0.00    -0.342 C  
BRANCH  10  11
HETATM   11  C   UNL     1      -8.260   8.535  66.104  1.00  0.00    -0.115 C  
BRANCH  11  12
HETATM   12  C   UNL     1      -8.318   7.103  65.584  1.00  0.00    -0.138 C  
BRANCH  12  13
HETATM   13  C   UNL     1      -8.079   6.096  66.706  1.00  0.00    -0.109 C  
BRANCH  13  14
HETATM   14  C   UNL     1      -9.298   5.194  66.890  1.00  0.00    -0.129 C  
BRANCH  14  15
HETATM   15  C   UNL     1     -10.498   5.983  67.408  1.00  0.00    -0.309 C  
HETATM   16  C   UNL     1     -10.646   5.855  68.906  1.00  0.00    -0.288 C  
HETATM   17  O   UNL     1     -11.707   6.552  69.375  1.00  0.00    -0.295 OA 
HETATM   18  O   UNL     1      -9.915   5.207  69.638  1.00  0.00    -0.199 OA 
ENDBRANCH  14  15
ENDBRANCH  13  14
ENDBRANCH  12  13
ENDBRANCH  11  12
ENDBRANCH  10  11
ENDBRANCH   9  10
ENDBRANCH   8   9
ENDBRANCH   7   8
ENDBRANCH   6   7
ENDBRANCH   5   6
ENDBRANCH   4   5
ENDBRANCH   3   4
ENDBRANCH   2   3
TORSDOF 13
ENDMDL
MODEL      326
REMARK 921   NORMALIZED FREE ENERGY PREDICTED BY IDOCK:   -2.80 KCAL/MOL
REMARK 922        TOTAL FREE ENERGY PREDICTED BY IDOCK:   -6.33 KCAL/MOL
REMARK 923 INTER-LIGAND FREE ENERGY PREDICTED BY IDOCK:   -5.62 KCAL/MOL
REMARK 924 INTRA-LIGAND FREE ENERGY PREDICTED BY IDOCK:   -0.71 KCAL/MOL
REMARK 927      BINDING AFFINITY PREDICTED BY RF-SCORE:    0.00 PKD
ROOT
HETATM    1  C   UNL     1     -12.023  16.540  73.248  1.00  0.00    -0.448 C  
HETATM    2  C   UNL     1     -12.843  15.271  73.405  1.00  0.00    -0.667 C  
ENDROOT
BRANCH   2   3
HETATM    3  C   UNL     1     -14.047  15.274  72.466  1.00  0.00    -0.567 C  
BRANCH   3   4
HETATM    4  C   UNL     1     -14.254  13.901  71.832  1.00  0.00    -0.443 C  
BRANCH   4   5
HETATM    5  C   UNL     1     -13.180  12.922  72.296  1.00  0.00    -0.519 C  
BRANCH   5   6
HETATM    6  C   UNL     1     -12.452  12.307  71.105  1.00  0.00    -0.328 C  
BRANCH   6   7
HETATM    7  C   UNL     1     -12.798  10.828  70.966  1.00  0.00    -0.480 C  
BRANCH   7   8
HETATM    8  C   UNL     1     -11.616   9.955  71.372  1.00  0.00    -0.428 C  
BRANCH   8   9
HETATM    9  C   UNL     1     -10.640   9.793  70.212  1.00  0.00    -0.348 C  
BRANCH   9  10
HETATM   10  C   UNL     1     -10.452   8.321  69.866  1.00  0.00    -0.223 C  
BRANCH  10  11
HETATM   11  C   UNL     1      -9.154   8.101  69.095  1.00  0.00    -0.148 C  
BRANCH  11  12
HETATM   12  C   UNL     1      -8.917   9.237  68.106  1.00  0.00    -0.128 C  
BRANCH  12  13
HETATM   13  C   UNL     1      -9.536   8.926  66.746  1.00  0.00    -0.243 C  
BRANCH  13  14
HETATM   14  C   UNL     1      -8.997   9.875  65.678  1.00  0.00    -0.205 C  
BRANCH  14  15
HETATM   15  C   UNL     1      -7.560   9.527  65.302  1.00  0.00    -0.111 C  
HETATM   16  C   UNL     1      -7.485   8.843  63.957  1.00  0.00    -0.112 C  
HETATM   17  O   UNL     1      -6.212   8.531  63.613  1.00  0.00    -0.072 OA 
HETATM   18  O   UNL     1      -8.436   8.584  63.238  1.00  0.00    -0.150 OA 
ENDBRANCH  14  15
ENDBRANCH  13  14
ENDBRANCH  12  13
ENDBRANCH  11  12
ENDBRANCH  10  11
ENDBRANCH   9  10
ENDBRANCH   8   9
ENDBRANCH   7   8
ENDBRANCH   6   7
ENDBRANCH   5   6
ENDBRANCH   4   5
ENDBRANCH   3   4
ENDBRANCH   2   3
TORSDOF 13
ENDMDL
MODEL      327
REMARK 921   NORMALIZED FREE ENERGY PREDICTED BY IDOCK:   -2.79 KCAL/MOL
REMARK 922        TOTAL FREE ENERGY PREDICTED BY IDOCK:   -6.33 KCAL/MOL
REMARK 923 INTER-LIGAND FREE ENERGY PREDICTED BY IDOCK:   -4.47 KCAL/MOL
REMARK 924 INTRA-LIGAND FREE ENERGY PREDICTED BY IDOCK:   -1.86 KCAL/MOL
REMARK 927      BINDING AFFINITY PREDICTED BY RF-SCORE:    0.00 PKD
ROOT
HETATM    1  C   UNL     1     -10.061  10.681  64.585  1.00  0.00    -0.417 C  
HETATM    2  C   UNL     1     -10.992  11.652  65.289  1.00  0.00    -0.327 C  
ENDROOT
BRANCH   2   3
HETATM    3  C   UNL     1     -11.248  11.222  66.732  1.00  0.00    -0.265 C  
BRANCH   3   4
HETATM    4  C   UNL     1     -10.698  12.249  67.718  1.00  0.00    -0.246 C  
BRANCH   4   5
HETATM    5  C   UNL     1      -9.710  11.600  68.683  1.00  0.00    -0.151 C  
BRANCH   5   6
HETATM    6  C   UNL     1     -10.394  10.529  69.526  1.00  0.00    -0.251 C  
BRANCH   6   7
HETATM    7  C   UNL     1      -9.424   9.398  69.854  1.00  0.00    -0.235 C  
BRANCH   7   8
HETATM    8  C   UNL     1      -8.019   9.941  70.089  1.00  0.00    -0.181 C  
BRANCH   8   9
HETATM    9  C   UNL     1      -7.093   9.558  68.940  1.00  0.00    -0.067 C  
BRANCH   9  10
HETATM   10  C   UNL     1      -7.475   8.198  68.368  1.00  0.00    -0.100 C  
BRANCH  10  11
HETATM   11  C   UNL     1      -7.817   8.304  66.885  1.00  0.00    -0.096 C  
BRANCH  11  12
HETATM   12  C   UNL     1      -8.859   7.260  66.497  1.00  0.00    -0.156 C  
BRANCH  12  13
HETATM   13  C   UNL     1     -10.246   7.647  67.005  1.00  0.00    -0.371 C  
BRANCH  13  14
HETATM   14  C   UNL     1     -11.054   6.404  67.367  1.00  0.00    -0.412 C  
BRANCH  14  15
HETATM   15  C   UNL     1     -10.360   5.589  68.455  1.00  0.00    -0.243 C  
HETATM   16  C   UNL     1     -10.899   5.918  69.828  1.00  0.00    -0.377 C  
HETATM   17  O   UNL     1     -10.290   5.199  70.800  1.00  0.00    -0.240 OA 
HETATM   18  O   UNL     1     -11.777   6.730  70.069  1.00  0.00    -0.337 OA 
ENDBRANCH  14  15
ENDBRANCH  13  14
ENDBRANCH  12  13
ENDBRANCH  11  12
ENDBRANCH  10  11
ENDBRANCH   9  10
ENDBRANCH   8   9
ENDBRANCH   7   8
ENDBRANCH   6   7
ENDBRANCH   5   6
ENDBRANCH   4   5
ENDBRANCH   3   4
ENDBRANCH   2   3
TORSDOF 13
ENDMDL
MODEL      328
REMARK 921   NORMALIZED FREE ENERGY PREDICTED BY IDOCK:   -2.79 KCAL/MOL
REMARK 922        TOTAL FREE ENERGY PREDICTED BY IDOCK:   -6.32 KCAL/MOL
REMARK 923 INTER-LIGAND FREE ENERGY PREDICTED BY IDOCK:   -5.53 KCAL/MOL
REMARK 924 INTRA-LIGAND FREE ENERGY PREDICTED BY IDOCK:   -0.78 KCAL/MOL
REMARK 927      BINDING AFFINITY PREDICTED BY RF-SCORE:    0.00 PKD
ROOT
HETATM    1  C   UNL     1     -10.637   7.095  67.424  1.00  0.00    -0.372 C  
HETATM    2  C   UNL     1      -9.911   8.275  66.801  1.00  0.00    -0.355 C  
ENDROOT
BRANCH   2   3
HETATM    3  C   UNL     1     -10.532   9.599  67.242  1.00  0.00    -0.323 C  
BRANCH   3   4
HETATM    4  C   UNL     1     -10.211  10.714  66.250  1.00  0.00    -0.304 C  
BRANCH   4   5
HETATM    5  C   UNL     1      -9.731  11.966  66.979  1.00  0.00    -0.204 C  
BRANCH   5   6
HETATM    6  C   UNL     1     -10.737  13.103  66.830  1.00  0.00    -0.274 C  
BRANCH   6   7
HETATM    7  C   UNL     1     -10.398  13.968  65.620  1.00  0.00    -0.342 C  
BRANCH   7   8
HETATM    8  C   UNL     1     -11.077  15.329  65.720  1.00  0.00    -0.301 C  
BRANCH   8   9
HETATM    9  C   UNL     1     -10.356  16.219  66.727  1.00  0.00    -0.296 C  
BRANCH   9  10
HETATM   10  C   UNL     1     -10.241  17.645  66.201  1.00  0.00    -0.345 C  
BRANCH  10  11
HETATM   11  C   UNL     1     -10.647  18.657  67.269  1.00  0.00    -0.480 C  
BRANCH  11  12
HETATM   12  C   UNL     1      -9.416  19.318  67.880  1.00  0.00    -0.393 C  
BRANCH  12  13
HETATM   13  C   UNL     1      -8.690  20.187  66.857  1.00  0.00    -0.412 C  
BRANCH  13  14
HETATM   14  C   UNL     1      -7.177  20.058  67.017  1.00  0.00    -0.274 C  
BRANCH  14  15
HETATM   15  C   UNL     1      -6.657  18.780  66.365  1.00  0.00    -0.225 C  
HETATM   16  C   UNL     1      -6.077  17.829  67.386  1.00  0.00    -0.147 C  
HETATM   17  O   UNL     1      -5.615  16.691  66.817  1.00  0.00    -0.305 OA 
HETATM   18  O   UNL     1      -6.015  18.030  68.588  1.00  0.00    -0.180 OA 
ENDBRANCH  14  15
ENDBRANCH  13  14
ENDBRANCH  12  13
ENDBRANCH  11  12
ENDBRANCH  10  11
ENDBRANCH   9  10
ENDBRANCH   8   9
ENDBRANCH   7   8
ENDBRANCH   6   7
ENDBRANCH   5   6
ENDBRANCH   4   5
ENDBRANCH   3   4
ENDBRANCH   2   3
TORSDOF 13
ENDMDL
MODEL      329
REMARK 921   NORMALIZED FREE ENERGY PREDICTED BY IDOCK:   -2.79 KCAL/MOL
REMARK 922        TOTAL FREE ENERGY PREDICTED BY IDOCK:   -6.31 KCAL/MOL
REMARK 923 INTER-LIGAND FREE ENERGY PREDICTED BY IDOCK:   -5.25 KCAL/MOL
REMARK 924 INTRA-LIGAND FREE ENERGY PREDICTED BY IDOCK:   -1.06 KCAL/MOL
REMARK 927      BINDING AFFINITY PREDICTED BY RF-SCORE:    0.00 PKD
ROOT
HETATM    1  C   UNL     1      -8.228  14.526  67.370  1.00  0.00    -0.220 C  
HETATM    2  C   UNL     1      -9.056  15.762  67.679  1.00  0.00    -0.193 C  
ENDROOT
BRANCH   2   3
HETATM    3  C   UNL     1      -9.525  16.445  66.397  1.00  0.00    -0.320 C  
BRANCH   3   4
HETATM    4  C   UNL     1     -10.003  15.422  65.371  1.00  0.00    -0.356 C  
BRANCH   4   5
HETATM    5  C   UNL     1     -11.524  15.293  65.401  1.00  0.00    -0.184 C  
BRANCH   5   6
HETATM    6  C   UNL     1     -11.950  13.836  65.256  1.00  0.00    -0.388 C  
BRANCH   6   7
HETATM    7  C   UNL     1     -12.040  13.444  63.785  1.00  0.00    -0.516 C  
BRANCH   7   8
HETATM    8  C   UNL     1     -11.794  11.950  63.606  1.00  0.00    -0.573 C  
BRANCH   8   9
HETATM    9  C   UNL     1     -10.344  11.684  63.218  1.00  0.00    -0.444 C  
BRANCH   9  10
HETATM   10  C   UNL     1      -9.757  10.559  64.063  1.00  0.00    -0.383 C  
BRANCH  10  11
HETATM   11  C   UNL     1     -10.315  10.592  65.482  1.00  0.00    -0.297 C  
BRANCH  11  12
HETATM   12  C   UNL     1      -9.595   9.580  66.368  1.00  0.00    -0.273 C  
BRANCH  12  13
HETATM   13  C   UNL     1     -10.494   9.103  67.505  1.00  0.00    -0.335 C  
BRANCH  13  14
HETATM   14  C   UNL     1     -10.614   7.580  67.495  1.00  0.00    -0.331 C  
BRANCH  14  15
HETATM   15  C   UNL     1      -9.901   6.976  66.289  1.00  0.00    -0.010 C  
HETATM   16  C   UNL     1      -9.436   5.565  66.564  1.00  0.00    -0.151 C  
HETATM   17  O   UNL     1      -8.803   5.020  65.498  1.00  0.00    -0.137 OA 
HETATM   18  O   UNL     1      -9.593   4.958  67.610  1.00  0.00    -0.137 OA 
ENDBRANCH  14  15
ENDBRANCH  13  14
ENDBRANCH  12  13
ENDBRANCH  11  12
ENDBRANCH  10  11
ENDBRANCH   9  10
ENDBRANCH   8   9
ENDBRANCH   7   8
ENDBRANCH   6   7
ENDBRANCH   5   6
ENDBRANCH   4   5
ENDBRANCH   3   4
ENDBRANCH   2   3
TORSDOF 13
ENDMDL
MODEL      330
REMARK 921   NORMALIZED FREE ENERGY PREDICTED BY IDOCK:   -2.78 KCAL/MOL
REMARK 922        TOTAL FREE ENERGY PREDICTED BY IDOCK:   -6.31 KCAL/MOL
REMARK 923 INTER-LIGAND FREE ENERGY PREDICTED BY IDOCK:   -4.87 KCAL/MOL
REMARK 924 INTRA-LIGAND FREE ENERGY PREDICTED BY IDOCK:   -1.44 KCAL/MOL
REMARK 927      BINDING AFFINITY PREDICTED BY RF-SCORE:    0.00 PKD
ROOT
HETATM    1  C   UNL     1      -9.673   4.803  68.532  1.00  0.00    -0.215 C  
HETATM    2  C   UNL     1     -10.429   5.193  69.790  1.00  0.00    -0.274 C  
ENDROOT
BRANCH   2   3
HETATM    3  C   UNL     1     -11.304   6.420  69.549  1.00  0.00    -0.460 C  
BRANCH   3   4
HETATM    4  C   UNL     1     -10.894   7.575  70.458  1.00  0.00    -0.252 C  
BRANCH   4   5
HETATM    5  C   UNL     1     -10.465   8.787  69.635  1.00  0.00    -0.220 C  
BRANCH   5   6
HETATM    6  C   UNL     1     -10.403   8.444  68.151  1.00  0.00    -0.255 C  
BRANCH   6   7
HETATM    7  C   UNL     1      -9.119   8.981  67.526  1.00  0.00    -0.145 C  
BRANCH   7   8
HETATM    8  C   UNL     1      -8.651  10.239  68.248  1.00  0.00    -0.122 C  
BRANCH   8   9
HETATM    9  C   UNL     1      -9.172  11.490  67.548  1.00  0.00    -0.166 C  
BRANCH   9  10
HETATM   10  C   UNL     1      -9.556  11.181  66.106  1.00  0.00    -0.239 C  
BRANCH  10  11
HETATM   11  C   UNL     1     -10.916  11.781  65.761  1.00  0.00    -0.353 C  
BRANCH  11  12
HETATM   12  C   UNL     1     -11.542  12.434  66.989  1.00  0.00    -0.434 C  
BRANCH  12  13
HETATM   13  C   UNL     1     -12.139  13.796  66.646  1.00  0.00    -0.471 C  
BRANCH  13  14
HETATM   14  C   UNL     1     -11.156  14.916  66.980  1.00  0.00    -0.338 C  
BRANCH  14  15
HETATM   15  C   UNL     1     -10.418  14.633  68.285  1.00  0.00    -0.236 C  
HETATM   16  C   UNL     1     -11.101  15.283  69.466  1.00  0.00    -0.281 C  
HETATM   17  O   UNL     1     -10.454  15.037  70.629  1.00  0.00    -0.074 OA 
HETATM   18  O   UNL     1     -12.117  15.958  69.414  1.00  0.00    -0.330 OA 
ENDBRANCH  14  15
ENDBRANCH  13  14
ENDBRANCH  12  13
ENDBRANCH  11  12
ENDBRANCH  10  11
ENDBRANCH   9  10
ENDBRANCH   8   9
ENDBRANCH   7   8
ENDBRANCH   6   7
ENDBRANCH   5   6
ENDBRANCH   4   5
ENDBRANCH   3   4
ENDBRANCH   2   3
TORSDOF 13
ENDMDL
MODEL      331
REMARK 921   NORMALIZED FREE ENERGY PREDICTED BY IDOCK:   -2.78 KCAL/MOL
REMARK 922        TOTAL FREE ENERGY PREDICTED BY IDOCK:   -6.30 KCAL/MOL
REMARK 923 INTER-LIGAND FREE ENERGY PREDICTED BY IDOCK:   -4.03 KCAL/MOL
REMARK 924 INTRA-LIGAND FREE ENERGY PREDICTED BY IDOCK:   -2.27 KCAL/MOL
REMARK 927      BINDING AFFINITY PREDICTED BY RF-SCORE:    0.00 PKD
ROOT
HETATM    1  C   UNL     1     -10.642  12.377  63.681  1.00  0.00    -0.481 C  
HETATM    2  C   UNL     1     -11.129  11.993  65.068  1.00  0.00    -0.368 C  
ENDROOT
BRANCH   2   3
HETATM    3  C   UNL     1     -10.371  10.779  65.601  1.00  0.00    -0.297 C  
BRANCH   3   4
HETATM    4  C   UNL     1      -8.943  11.149  65.992  1.00  0.00    -0.210 C  
BRANCH   4   5
HETATM    5  C   UNL     1      -7.974  10.026  65.631  1.00  0.00    -0.140 C  
BRANCH   5   6
HETATM    6  C   UNL     1      -8.611   9.051  64.647  1.00  0.00    -0.190 C  
BRANCH   6   7
HETATM    7  C   UNL     1      -7.863   7.721  64.644  1.00  0.00    -0.130 C  
BRANCH   7   8
HETATM    8  C   UNL     1      -7.363   7.378  66.043  1.00  0.00    -0.075 C  
BRANCH   8   9
HETATM    9  C   UNL     1      -7.495   5.883  66.312  1.00  0.00    -0.086 C  
BRANCH   9  10
HETATM   10  C   UNL     1      -8.789   5.340  65.717  1.00  0.00    -0.149 C  
BRANCH  10  11
HETATM   11  C   UNL     1      -9.596   4.580  66.765  1.00  0.00    -0.206 C  
BRANCH  11  12
HETATM   12  C   UNL     1     -10.206   5.543  67.777  1.00  0.00    -0.237 C  
BRANCH  12  13
HETATM   13  C   UNL     1     -10.999   6.647  67.083  1.00  0.00    -0.478 C  
BRANCH  13  14
HETATM   14  C   UNL     1     -10.615   8.017  67.637  1.00  0.00    -0.264 C  
BRANCH  14  15
HETATM   15  C   UNL     1      -9.685   7.887  68.840  1.00  0.00    -0.158 C  
HETATM   16  C   UNL     1      -9.505   9.208  69.551  1.00  0.00    -0.168 C  
HETATM   17  O   UNL     1      -8.682   9.103  70.621  1.00  0.00    -0.192 OA 
HETATM   18  O   UNL     1     -10.023  10.264  69.228  1.00  0.00    -0.205 OA 
ENDBRANCH  14  15
ENDBRANCH  13  14
ENDBRANCH  12  13
ENDBRANCH  11  12
ENDBRANCH  10  11
ENDBRANCH   9  10
ENDBRANCH   8   9
ENDBRANCH   7   8
ENDBRANCH   6   7
ENDBRANCH   5   6
ENDBRANCH   4   5
ENDBRANCH   3   4
ENDBRANCH   2   3
TORSDOF 13
ENDMDL
MODEL      332
REMARK 921   NORMALIZED FREE ENERGY PREDICTED BY IDOCK:   -2.77 KCAL/MOL
REMARK 922        TOTAL FREE ENERGY PREDICTED BY IDOCK:   -6.29 KCAL/MOL
REMARK 923 INTER-LIGAND FREE ENERGY PREDICTED BY IDOCK:   -5.52 KCAL/MOL
REMARK 924 INTRA-LIGAND FREE ENERGY PREDICTED BY IDOCK:   -0.76 KCAL/MOL
REMARK 927      BINDING AFFINITY PREDICTED BY RF-SCORE:    0.00 PKD
ROOT
HETATM    1  C   UNL     1      -6.098  19.937  70.093  1.00  0.00    -0.369 C  
HETATM    2  C   UNL     1      -6.854  19.882  68.777  1.00  0.00    -0.358 C  
ENDROOT
BRANCH   2   3
HETATM    3  C   UNL     1      -7.679  18.602  68.669  1.00  0.00    -0.344 C  
BRANCH   3   4
HETATM    4  C   UNL     1      -6.958  17.552  67.828  1.00  0.00    -0.180 C  
BRANCH   4   5
HETATM    5  C   UNL     1      -7.788  16.275  67.728  1.00  0.00    -0.155 C  
BRANCH   5   6
HETATM    6  C   UNL     1      -8.491  16.186  66.377  1.00  0.00    -0.369 C  
BRANCH   6   7
HETATM    7  C   UNL     1      -9.936  16.663  66.489  1.00  0.00    -0.296 C  
BRANCH   7   8
HETATM    8  C   UNL     1     -10.729  15.770  67.436  1.00  0.00    -0.317 C  
BRANCH   8   9
HETATM    9  C   UNL     1     -11.115  14.464  66.750  1.00  0.00    -0.323 C  
BRANCH   9  10
HETATM   10  C   UNL     1     -10.795  13.270  67.642  1.00  0.00    -0.273 C  
BRANCH  10  11
HETATM   11  C   UNL     1     -11.868  12.192  67.520  1.00  0.00    -0.307 C  
BRANCH  11  12
HETATM   12  C   UNL     1     -11.375  10.874  68.107  1.00  0.00    -0.383 C  
BRANCH  12  13
HETATM   13  C   UNL     1     -11.984  10.619  69.483  1.00  0.00    -0.319 C  
BRANCH  13  14
HETATM   14  C   UNL     1     -10.999   9.871  70.379  1.00  0.00    -0.379 C  
BRANCH  14  15
HETATM   15  C   UNL     1     -10.631   8.514  69.786  1.00  0.00    -0.224 C  
HETATM   16  C   UNL     1     -11.370   7.387  70.470  1.00  0.00    -0.271 C  
HETATM   17  O   UNL     1     -11.052   6.179  69.950  1.00  0.00    -0.347 OA 
HETATM   18  O   UNL     1     -12.166   7.514  71.387  1.00  0.00    -0.310 OA 
ENDBRANCH  14  15
ENDBRANCH  13  14
ENDBRANCH  12  13
ENDBRANCH  11  12
ENDBRANCH  10  11
ENDBRANCH   9  10
ENDBRANCH   8   9
ENDBRANCH   7   8
ENDBRANCH   6   7
ENDBRANCH   5   6
ENDBRANCH   4   5
ENDBRANCH   3   4
ENDBRANCH   2   3
TORSDOF 13
ENDMDL
MODEL      333
REMARK 921   NORMALIZED FREE ENERGY PREDICTED BY IDOCK:   -2.77 KCAL/MOL
REMARK 922        TOTAL FREE ENERGY PREDICTED BY IDOCK:   -6.28 KCAL/MOL
REMARK 923 INTER-LIGAND FREE ENERGY PREDICTED BY IDOCK:   -5.33 KCAL/MOL
REMARK 924 INTRA-LIGAND FREE ENERGY PREDICTED BY IDOCK:   -0.95 KCAL/MOL
REMARK 927      BINDING AFFINITY PREDICTED BY RF-SCORE:    0.00 PKD
ROOT
HETATM    1  C   UNL     1     -10.112  19.324  68.907  1.00  0.00    -0.434 C  
HETATM    2  C   UNL     1      -8.906  19.399  67.986  1.00  0.00    -0.369 C  
ENDROOT
BRANCH   2   3
HETATM    3  C   UNL     1      -9.320  19.254  66.524  1.00  0.00    -0.396 C  
BRANCH   3   4
HETATM    4  C   UNL     1     -10.514  18.315  66.380  1.00  0.00    -0.387 C  
BRANCH   4   5
HETATM    5  C   UNL     1     -10.067  16.937  65.901  1.00  0.00    -0.302 C  
BRANCH   5   6
HETATM    6  C   UNL     1     -10.017  15.947  67.060  1.00  0.00    -0.248 C  
BRANCH   6   7
HETATM    7  C   UNL     1     -11.405  15.385  67.350  1.00  0.00    -0.243 C  
BRANCH   7   8
HETATM    8  C   UNL     1     -11.384  13.861  67.348  1.00  0.00    -0.349 C  
BRANCH   8   9
HETATM    9  C   UNL     1     -10.682  13.333  66.101  1.00  0.00    -0.287 C  
BRANCH   9  10
HETATM   10  C   UNL     1      -9.383  12.627  66.471  1.00  0.00    -0.228 C  
BRANCH  10  11
HETATM   11  C   UNL     1      -9.653  11.209  66.966  1.00  0.00    -0.201 C  
BRANCH  11  12
HETATM   12  C   UNL     1      -9.233  11.059  68.425  1.00  0.00    -0.175 C  
BRANCH  12  13
HETATM   13  C   UNL     1     -10.417  11.264  69.365  1.00  0.00    -0.089 C  
BRANCH  13  14
HETATM   14  C   UNL     1     -11.366  10.070  69.305  1.00  0.00    -0.169 C  
BRANCH  14  15
HETATM   15  C   UNL     1     -11.155   9.134  70.492  1.00  0.00    -0.308 C  
HETATM   16  C   UNL     1     -12.159   9.393  71.592  1.00  0.00    -0.388 C  
HETATM   17  O   UNL     1     -11.981   8.566  72.649  1.00  0.00    -0.373 OA 
HETATM   18  O   UNL     1     -13.038  10.239  71.566  1.00  0.00    -0.384 OA 
ENDBRANCH  14  15
ENDBRANCH  13  14
ENDBRANCH  12  13
ENDBRANCH  11  12
ENDBRANCH  10  11
ENDBRANCH   9  10
ENDBRANCH   8   9
ENDBRANCH   7   8
ENDBRANCH   6   7
ENDBRANCH   5   6
ENDBRANCH   4   5
ENDBRANCH   3   4
ENDBRANCH   2   3
TORSDOF 13
ENDMDL
MODEL      334
REMARK 921   NORMALIZED FREE ENERGY PREDICTED BY IDOCK:   -2.77 KCAL/MOL
REMARK 922        TOTAL FREE ENERGY PREDICTED BY IDOCK:   -6.28 KCAL/MOL
REMARK 923 INTER-LIGAND FREE ENERGY PREDICTED BY IDOCK:   -4.44 KCAL/MOL
REMARK 924 INTRA-LIGAND FREE ENERGY PREDICTED BY IDOCK:   -1.84 KCAL/MOL
REMARK 927      BINDING AFFINITY PREDICTED BY RF-SCORE:    0.00 PKD
ROOT
HETATM    1  C   UNL     1      -9.686  10.197  62.628  1.00  0.00    -0.073 C  
HETATM    2  C   UNL     1      -9.897  10.616  64.073  1.00  0.00    -0.399 C  
ENDROOT
BRANCH   2   3
HETATM    3  C   UNL     1      -8.840   9.999  64.986  1.00  0.00    -0.213 C  
BRANCH   3   4
HETATM    4  C   UNL     1      -8.291  11.029  65.968  1.00  0.00    -0.147 C  
BRANCH   4   5
HETATM    5  C   UNL     1      -8.172  10.435  67.368  1.00  0.00    -0.117 C  
BRANCH   5   6
HETATM    6  C   UNL     1      -8.860   9.076  67.444  1.00  0.00    -0.125 C  
BRANCH   6   7
HETATM    7  C   UNL     1     -10.049   9.125  68.398  1.00  0.00    -0.220 C  
BRANCH   7   8
HETATM    8  C   UNL     1      -9.881  10.246  69.416  1.00  0.00    -0.247 C  
BRANCH   8   9
HETATM    9  C   UNL     1     -11.061  11.211  69.358  1.00  0.00    -0.314 C  
BRANCH   9  10
HETATM   10  C   UNL     1     -11.685  11.217  67.968  1.00  0.00    -0.305 C  
BRANCH  10  11
HETATM   11  C   UNL     1     -11.870  12.643  67.458  1.00  0.00    -0.396 C  
BRANCH  11  12
HETATM   12  C   UNL     1     -10.639  13.489  67.764  1.00  0.00    -0.252 C  
BRANCH  12  13
HETATM   13  C   UNL     1     -10.080  14.131  66.497  1.00  0.00    -0.283 C  
BRANCH  13  14
HETATM   14  C   UNL     1      -9.103  15.252  66.847  1.00  0.00    -0.263 C  
BRANCH  14  15
HETATM   15  C   UNL     1      -9.343  15.775  68.260  1.00  0.00    -0.193 C  
HETATM   16  C   UNL     1     -10.168  17.041  68.254  1.00  0.00    -0.326 C  
HETATM   17  O   UNL     1     -10.387  17.512  69.504  1.00  0.00    -0.219 OA 
HETATM   18  O   UNL     1     -10.600  17.601  67.260  1.00  0.00    -0.347 OA 
ENDBRANCH  14  15
ENDBRANCH  13  14
ENDBRANCH  12  13
ENDBRANCH  11  12
ENDBRANCH  10  11
ENDBRANCH   9  10
ENDBRANCH   8   9
ENDBRANCH   7   8
ENDBRANCH   6   7
ENDBRANCH   5   6
ENDBRANCH   4   5
ENDBRANCH   3   4
ENDBRANCH   2   3
TORSDOF 13
ENDMDL
MODEL      335
REMARK 921   NORMALIZED FREE ENERGY PREDICTED BY IDOCK:   -2.77 KCAL/MOL
REMARK 922        TOTAL FREE ENERGY PREDICTED BY IDOCK:   -6.28 KCAL/MOL
REMARK 923 INTER-LIGAND FREE ENERGY PREDICTED BY IDOCK:   -5.08 KCAL/MOL
REMARK 924 INTRA-LIGAND FREE ENERGY PREDICTED BY IDOCK:   -1.20 KCAL/MOL
REMARK 927      BINDING AFFINITY PREDICTED BY RF-SCORE:    0.00 PKD
ROOT
HETATM    1  C   UNL     1      -8.495   6.808  67.565  1.00  0.00    -0.121 C  
HETATM    2  C   UNL     1      -9.986   7.092  67.634  1.00  0.00    -0.201 C  
ENDROOT
BRANCH   2   3
HETATM    3  C   UNL     1     -10.376   7.658  68.997  1.00  0.00    -0.220 C  
BRANCH   3   4
HETATM    4  C   UNL     1      -9.710   6.879  70.127  1.00  0.00    -0.175 C  
BRANCH   4   5
HETATM    5  C   UNL     1     -10.379   7.185  71.465  1.00  0.00    -0.218 C  
BRANCH   5   6
HETATM    6  C   UNL     1     -11.672   6.393  71.622  1.00  0.00    -0.367 C  
BRANCH   6   7
HETATM    7  C   UNL     1     -12.881   7.324  71.604  1.00  0.00    -0.415 C  
BRANCH   7   8
HETATM    8  C   UNL     1     -12.515   8.697  72.155  1.00  0.00    -0.453 C  
BRANCH   8   9
HETATM    9  C   UNL     1     -13.372   9.783  71.511  1.00  0.00    -0.468 C  
BRANCH   9  10
HETATM   10  C   UNL     1     -12.523  10.996  71.151  1.00  0.00    -0.502 C  
BRANCH  10  11
HETATM   11  C   UNL     1     -12.071  10.934  69.695  1.00  0.00    -0.400 C  
BRANCH  11  12
HETATM   12  C   UNL     1     -11.700  12.324  69.187  1.00  0.00    -0.377 C  
BRANCH  12  13
HETATM   13  C   UNL     1     -11.305  12.287  67.713  1.00  0.00    -0.362 C  
BRANCH  13  14
HETATM   14  C   UNL     1     -10.030  13.093  67.477  1.00  0.00    -0.223 C  
BRANCH  14  15
HETATM   15  C   UNL     1      -9.178  12.472  66.374  1.00  0.00    -0.177 C  
HETATM   16  C   UNL     1      -8.136  11.533  66.935  1.00  0.00    -0.164 C  
HETATM   17  O   UNL     1      -7.375  10.975  65.963  1.00  0.00    -0.118 OA 
HETATM   18  O   UNL     1      -7.969  11.284  68.118  1.00  0.00    -0.118 OA 
ENDBRANCH  14  15
ENDBRANCH  13  14
ENDBRANCH  12  13
ENDBRANCH  11  12
ENDBRANCH  10  11
ENDBRANCH   9  10
ENDBRANCH   8   9
ENDBRANCH   7   8
ENDBRANCH   6   7
ENDBRANCH   5   6
ENDBRANCH   4   5
ENDBRANCH   3   4
ENDBRANCH   2   3
TORSDOF 13
ENDMDL
MODEL      336
REMARK 921   NORMALIZED FREE ENERGY PREDICTED BY IDOCK:   -2.76 KCAL/MOL
REMARK 922        TOTAL FREE ENERGY PREDICTED BY IDOCK:   -6.27 KCAL/MOL
REMARK 923 INTER-LIGAND FREE ENERGY PREDICTED BY IDOCK:   -4.48 KCAL/MOL
REMARK 924 INTRA-LIGAND FREE ENERGY PREDICTED BY IDOCK:   -1.79 KCAL/MOL
REMARK 927      BINDING AFFINITY PREDICTED BY RF-SCORE:    0.00 PKD
ROOT
HETATM    1  C   UNL     1      -9.208   9.587  70.404  1.00  0.00    -0.305 C  
HETATM    2  C   UNL     1     -10.703   9.319  70.387  1.00  0.00    -0.300 C  
ENDROOT
BRANCH   2   3
HETATM    3  C   UNL     1     -11.497  10.622  70.425  1.00  0.00    -0.422 C  
BRANCH   3   4
HETATM    4  C   UNL     1     -11.990  11.007  69.033  1.00  0.00    -0.364 C  
BRANCH   4   5
HETATM    5  C   UNL     1     -11.294  12.274  68.542  1.00  0.00    -0.332 C  
BRANCH   5   6
HETATM    6  C   UNL     1     -11.696  12.595  67.106  1.00  0.00    -0.438 C  
BRANCH   6   7
HETATM    7  C   UNL     1     -10.476  12.593  66.191  1.00  0.00    -0.278 C  
BRANCH   7   8
HETATM    8  C   UNL     1      -9.289  11.922  66.872  1.00  0.00    -0.198 C  
BRANCH   8   9
HETATM    9  C   UNL     1      -8.770  10.760  66.031  1.00  0.00    -0.190 C  
BRANCH   9  10
HETATM   10  C   UNL     1      -9.910   9.832  65.630  1.00  0.00    -0.371 C  
BRANCH  10  11
HETATM   11  C   UNL     1     -10.138   8.757  66.689  1.00  0.00    -0.358 C  
BRANCH  11  12
HETATM   12  C   UNL     1      -8.850   7.987  66.960  1.00  0.00    -0.143 C  
BRANCH  12  13
HETATM   13  C   UNL     1      -9.078   6.865  67.969  1.00  0.00    -0.120 C  
BRANCH  13  14
HETATM   14  C   UNL     1      -9.737   5.662  67.298  1.00  0.00    -0.147 C  
BRANCH  14  15
HETATM   15  C   UNL     1      -8.694   4.669  66.793  1.00  0.00    -0.111 C  
HETATM   16  C   UNL     1      -9.212   3.861  65.626  1.00  0.00    -0.152 C  
HETATM   17  O   UNL     1      -8.293   2.977  65.169  1.00  0.00    -0.093 OA 
HETATM   18  O   UNL     1     -10.321   3.964  65.128  1.00  0.00    -0.160 OA 
ENDBRANCH  14  15
ENDBRANCH  13  14
ENDBRANCH  12  13
ENDBRANCH  11  12
ENDBRANCH  10  11
ENDBRANCH   9  10
ENDBRANCH   8   9
ENDBRANCH   7   8
ENDBRANCH   6   7
ENDBRANCH   5   6
ENDBRANCH   4   5
ENDBRANCH   3   4
ENDBRANCH   2   3
TORSDOF 13
ENDMDL
MODEL      337
REMARK 921   NORMALIZED FREE ENERGY PREDICTED BY IDOCK:   -2.76 KCAL/MOL
REMARK 922        TOTAL FREE ENERGY PREDICTED BY IDOCK:   -6.27 KCAL/MOL
REMARK 923 INTER-LIGAND FREE ENERGY PREDICTED BY IDOCK:   -4.48 KCAL/MOL
REMARK 924 INTRA-LIGAND FREE ENERGY PREDICTED BY IDOCK:   -1.79 KCAL/MOL
REMARK 927      BINDING AFFINITY PREDICTED BY RF-SCORE:    0.00 PKD
ROOT
HETATM    1  C   UNL     1     -12.162  14.020  70.396  1.00  0.00    -0.433 C  
HETATM    2  C   UNL     1     -11.876  13.855  68.913  1.00  0.00    -0.393 C  
ENDROOT
BRANCH   2   3
HETATM    3  C   UNL     1     -11.211  12.510  68.627  1.00  0.00    -0.319 C  
BRANCH   3   4
HETATM    4  C   UNL     1     -10.741  12.427  67.178  1.00  0.00    -0.264 C  
BRANCH   4   5
HETATM    5  C   UNL     1     -11.753  13.077  66.240  1.00  0.00    -0.440 C  
BRANCH   5   6
HETATM    6  C   UNL     1     -11.050  13.839  65.122  1.00  0.00    -0.330 C  
BRANCH   6   7
HETATM    7  C   UNL     1     -11.882  15.039  64.680  1.00  0.00    -0.378 C  
BRANCH   7   8
HETATM    8  C   UNL     1     -11.079  16.329  64.799  1.00  0.00    -0.293 C  
BRANCH   8   9
HETATM    9  C   UNL     1     -10.237  16.326  66.071  1.00  0.00    -0.376 C  
BRANCH   9  10
HETATM   10  C   UNL     1      -8.771  16.594  65.748  1.00  0.00     0.105 C  
BRANCH  10  11
HETATM   11  C   UNL     1      -7.861  16.037  66.839  1.00  0.00    -0.284 C  
BRANCH  11  12
HETATM   12  C   UNL     1      -8.621  15.057  67.726  1.00  0.00    -0.165 C  
BRANCH  12  13
HETATM   13  C   UNL     1      -7.710  14.454  68.792  1.00  0.00    -0.139 C  
BRANCH  13  14
HETATM   14  C   UNL     1      -6.712  13.484  68.163  1.00  0.00    -0.120 C  
BRANCH  14  15
HETATM   15  C   UNL     1      -7.380  12.162  67.797  1.00  0.00    -0.114 C  
HETATM   16  C   UNL     1      -6.578  11.396  66.771  1.00  0.00    -0.136 C  
HETATM   17  O   UNL     1      -7.162  10.220  66.441  1.00  0.00    -0.102 OA 
HETATM   18  O   UNL     1      -5.525  11.764  66.275  1.00  0.00    -0.296 OA 
ENDBRANCH  14  15
ENDBRANCH  13  14
ENDBRANCH  12  13
ENDBRANCH  11  12
ENDBRANCH  10  11
ENDBRANCH   9  10
ENDBRANCH   8   9
ENDBRANCH   7   8
ENDBRANCH   6   7
ENDBRANCH   5   6
ENDBRANCH   4   5
ENDBRANCH   3   4
ENDBRANCH   2   3
TORSDOF 13
ENDMDL
MODEL      338
REMARK 921   NORMALIZED FREE ENERGY PREDICTED BY IDOCK:   -2.76 KCAL/MOL
REMARK 922        TOTAL FREE ENERGY PREDICTED BY IDOCK:   -6.26 KCAL/MOL
REMARK 923 INTER-LIGAND FREE ENERGY PREDICTED BY IDOCK:   -4.30 KCAL/MOL
REMARK 924 INTRA-LIGAND FREE ENERGY PREDICTED BY IDOCK:   -1.95 KCAL/MOL
REMARK 927      BINDING AFFINITY PREDICTED BY RF-SCORE:    0.00 PKD
ROOT
HETATM    1  C   UNL     1      -7.391   6.817  64.294  1.00  0.00    -0.088 C  
HETATM    2  C   UNL     1      -6.965   8.216  64.707  1.00  0.00    -0.074 C  
ENDROOT
BRANCH   2   3
HETATM    3  C   UNL     1      -6.797   8.316  66.221  1.00  0.00    -0.065 C  
BRANCH   3   4
HETATM    4  C   UNL     1      -7.609   9.477  66.789  1.00  0.00    -0.098 C  
BRANCH   4   5
HETATM    5  C   UNL     1      -8.754   9.849  65.850  1.00  0.00    -0.154 C  
BRANCH   5   6
HETATM    6  C   UNL     1     -10.091   9.821  66.583  1.00  0.00    -0.303 C  
BRANCH   6   7
HETATM    7  C   UNL     1     -10.117   8.697  67.615  1.00  0.00    -0.271 C  
BRANCH   7   8
HETATM    8  C   UNL     1     -10.780   7.450  67.041  1.00  0.00    -0.389 C  
BRANCH   8   9
HETATM    9  C   UNL     1      -9.814   6.271  67.050  1.00  0.00    -0.185 C  
BRANCH   9  10
HETATM   10  C   UNL     1      -9.378   5.940  68.472  1.00  0.00    -0.127 C  
BRANCH  10  11
HETATM   11  C   UNL     1     -10.470   5.177  69.216  1.00  0.00    -0.193 C  
BRANCH  11  12
HETATM   12  C   UNL     1     -11.034   6.018  70.355  1.00  0.00    -0.399 C  
BRANCH  12  13
HETATM   13  C   UNL     1      -9.949   6.876  71.000  1.00  0.00    -0.199 C  
BRANCH  13  14
HETATM   14  C   UNL     1     -10.547   7.793  72.064  1.00  0.00    -0.279 C  
BRANCH  14  15
HETATM   15  C   UNL     1     -10.686   9.223  71.548  1.00  0.00    -0.425 C  
HETATM   16  C   UNL     1     -12.134   9.599  71.331  1.00  0.00    -0.388 C  
HETATM   17  O   UNL     1     -12.268  10.866  70.874  1.00  0.00    -0.335 OA 
HETATM   18  O   UNL     1     -13.093   8.872  71.531  1.00  0.00    -0.332 OA 
ENDBRANCH  14  15
ENDBRANCH  13  14
ENDBRANCH  12  13
ENDBRANCH  11  12
ENDBRANCH  10  11
ENDBRANCH   9  10
ENDBRANCH   8   9
ENDBRANCH   7   8
ENDBRANCH   6   7
ENDBRANCH   5   6
ENDBRANCH   4   5
ENDBRANCH   3   4
ENDBRANCH   2   3
TORSDOF 13
ENDMDL
MODEL      339
REMARK 921   NORMALIZED FREE ENERGY PREDICTED BY IDOCK:   -2.76 KCAL/MOL
REMARK 922        TOTAL FREE ENERGY PREDICTED BY IDOCK:   -6.26 KCAL/MOL
REMARK 923 INTER-LIGAND FREE ENERGY PREDICTED BY IDOCK:   -4.96 KCAL/MOL
REMARK 924 INTRA-LIGAND FREE ENERGY PREDICTED BY IDOCK:   -1.30 KCAL/MOL
REMARK 927      BINDING AFFINITY PREDICTED BY RF-SCORE:    0.00 PKD
ROOT
HETATM    1  C   UNL     1      -7.626   4.679  71.083  1.00  0.00    -0.079 C  
HETATM    2  C   UNL     1      -9.084   4.731  71.506  1.00  0.00    -0.172 C  
ENDROOT
BRANCH   2   3
HETATM    3  C   UNL     1     -10.012   4.537  70.308  1.00  0.00    -0.288 C  
BRANCH   3   4
HETATM    4  C   UNL     1      -9.586   5.414  69.135  1.00  0.00    -0.193 C  
BRANCH   4   5
HETATM    5  C   UNL     1     -10.782   5.753  68.249  1.00  0.00    -0.285 C  
BRANCH   5   6
HETATM    6  C   UNL     1     -10.519   7.019  67.440  1.00  0.00    -0.343 C  
BRANCH   6   7
HETATM    7  C   UNL     1      -9.673   8.005  68.240  1.00  0.00    -0.177 C  
BRANCH   7   8
HETATM    8  C   UNL     1      -8.863   8.901  67.311  1.00  0.00    -0.137 C  
BRANCH   8   9
HETATM    9  C   UNL     1      -9.559   9.053  65.963  1.00  0.00    -0.342 C  
BRANCH   9  10
HETATM   10  C   UNL     1      -8.539   9.118  64.832  1.00  0.00    -0.208 C  
BRANCH  10  11
HETATM   11  C   UNL     1      -8.821  10.297  63.907  1.00  0.00    -0.234 C  
BRANCH  11  12
HETATM   12  C   UNL     1     -10.283  10.721  64.006  1.00  0.00    -0.390 C  
BRANCH  12  13
HETATM   13  C   UNL     1     -10.432  12.233  63.862  1.00  0.00    -0.458 C  
BRANCH  13  14
HETATM   14  C   UNL     1     -11.319  12.795  64.970  1.00  0.00    -0.344 C  
BRANCH  14  15
HETATM   15  C   UNL     1     -10.542  12.954  66.274  1.00  0.00    -0.281 C  
HETATM   16  C   UNL     1     -11.083  12.053  67.360  1.00  0.00    -0.281 C  
HETATM   17  O   UNL     1     -10.399  12.186  68.521  1.00  0.00    -0.220 OA 
HETATM   18  O   UNL     1     -12.023  11.284  67.241  1.00  0.00    -0.529 OA 
ENDBRANCH  14  15
ENDBRANCH  13  14
ENDBRANCH  12  13
ENDBRANCH  11  12
ENDBRANCH  10  11
ENDBRANCH   9  10
ENDBRANCH   8   9
ENDBRANCH   7   8
ENDBRANCH   6   7
ENDBRANCH   5   6
ENDBRANCH   4   5
ENDBRANCH   3   4
ENDBRANCH   2   3
TORSDOF 13
ENDMDL
MODEL      340
REMARK 921   NORMALIZED FREE ENERGY PREDICTED BY IDOCK:   -2.75 KCAL/MOL
REMARK 922        TOTAL FREE ENERGY PREDICTED BY IDOCK:   -6.25 KCAL/MOL
REMARK 923 INTER-LIGAND FREE ENERGY PREDICTED BY IDOCK:   -5.07 KCAL/MOL
REMARK 924 INTRA-LIGAND FREE ENERGY PREDICTED BY IDOCK:   -1.18 KCAL/MOL
REMARK 927      BINDING AFFINITY PREDICTED BY RF-SCORE:    0.00 PKD
ROOT
HETATM    1  C   UNL     1      -8.640   9.361  66.477  1.00  0.00    -0.142 C  
HETATM    2  C   UNL     1      -9.326   9.415  65.123  1.00  0.00    -0.288 C  
ENDROOT
BRANCH   2   3
HETATM    3  C   UNL     1     -10.360  10.537  65.073  1.00  0.00    -0.310 C  
BRANCH   3   4
HETATM    4  C   UNL     1     -10.006  11.564  64.001  1.00  0.00    -0.341 C  
BRANCH   4   5
HETATM    5  C   UNL     1     -11.268  12.135  63.360  1.00  0.00    -0.494 C  
BRANCH   5   6
HETATM    6  C   UNL     1     -12.387  12.272  64.387  1.00  0.00    -0.493 C  
BRANCH   6   7
HETATM    7  C   UNL     1     -12.279  13.601  65.128  1.00  0.00    -0.461 C  
BRANCH   7   8
HETATM    8  C   UNL     1     -12.268  14.769  64.148  1.00  0.00    -0.321 C  
BRANCH   8   9
HETATM    9  C   UNL     1     -11.165  15.761  64.503  1.00  0.00    -0.334 C  
BRANCH   9  10
HETATM   10  C   UNL     1     -10.053  15.075  65.287  1.00  0.00    -0.378 C  
BRANCH  10  11
HETATM   11  C   UNL     1      -9.409  16.038  66.280  1.00  0.00    -0.356 C  
BRANCH  11  12
HETATM   12  C   UNL     1     -10.052  15.901  67.656  1.00  0.00    -0.242 C  
BRANCH  12  13
HETATM   13  C   UNL     1      -9.779  14.527  68.261  1.00  0.00    -0.218 C  
BRANCH  13  14
HETATM   14  C   UNL     1      -8.503  13.925  67.677  1.00  0.00    -0.193 C  
BRANCH  14  15
HETATM   15  C   UNL     1      -7.972  12.795  68.554  1.00  0.00    -0.095 C  
HETATM   16  C   UNL     1      -6.679  12.229  68.014  1.00  0.00    -0.081 C  
HETATM   17  O   UNL     1      -6.199  11.226  68.786  1.00  0.00    -0.044 OA 
HETATM   18  O   UNL     1      -6.108  12.606  67.003  1.00  0.00    -0.281 OA 
ENDBRANCH  14  15
ENDBRANCH  13  14
ENDBRANCH  12  13
ENDBRANCH  11  12
ENDBRANCH  10  11
ENDBRANCH   9  10
ENDBRANCH   8   9
ENDBRANCH   7   8
ENDBRANCH   6   7
ENDBRANCH   5   6
ENDBRANCH   4   5
ENDBRANCH   3   4
ENDBRANCH   2   3
TORSDOF 13
ENDMDL
MODEL      341
REMARK 921   NORMALIZED FREE ENERGY PREDICTED BY IDOCK:   -2.75 KCAL/MOL
REMARK 922        TOTAL FREE ENERGY PREDICTED BY IDOCK:   -6.25 KCAL/MOL
REMARK 923 INTER-LIGAND FREE ENERGY PREDICTED BY IDOCK:   -4.32 KCAL/MOL
REMARK 924 INTRA-LIGAND FREE ENERGY PREDICTED BY IDOCK:   -1.93 KCAL/MOL
REMARK 927      BINDING AFFINITY PREDICTED BY RF-SCORE:    0.00 PKD
ROOT
HETATM    1  C   UNL     1      -9.280   4.770  69.051  1.00  0.00    -0.174 C  
HETATM    2  C   UNL     1     -10.593   5.345  69.553  1.00  0.00    -0.316 C  
ENDROOT
BRANCH   2   3
HETATM    3  C   UNL     1     -11.010   6.564  68.734  1.00  0.00    -0.371 C  
BRANCH   3   4
HETATM    4  C   UNL     1     -10.531   7.857  69.389  1.00  0.00    -0.222 C  
BRANCH   4   5
HETATM    5  C   UNL     1     -10.149   8.890  68.333  1.00  0.00    -0.215 C  
BRANCH   5   6
HETATM    6  C   UNL     1     -10.556   8.423  66.939  1.00  0.00    -0.285 C  
BRANCH   6   7
HETATM    7  C   UNL     1      -9.371   8.486  65.981  1.00  0.00    -0.266 C  
BRANCH   7   8
HETATM    8  C   UNL     1      -8.347   7.407  66.313  1.00  0.00    -0.132 C  
BRANCH   8   9
HETATM    9  C   UNL     1      -6.951   8.007  66.440  1.00  0.00    -0.070 C  
BRANCH   9  10
HETATM   10  C   UNL     1      -6.950   9.468  66.005  1.00  0.00    -0.091 C  
BRANCH  10  11
HETATM   11  C   UNL     1      -6.735  10.394  67.198  1.00  0.00    -0.078 C  
BRANCH  11  12
HETATM   12  C   UNL     1      -7.482  11.709  67.000  1.00  0.00    -0.150 C  
BRANCH  12  13
HETATM   13  C   UNL     1      -8.038  12.234  68.321  1.00  0.00    -0.166 C  
BRANCH  13  14
HETATM   14  C   UNL     1      -9.361  12.963  68.097  1.00  0.00    -0.214 C  
BRANCH  14  15
HETATM   15  C   UNL     1     -10.106  12.401  66.890  1.00  0.00    -0.230 C  
HETATM   16  C   UNL     1     -11.583  12.715  66.950  1.00  0.00    -0.373 C  
HETATM   17  O   UNL     1     -12.253  12.222  65.883  1.00  0.00    -0.634 OA 
HETATM   18  O   UNL     1     -12.140  13.336  67.840  1.00  0.00    -0.331 OA 
ENDBRANCH  14  15
ENDBRANCH  13  14
ENDBRANCH  12  13
ENDBRANCH  11  12
ENDBRANCH  10  11
ENDBRANCH   9  10
ENDBRANCH   8   9
ENDBRANCH   7   8
ENDBRANCH   6   7
ENDBRANCH   5   6
ENDBRANCH   4   5
ENDBRANCH   3   4
ENDBRANCH   2   3
TORSDOF 13
ENDMDL
MODEL      342
REMARK 921   NORMALIZED FREE ENERGY PREDICTED BY IDOCK:   -2.74 KCAL/MOL
REMARK 922        TOTAL FREE ENERGY PREDICTED BY IDOCK:   -6.22 KCAL/MOL
REMARK 923 INTER-LIGAND FREE ENERGY PREDICTED BY IDOCK:   -5.28 KCAL/MOL
REMARK 924 INTRA-LIGAND FREE ENERGY PREDICTED BY IDOCK:   -0.94 KCAL/MOL
REMARK 927      BINDING AFFINITY PREDICTED BY RF-SCORE:    0.00 PKD
ROOT
HETATM    1  C   UNL     1      -9.692   5.617  66.623  1.00  0.00    -0.176 C  
HETATM    2  C   UNL     1     -10.756   5.613  67.708  1.00  0.00    -0.250 C  
ENDROOT
BRANCH   2   3
HETATM    3  C   UNL     1     -10.155   5.257  69.066  1.00  0.00    -0.272 C  
BRANCH   3   4
HETATM    4  C   UNL     1     -10.803   6.069  70.184  1.00  0.00    -0.409 C  
BRANCH   4   5
HETATM    5  C   UNL     1     -11.135   7.480  69.707  1.00  0.00    -0.143 C  
BRANCH   5   6
HETATM    6  C   UNL     1     -11.404   8.406  70.888  1.00  0.00    -0.298 C  
BRANCH   6   7
HETATM    7  C   UNL     1     -10.847   9.801  70.619  1.00  0.00    -0.396 C  
BRANCH   7   8
HETATM    8  C   UNL     1     -11.959  10.843  70.649  1.00  0.00    -0.467 C  
BRANCH   8   9
HETATM    9  C   UNL     1     -12.115  11.506  69.284  1.00  0.00    -0.344 C  
BRANCH   9  10
HETATM   10  C   UNL     1     -11.412  12.859  69.258  1.00  0.00    -0.341 C  
BRANCH  10  11
HETATM   11  C   UNL     1     -11.930  13.766  70.370  1.00  0.00    -0.385 C  
BRANCH  11  12
HETATM   12  C   UNL     1     -12.098  15.195  69.864  1.00  0.00    -0.373 C  
BRANCH  12  13
HETATM   13  C   UNL     1     -11.910  15.272  68.352  1.00  0.00    -0.283 C  
BRANCH  13  14
HETATM   14  C   UNL     1     -10.946  16.398  67.985  1.00  0.00    -0.327 C  
BRANCH  14  15
HETATM   15  C   UNL     1      -9.797  16.491  68.985  1.00  0.00    -0.266 C  
HETATM   16  C   UNL     1      -8.649  15.585  68.603  1.00  0.00    -0.179 C  
HETATM   17  O   UNL     1      -7.624  15.662  69.484  1.00  0.00    -0.217 OA 
HETATM   18  O   UNL     1      -8.617  14.856  67.626  1.00  0.00    -0.159 OA 
ENDBRANCH  14  15
ENDBRANCH  13  14
ENDBRANCH  12  13
ENDBRANCH  11  12
ENDBRANCH  10  11
ENDBRANCH   9  10
ENDBRANCH   8   9
ENDBRANCH   7   8
ENDBRANCH   6   7
ENDBRANCH   5   6
ENDBRANCH   4   5
ENDBRANCH   3   4
ENDBRANCH   2   3
TORSDOF 13
ENDMDL
MODEL      343
REMARK 921   NORMALIZED FREE ENERGY PREDICTED BY IDOCK:   -2.73 KCAL/MOL
REMARK 922        TOTAL FREE ENERGY PREDICTED BY IDOCK:   -6.22 KCAL/MOL
REMARK 923 INTER-LIGAND FREE ENERGY PREDICTED BY IDOCK:   -5.41 KCAL/MOL
REMARK 924 INTRA-LIGAND FREE ENERGY PREDICTED BY IDOCK:   -0.81 KCAL/MOL
REMARK 927      BINDING AFFINITY PREDICTED BY RF-SCORE:    0.00 PKD
ROOT
HETATM    1  C   UNL     1     -11.317  16.187  69.710  1.00  0.00    -0.323 C  
HETATM    2  C   UNL     1     -12.014  14.893  70.093  1.00  0.00    -0.368 C  
ENDROOT
BRANCH   2   3
HETATM    3  C   UNL     1     -13.078  15.136  71.161  1.00  0.00    -0.515 C  
BRANCH   3   4
HETATM    4  C   UNL     1     -13.470  13.834  71.853  1.00  0.00    -0.514 C  
BRANCH   4   5
HETATM    5  C   UNL     1     -12.544  12.696  71.433  1.00  0.00    -0.304 C  
BRANCH   5   6
HETATM    6  C   UNL     1     -13.080  11.351  71.912  1.00  0.00    -0.505 C  
BRANCH   6   7
HETATM    7  C   UNL     1     -12.465  10.208  71.111  1.00  0.00    -0.490 C  
BRANCH   7   8
HETATM    8  C   UNL     1     -12.140   9.025  72.016  1.00  0.00    -0.440 C  
BRANCH   8   9
HETATM    9  C   UNL     1     -10.680   8.612  71.863  1.00  0.00    -0.414 C  
BRANCH   9  10
HETATM   10  C   UNL     1     -10.546   7.460  70.874  1.00  0.00    -0.234 C  
BRANCH  10  11
HETATM   11  C   UNL     1      -9.506   7.775  69.804  1.00  0.00    -0.160 C  
BRANCH  11  12
HETATM   12  C   UNL     1      -9.695   9.191  69.270  1.00  0.00    -0.164 C  
BRANCH  12  13
HETATM   13  C   UNL     1      -8.513  10.083  69.635  1.00  0.00    -0.193 C  
BRANCH  13  14
HETATM   14  C   UNL     1      -8.431  11.283  68.694  1.00  0.00    -0.143 C  
BRANCH  14  15
HETATM   15  C   UNL     1      -7.291  11.124  67.692  1.00  0.00    -0.095 C  
HETATM   16  C   UNL     1      -6.414  12.353  67.644  1.00  0.00    -0.130 C  
HETATM   17  O   UNL     1      -5.398  12.221  66.758  1.00  0.00    -0.332 OA 
HETATM   18  O   UNL     1      -6.572  13.363  68.309  1.00  0.00    -0.083 OA 
ENDBRANCH  14  15
ENDBRANCH  13  14
ENDBRANCH  12  13
ENDBRANCH  11  12
ENDBRANCH  10  11
ENDBRANCH   9  10
ENDBRANCH   8   9
ENDBRANCH   7   8
ENDBRANCH   6   7
ENDBRANCH   5   6
ENDBRANCH   4   5
ENDBRANCH   3   4
ENDBRANCH   2   3
TORSDOF 13
ENDMDL
MODEL      344
REMARK 921   NORMALIZED FREE ENERGY PREDICTED BY IDOCK:   -2.73 KCAL/MOL
REMARK 922        TOTAL FREE ENERGY PREDICTED BY IDOCK:   -6.22 KCAL/MOL
REMARK 923 INTER-LIGAND FREE ENERGY PREDICTED BY IDOCK:   -4.81 KCAL/MOL
REMARK 924 INTRA-LIGAND FREE ENERGY PREDICTED BY IDOCK:   -1.40 KCAL/MOL
REMARK 927      BINDING AFFINITY PREDICTED BY RF-SCORE:    0.00 PKD
ROOT
HETATM    1  C   UNL     1     -10.867  14.327  68.684  1.00  0.00    -0.265 C  
HETATM    2  C   UNL     1     -10.227  13.291  67.776  1.00  0.00    -0.228 C  
ENDROOT
BRANCH   2   3
HETATM    3  C   UNL     1     -11.229  12.206  67.387  1.00  0.00    -0.362 C  
BRANCH   3   4
HETATM    4  C   UNL     1     -10.735  10.825  67.809  1.00  0.00    -0.296 C  
BRANCH   4   5
HETATM    5  C   UNL     1     -11.004  10.582  69.291  1.00  0.00    -0.291 C  
BRANCH   5   6
HETATM    6  C   UNL     1     -12.169  11.436  69.781  1.00  0.00    -0.332 C  
BRANCH   6   7
HETATM    7  C   UNL     1     -12.785  10.835  71.041  1.00  0.00    -0.513 C  
BRANCH   7   8
HETATM    8  C   UNL     1     -11.921   9.702  71.580  1.00  0.00    -0.485 C  
BRANCH   8   9
HETATM    9  C   UNL     1     -12.775   8.669  72.307  1.00  0.00    -0.450 C  
BRANCH   9  10
HETATM   10  C   UNL     1     -12.444   7.260  71.829  1.00  0.00    -0.378 C  
BRANCH  10  11
HETATM   11  C   UNL     1     -11.295   7.279  70.825  1.00  0.00    -0.312 C  
BRANCH  11  12
HETATM   12  C   UNL     1     -11.726   6.655  69.502  1.00  0.00    -0.148 C  
BRANCH  12  13
HETATM   13  C   UNL     1     -10.557   6.571  68.524  1.00  0.00    -0.291 C  
BRANCH  13  14
HETATM   14  C   UNL     1      -9.231   6.793  69.247  1.00  0.00    -0.141 C  
BRANCH  14  15
HETATM   15  C   UNL     1      -8.374   7.830  68.528  1.00  0.00    -0.129 C  
HETATM   16  C   UNL     1      -7.073   7.237  68.039  1.00  0.00    -0.081 C  
HETATM   17  O   UNL     1      -6.306   8.150  67.397  1.00  0.00    -0.054 OA 
HETATM   18  O   UNL     1      -6.721   6.079  68.188  1.00  0.00    -0.059 OA 
ENDBRANCH  14  15
ENDBRANCH  13  14
ENDBRANCH  12  13
ENDBRANCH  11  12
ENDBRANCH  10  11
ENDBRANCH   9  10
ENDBRANCH   8   9
ENDBRANCH   7   8
ENDBRANCH   6   7
ENDBRANCH   5   6
ENDBRANCH   4   5
ENDBRANCH   3   4
ENDBRANCH   2   3
TORSDOF 13
ENDMDL
MODEL      345
REMARK 921   NORMALIZED FREE ENERGY PREDICTED BY IDOCK:   -2.73 KCAL/MOL
REMARK 922        TOTAL FREE ENERGY PREDICTED BY IDOCK:   -6.21 KCAL/MOL
REMARK 923 INTER-LIGAND FREE ENERGY PREDICTED BY IDOCK:   -4.77 KCAL/MOL
REMARK 924 INTRA-LIGAND FREE ENERGY PREDICTED BY IDOCK:   -1.44 KCAL/MOL
REMARK 927      BINDING AFFINITY PREDICTED BY RF-SCORE:    0.00 PKD
ROOT
HETATM    1  C   UNL     1      -5.593   9.318  67.910  1.00  0.00    -0.038 C  
HETATM    2  C   UNL     1      -6.441   8.159  67.415  1.00  0.00    -0.057 C  
ENDROOT
BRANCH   2   3
HETATM    3  C   UNL     1      -7.037   7.376  68.583  1.00  0.00    -0.084 C  
BRANCH   3   4
HETATM    4  C   UNL     1      -8.531   7.139  68.381  1.00  0.00    -0.124 C  
BRANCH   4   5
HETATM    5  C   UNL     1      -9.267   8.460  68.177  1.00  0.00    -0.141 C  
BRANCH   5   6
HETATM    6  C   UNL     1     -10.174   8.396  66.952  1.00  0.00    -0.383 C  
BRANCH   6   7
HETATM    7  C   UNL     1      -9.780   9.461  65.934  1.00  0.00    -0.355 C  
BRANCH   7   8
HETATM    8  C   UNL     1      -9.139  10.660  66.624  1.00  0.00    -0.176 C  
BRANCH   8   9
HETATM    9  C   UNL     1      -9.705  11.965  66.076  1.00  0.00    -0.257 C  
BRANCH   9  10
HETATM   10  C   UNL     1     -11.183  11.813  65.738  1.00  0.00    -0.337 C  
BRANCH  10  11
HETATM   11  C   UNL     1     -11.784  13.145  65.299  1.00  0.00    -0.375 C  
BRANCH  11  12
HETATM   12  C   UNL     1     -10.726  14.020  64.635  1.00  0.00    -0.416 C  
BRANCH  12  13
HETATM   13  C   UNL     1     -10.863  15.477  65.067  1.00  0.00    -0.468 C  
BRANCH  13  14
HETATM   14  C   UNL     1      -9.689  15.890  65.952  1.00  0.00    -0.386 C  
BRANCH  14  15
HETATM   15  C   UNL     1      -9.927  15.496  67.407  1.00  0.00    -0.234 C  
HETATM   16  C   UNL     1     -10.614  16.599  68.178  1.00  0.00    -0.336 C  
HETATM   17  O   UNL     1     -10.831  16.259  69.470  1.00  0.00    -0.297 OA 
HETATM   18  O   UNL     1     -10.948  17.681  67.723  1.00  0.00    -0.309 OA 
ENDBRANCH  14  15
ENDBRANCH  13  14
ENDBRANCH  12  13
ENDBRANCH  11  12
ENDBRANCH  10  11
ENDBRANCH   9  10
ENDBRANCH   8   9
ENDBRANCH   7   8
ENDBRANCH   6   7
ENDBRANCH   5   6
ENDBRANCH   4   5
ENDBRANCH   3   4
ENDBRANCH   2   3
TORSDOF 13
ENDMDL
MODEL      346
REMARK 921   NORMALIZED FREE ENERGY PREDICTED BY IDOCK:   -2.73 KCAL/MOL
REMARK 922        TOTAL FREE ENERGY PREDICTED BY IDOCK:   -6.21 KCAL/MOL
REMARK 923 INTER-LIGAND FREE ENERGY PREDICTED BY IDOCK:   -5.38 KCAL/MOL
REMARK 924 INTRA-LIGAND FREE ENERGY PREDICTED BY IDOCK:   -0.83 KCAL/MOL
REMARK 927      BINDING AFFINITY PREDICTED BY RF-SCORE:    0.00 PKD
ROOT
HETATM    1  C   UNL     1      -9.691   5.623  66.608  1.00  0.00    -0.176 C  
HETATM    2  C   UNL     1     -10.700   5.781  67.732  1.00  0.00    -0.306 C  
ENDROOT
BRANCH   2   3
HETATM    3  C   UNL     1     -10.057   5.514  69.091  1.00  0.00    -0.286 C  
BRANCH   3   4
HETATM    4  C   UNL     1     -10.505   6.545  70.123  1.00  0.00    -0.259 C  
BRANCH   4   5
HETATM    5  C   UNL     1     -10.806   7.885  69.457  1.00  0.00    -0.141 C  
BRANCH   5   6
HETATM    6  C   UNL     1     -10.768   9.020  70.474  1.00  0.00    -0.285 C  
BRANCH   6   7
HETATM    7  C   UNL     1     -10.293  10.314  69.821  1.00  0.00    -0.287 C  
BRANCH   7   8
HETATM    8  C   UNL     1     -11.381  11.380  69.877  1.00  0.00    -0.300 C  
BRANCH   8   9
HETATM    9  C   UNL     1     -11.895  11.701  68.477  1.00  0.00    -0.357 C  
BRANCH   9  10
HETATM   10  C   UNL     1     -11.363  13.048  68.002  1.00  0.00    -0.327 C  
BRANCH  10  11
HETATM   11  C   UNL     1     -11.988  13.443  66.667  1.00  0.00    -0.452 C  
BRANCH  11  12
HETATM   12  C   UNL     1     -10.965  14.147  65.781  1.00  0.00    -0.301 C  
BRANCH  12  13
HETATM   13  C   UNL     1      -9.588  14.170  66.438  1.00  0.00    -0.310 C  
BRANCH  13  14
HETATM   14  C   UNL     1      -8.989  15.574  66.384  1.00  0.00    -0.359 C  
BRANCH  14  15
HETATM   15  C   UNL     1     -10.063  16.642  66.563  1.00  0.00    -0.313 C  
HETATM   16  C   UNL     1      -9.738  17.577  67.704  1.00  0.00    -0.275 C  
HETATM   17  O   UNL     1     -10.686  18.530  67.870  1.00  0.00    -0.385 OA 
HETATM   18  O   UNL     1      -8.749  17.510  68.415  1.00  0.00    -0.262 OA 
ENDBRANCH  14  15
ENDBRANCH  13  14
ENDBRANCH  12  13
ENDBRANCH  11  12
ENDBRANCH  10  11
ENDBRANCH   9  10
ENDBRANCH   8   9
ENDBRANCH   7   8
ENDBRANCH   6   7
ENDBRANCH   5   6
ENDBRANCH   4   5
ENDBRANCH   3   4
ENDBRANCH   2   3
TORSDOF 13
ENDMDL
MODEL      347
REMARK 921   NORMALIZED FREE ENERGY PREDICTED BY IDOCK:   -2.72 KCAL/MOL
REMARK 922        TOTAL FREE ENERGY PREDICTED BY IDOCK:   -6.20 KCAL/MOL
REMARK 923 INTER-LIGAND FREE ENERGY PREDICTED BY IDOCK:   -4.47 KCAL/MOL
REMARK 924 INTRA-LIGAND FREE ENERGY PREDICTED BY IDOCK:   -1.73 KCAL/MOL
REMARK 927      BINDING AFFINITY PREDICTED BY RF-SCORE:    0.00 PKD
ROOT
HETATM    1  C   UNL     1      -9.954   7.940  72.685  1.00  0.00    -0.330 C  
HETATM    2  C   UNL     1     -10.491   8.866  71.606  1.00  0.00    -0.408 C  
ENDROOT
BRANCH   2   3
HETATM    3  C   UNL     1     -11.916   9.312  71.923  1.00  0.00    -0.433 C  
BRANCH   3   4
HETATM    4  C   UNL     1     -12.254  10.619  71.211  1.00  0.00    -0.447 C  
BRANCH   4   5
HETATM    5  C   UNL     1     -11.346  10.828  70.002  1.00  0.00    -0.397 C  
BRANCH   5   6
HETATM    6  C   UNL     1     -12.135  11.374  68.816  1.00  0.00    -0.256 C  
BRANCH   6   7
HETATM    7  C   UNL     1     -11.206  12.064  67.822  1.00  0.00    -0.331 C  
BRANCH   7   8
HETATM    8  C   UNL     1     -10.821  13.454  68.315  1.00  0.00    -0.275 C  
BRANCH   8   9
HETATM    9  C   UNL     1      -9.305  13.609  68.362  1.00  0.00    -0.181 C  
BRANCH   9  10
HETATM   10  C   UNL     1      -8.622  12.247  68.365  1.00  0.00    -0.136 C  
BRANCH  10  11
HETATM   11  C   UNL     1      -7.771  12.058  67.113  1.00  0.00    -0.161 C  
BRANCH  11  12
HETATM   12  C   UNL     1      -7.818  10.608  66.643  1.00  0.00    -0.135 C  
BRANCH  12  13
HETATM   13  C   UNL     1      -8.294   9.681  67.757  1.00  0.00    -0.121 C  
BRANCH  13  14
HETATM   14  C   UNL     1      -8.950   8.431  67.175  1.00  0.00    -0.153 C  
BRANCH  14  15
HETATM   15  C   UNL     1     -10.094   7.942  68.059  1.00  0.00    -0.235 C  
HETATM   16  C   UNL     1      -9.735   6.665  68.782  1.00  0.00    -0.130 C  
HETATM   17  O   UNL     1     -10.743   6.224  69.571  1.00  0.00    -0.236 OA 
HETATM   18  O   UNL     1      -8.672   6.073  68.690  1.00  0.00    -0.111 OA 
ENDBRANCH  14  15
ENDBRANCH  13  14
ENDBRANCH  12  13
ENDBRANCH  11  12
ENDBRANCH  10  11
ENDBRANCH   9  10
ENDBRANCH   8   9
ENDBRANCH   7   8
ENDBRANCH   6   7
ENDBRANCH   5   6
ENDBRANCH   4   5
ENDBRANCH   3   4
ENDBRANCH   2   3
TORSDOF 13
ENDMDL
MODEL      348
REMARK 921   NORMALIZED FREE ENERGY PREDICTED BY IDOCK:   -2.72 KCAL/MOL
REMARK 922        TOTAL FREE ENERGY PREDICTED BY IDOCK:   -6.20 KCAL/MOL
REMARK 923 INTER-LIGAND FREE ENERGY PREDICTED BY IDOCK:   -5.20 KCAL/MOL
REMARK 924 INTRA-LIGAND FREE ENERGY PREDICTED BY IDOCK:   -1.00 KCAL/MOL
REMARK 927      BINDING AFFINITY PREDICTED BY RF-SCORE:    0.00 PKD
ROOT
HETATM    1  C   UNL     1     -14.155   7.342  71.489  1.00  0.00    -0.541 C  
HETATM    2  C   UNL     1     -14.070   8.842  71.718  1.00  0.00    -0.468 C  
ENDROOT
BRANCH   2   3
HETATM    3  C   UNL     1     -12.684   9.375  71.367  1.00  0.00    -0.425 C  
BRANCH   3   4
HETATM    4  C   UNL     1     -12.652  10.900  71.419  1.00  0.00    -0.508 C  
BRANCH   4   5
HETATM    5  C   UNL     1     -11.858  11.467  70.245  1.00  0.00    -0.438 C  
BRANCH   5   6
HETATM    6  C   UNL     1     -11.227  10.348  69.423  1.00  0.00    -0.314 C  
BRANCH   6   7
HETATM    7  C   UNL     1     -11.251  10.690  67.937  1.00  0.00    -0.376 C  
BRANCH   7   8
HETATM    8  C   UNL     1     -10.254   9.832  67.167  1.00  0.00    -0.288 C  
BRANCH   8   9
HETATM    9  C   UNL     1      -9.075  10.672  66.687  1.00  0.00    -0.176 C  
BRANCH   9  10
HETATM   10  C   UNL     1      -7.894  10.537  67.641  1.00  0.00    -0.105 C  
BRANCH  10  11
HETATM   11  C   UNL     1      -7.251  11.895  67.911  1.00  0.00    -0.095 C  
BRANCH  11  12
HETATM   12  C   UNL     1      -8.315  12.981  68.022  1.00  0.00    -0.169 C  
BRANCH  12  13
HETATM   13  C   UNL     1      -7.728  14.276  68.578  1.00  0.00    -0.137 C  
BRANCH  13  14
HETATM   14  C   UNL     1      -8.788  15.374  68.619  1.00  0.00    -0.186 C  
BRANCH  14  15
HETATM   15  C   UNL     1      -8.163  16.736  68.907  1.00  0.00    -0.224 C  
HETATM   16  C   UNL     1      -8.433  17.722  67.794  1.00  0.00    -0.236 C  
HETATM   17  O   UNL     1      -7.884  18.934  68.042  1.00  0.00    -0.263 OA 
HETATM   18  O   UNL     1      -9.067  17.488  66.778  1.00  0.00    -0.246 OA 
ENDBRANCH  14  15
ENDBRANCH  13  14
ENDBRANCH  12  13
ENDBRANCH  11  12
ENDBRANCH  10  11
ENDBRANCH   9  10
ENDBRANCH   8   9
ENDBRANCH   7   8
ENDBRANCH   6   7
ENDBRANCH   5   6
ENDBRANCH   4   5
ENDBRANCH   3   4
ENDBRANCH   2   3
TORSDOF 13
ENDMDL
MODEL      349
REMARK 921   NORMALIZED FREE ENERGY PREDICTED BY IDOCK:   -2.72 KCAL/MOL
REMARK 922        TOTAL FREE ENERGY PREDICTED BY IDOCK:   -6.20 KCAL/MOL
REMARK 923 INTER-LIGAND FREE ENERGY PREDICTED BY IDOCK:   -4.85 KCAL/MOL
REMARK 924 INTRA-LIGAND FREE ENERGY PREDICTED BY IDOCK:   -1.35 KCAL/MOL
REMARK 927      BINDING AFFINITY PREDICTED BY RF-SCORE:    0.00 PKD
ROOT
HETATM    1  C   UNL     1     -11.258  10.426  70.477  1.00  0.00    -0.395 C  
HETATM    2  C   UNL     1     -11.296  10.980  69.063  1.00  0.00    -0.345 C  
ENDROOT
BRANCH   2   3
HETATM    3  C   UNL     1     -10.101  10.492  68.248  1.00  0.00    -0.180 C  
BRANCH   3   4
HETATM    4  C   UNL     1      -9.046   9.853  69.147  1.00  0.00    -0.175 C  
BRANCH   4   5
HETATM    5  C   UNL     1      -7.695  10.540  68.971  1.00  0.00    -0.125 C  
BRANCH   5   6
HETATM    6  C   UNL     1      -7.784  11.663  67.943  1.00  0.00    -0.126 C  
BRANCH   6   7
HETATM    7  C   UNL     1      -7.478  13.011  68.588  1.00  0.00    -0.093 C  
BRANCH   7   8
HETATM    8  C   UNL     1      -8.608  14.002  68.334  1.00  0.00    -0.174 C  
BRANCH   8   9
HETATM    9  C   UNL     1      -8.557  14.524  66.902  1.00  0.00    -0.207 C  
BRANCH   9  10
HETATM   10  C   UNL     1      -8.429  16.043  66.885  1.00  0.00    -0.275 C  
BRANCH  10  11
HETATM   11  C   UNL     1      -9.723  16.696  66.410  1.00  0.00    -0.306 C  
BRANCH  11  12
HETATM   12  C   UNL     1     -10.541  15.722  65.570  1.00  0.00    -0.424 C  
BRANCH  12  13
HETATM   13  C   UNL     1     -11.831  15.325  66.282  1.00  0.00     0.203 C  
BRANCH  13  14
HETATM   14  C   UNL     1     -12.550  14.215  65.519  1.00  0.00    -0.501 C  
BRANCH  14  15
HETATM   15  C   UNL     1     -11.606  13.507  64.551  1.00  0.00    -0.410 C  
HETATM   16  C   UNL     1     -12.283  12.348  63.857  1.00  0.00    -0.513 C  
HETATM   17  O   UNL     1     -11.454  11.714  62.995  1.00  0.00    -0.147 OA 
HETATM   18  O   UNL     1     -13.439  11.996  64.030  1.00  0.00    -0.655 OA 
ENDBRANCH  14  15
ENDBRANCH  13  14
ENDBRANCH  12  13
ENDBRANCH  11  12
ENDBRANCH  10  11
ENDBRANCH   9  10
ENDBRANCH   8   9
ENDBRANCH   7   8
ENDBRANCH   6   7
ENDBRANCH   5   6
ENDBRANCH   4   5
ENDBRANCH   3   4
ENDBRANCH   2   3
TORSDOF 13
ENDMDL
MODEL      350
REMARK 921   NORMALIZED FREE ENERGY PREDICTED BY IDOCK:   -2.72 KCAL/MOL
REMARK 922        TOTAL FREE ENERGY PREDICTED BY IDOCK:   -6.19 KCAL/MOL
REMARK 923 INTER-LIGAND FREE ENERGY PREDICTED BY IDOCK:   -5.33 KCAL/MOL
REMARK 924 INTRA-LIGAND FREE ENERGY PREDICTED BY IDOCK:   -0.87 KCAL/MOL
REMARK 927      BINDING AFFINITY PREDICTED BY RF-SCORE:    0.00 PKD
ROOT
HETATM    1  C   UNL     1      -5.647   7.110  63.900  1.00  0.00    -0.033 C  
HETATM    2  C   UNL     1      -6.027   8.566  63.694  1.00  0.00    -0.072 C  
ENDROOT
BRANCH   2   3
HETATM    3  C   UNL     1      -5.949   9.346  65.004  1.00  0.00    -0.065 C  
BRANCH   3   4
HETATM    4  C   UNL     1      -7.228  10.144  65.247  1.00  0.00    -0.141 C  
BRANCH   4   5
HETATM    5  C   UNL     1      -8.081  10.199  63.982  1.00  0.00    -0.158 C  
BRANCH   5   6
HETATM    6  C   UNL     1      -9.547   9.927  64.302  1.00  0.00    -0.220 C  
BRANCH   6   7
HETATM    7  C   UNL     1     -10.425  11.083  63.832  1.00  0.00    -0.422 C  
BRANCH   7   8
HETATM    8  C   UNL     1     -10.875  11.936  65.012  1.00  0.00    -0.351 C  
BRANCH   8   9
HETATM    9  C   UNL     1     -10.366  13.367  64.870  1.00  0.00    -0.382 C  
BRANCH   9  10
HETATM   10  C   UNL     1     -11.479  14.367  65.161  1.00  0.00    -0.362 C  
BRANCH  10  11
HETATM   11  C   UNL     1     -11.534  14.708  66.647  1.00  0.00    -0.363 C  
BRANCH  11  12
HETATM   12  C   UNL     1     -10.142  14.639  67.266  1.00  0.00    -0.236 C  
BRANCH  12  13
HETATM   13  C   UNL     1      -9.594  16.034  67.554  1.00  0.00    -0.222 C  
BRANCH  13  14
HETATM   14  C   UNL     1     -10.727  16.996  67.906  1.00  0.00    -0.348 C  
BRANCH  14  15
HETATM   15  C   UNL     1     -10.296  18.449  67.727  1.00  0.00    -0.428 C  
HETATM   16  C   UNL     1     -10.348  18.872  66.278  1.00  0.00    -0.453 C  
HETATM   17  O   UNL     1      -9.969  20.161  66.109  1.00  0.00    -0.452 OA 
HETATM   18  O   UNL     1     -10.685  18.163  65.344  1.00  0.00    -0.620 OA 
ENDBRANCH  14  15
ENDBRANCH  13  14
ENDBRANCH  12  13
ENDBRANCH  11  12
ENDBRANCH  10  11
ENDBRANCH   9  10
ENDBRANCH   8   9
ENDBRANCH   7   8
ENDBRANCH   6   7
ENDBRANCH   5   6
ENDBRANCH   4   5
ENDBRANCH   3   4
ENDBRANCH   2   3
TORSDOF 13
ENDMDL
MODEL      351
REMARK 921   NORMALIZED FREE ENERGY PREDICTED BY IDOCK:   -2.72 KCAL/MOL
REMARK 922        TOTAL FREE ENERGY PREDICTED BY IDOCK:   -6.19 KCAL/MOL
REMARK 923 INTER-LIGAND FREE ENERGY PREDICTED BY IDOCK:   -5.10 KCAL/MOL
REMARK 924 INTRA-LIGAND FREE ENERGY PREDICTED BY IDOCK:   -1.08 KCAL/MOL
REMARK 927      BINDING AFFINITY PREDICTED BY RF-SCORE:    0.00 PKD
ROOT
HETATM    1  C   UNL     1      -8.563   8.239  72.978  1.00  0.00    -0.275 C  
HETATM    2  C   UNL     1      -9.634   7.489  72.205  1.00  0.00    -0.190 C  
ENDROOT
BRANCH   2   3
HETATM    3  C   UNL     1      -9.991   6.173  72.892  1.00  0.00    -0.184 C  
BRANCH   3   4
HETATM    4  C   UNL     1     -10.343   5.097  71.870  1.00  0.00    -0.275 C  
BRANCH   4   5
HETATM    5  C   UNL     1     -10.484   5.698  70.474  1.00  0.00    -0.347 C  
BRANCH   5   6
HETATM    6  C   UNL     1      -9.384   5.190  69.548  1.00  0.00    -0.181 C  
BRANCH   6   7
HETATM    7  C   UNL     1      -9.396   5.953  68.227  1.00  0.00    -0.118 C  
BRANCH   7   8
HETATM    8  C   UNL     1     -10.393   7.105  68.276  1.00  0.00    -0.227 C  
BRANCH   8   9
HETATM    9  C   UNL     1     -10.199   8.038  67.085  1.00  0.00    -0.362 C  
BRANCH   9  10
HETATM   10  C   UNL     1     -10.708   9.438  67.407  1.00  0.00    -0.280 C  
BRANCH  10  11
HETATM   11  C   UNL     1     -10.759   9.668  68.914  1.00  0.00    -0.230 C  
BRANCH  11  12
HETATM   12  C   UNL     1     -10.115  11.002  69.277  1.00  0.00    -0.121 C  
BRANCH  12  13
HETATM   13  C   UNL     1     -11.108  12.153  69.138  1.00  0.00    -0.263 C  
BRANCH  13  14
HETATM   14  C   UNL     1     -12.009  12.238  70.368  1.00  0.00    -0.349 C  
BRANCH  14  15
HETATM   15  C   UNL     1     -12.509  13.663  70.591  1.00  0.00    -0.417 C  
HETATM   16  C   UNL     1     -13.464  13.743  71.759  1.00  0.00    -0.376 C  
HETATM   17  O   UNL     1     -13.911  15.004  71.966  1.00  0.00    -0.406 OA 
HETATM   18  O   UNL     1     -13.814  12.804  72.455  1.00  0.00    -0.501 OA 
ENDBRANCH  14  15
ENDBRANCH  13  14
ENDBRANCH  12  13
ENDBRANCH  11  12
ENDBRANCH  10  11
ENDBRANCH   9  10
ENDBRANCH   8   9
ENDBRANCH   7   8
ENDBRANCH   6   7
ENDBRANCH   5   6
ENDBRANCH   4   5
ENDBRANCH   3   4
ENDBRANCH   2   3
TORSDOF 13
ENDMDL
MODEL      352
REMARK 921   NORMALIZED FREE ENERGY PREDICTED BY IDOCK:   -2.71 KCAL/MOL
REMARK 922        TOTAL FREE ENERGY PREDICTED BY IDOCK:   -6.18 KCAL/MOL
REMARK 923 INTER-LIGAND FREE ENERGY PREDICTED BY IDOCK:   -4.79 KCAL/MOL
REMARK 924 INTRA-LIGAND FREE ENERGY PREDICTED BY IDOCK:   -1.40 KCAL/MOL
REMARK 927      BINDING AFFINITY PREDICTED BY RF-SCORE:    0.00 PKD
ROOT
HETATM    1  C   UNL     1     -10.559  10.719  66.156  1.00  0.00    -0.241 C  
HETATM    2  C   UNL     1      -9.876  10.111  64.943  1.00  0.00    -0.390 C  
ENDROOT
BRANCH   2   3
HETATM    3  C   UNL     1      -8.619   9.343  65.346  1.00  0.00    -0.176 C  
BRANCH   3   4
HETATM    4  C   UNL     1      -7.374   9.950  64.705  1.00  0.00    -0.136 C  
BRANCH   4   5
HETATM    5  C   UNL     1      -6.279  10.165  65.746  1.00  0.00    -0.100 C  
BRANCH   5   6
HETATM    6  C   UNL     1      -6.872  10.610  67.079  1.00  0.00    -0.091 C  
BRANCH   6   7
HETATM    7  C   UNL     1      -7.022  12.127  67.123  1.00  0.00    -0.117 C  
BRANCH   7   8
HETATM    8  C   UNL     1      -7.967  12.546  68.243  1.00  0.00    -0.153 C  
BRANCH   8   9
HETATM    9  C   UNL     1      -8.574  13.915  67.955  1.00  0.00    -0.180 C  
BRANCH   9  10
HETATM   10  C   UNL     1     -10.091  13.872  68.091  1.00  0.00    -0.250 C  
BRANCH  10  11
HETATM   11  C   UNL     1     -10.734  15.093  67.439  1.00  0.00    -0.286 C  
BRANCH  11  12
HETATM   12  C   UNL     1     -11.359  15.999  68.494  1.00  0.00    -0.382 C  
BRANCH  12  13
HETATM   13  C   UNL     1     -10.298  16.835  69.205  1.00  0.00    -0.326 C  
BRANCH  13  14
HETATM   14  C   UNL     1     -10.219  18.235  68.600  1.00  0.00    -0.377 C  
BRANCH  14  15
HETATM   15  C   UNL     1      -8.872  18.472  67.924  1.00  0.00    -0.301 C  
HETATM   16  C   UNL     1      -8.988  18.433  66.418  1.00  0.00    -0.249 C  
HETATM   17  O   UNL     1      -7.797  18.644  65.809  1.00  0.00    -0.493 OA 
HETATM   18  O   UNL     1     -10.016  18.237  65.791  1.00  0.00    -0.540 OA 
ENDBRANCH  14  15
ENDBRANCH  13  14
ENDBRANCH  12  13
ENDBRANCH  11  12
ENDBRANCH  10  11
ENDBRANCH   9  10
ENDBRANCH   8   9
ENDBRANCH   7   8
ENDBRANCH   6   7
ENDBRANCH   5   6
ENDBRANCH   4   5
ENDBRANCH   3   4
ENDBRANCH   2   3
TORSDOF 13
ENDMDL
MODEL      353
REMARK 921   NORMALIZED FREE ENERGY PREDICTED BY IDOCK:   -2.71 KCAL/MOL
REMARK 922        TOTAL FREE ENERGY PREDICTED BY IDOCK:   -6.18 KCAL/MOL
REMARK 923 INTER-LIGAND FREE ENERGY PREDICTED BY IDOCK:   -4.49 KCAL/MOL
REMARK 924 INTRA-LIGAND FREE ENERGY PREDICTED BY IDOCK:   -1.69 KCAL/MOL
REMARK 927      BINDING AFFINITY PREDICTED BY RF-SCORE:    0.00 PKD
ROOT
HETATM    1  C   UNL     1      -5.498   9.958  66.905  1.00  0.00    -0.045 C  
HETATM    2  C   UNL     1      -6.323   8.832  66.307  1.00  0.00    -0.061 C  
ENDROOT
BRANCH   2   3
HETATM    3  C   UNL     1      -6.511   7.694  67.307  1.00  0.00    -0.058 C  
BRANCH   3   4
HETATM    4  C   UNL     1      -7.731   6.848  66.955  1.00  0.00    -0.103 C  
BRANCH   4   5
HETATM    5  C   UNL     1      -8.966   7.335  67.708  1.00  0.00    -0.126 C  
BRANCH   5   6
HETATM    6  C   UNL     1     -10.056   7.777  66.738  1.00  0.00    -0.341 C  
BRANCH   6   7
HETATM    7  C   UNL     1     -10.351   9.265  66.900  1.00  0.00    -0.316 C  
BRANCH   7   8
HETATM    8  C   UNL     1      -9.636   9.830  68.121  1.00  0.00    -0.158 C  
BRANCH   8   9
HETATM    9  C   UNL     1      -9.557  11.351  68.046  1.00  0.00    -0.184 C  
BRANCH   9  10
HETATM   10  C   UNL     1     -10.658  11.905  67.150  1.00  0.00    -0.264 C  
BRANCH  10  11
HETATM   11  C   UNL     1     -11.882  12.304  67.970  1.00  0.00    -0.368 C  
BRANCH  11  12
HETATM   12  C   UNL     1     -11.461  12.924  69.298  1.00  0.00    -0.341 C  
BRANCH  12  13
HETATM   13  C   UNL     1     -12.172  12.255  70.471  1.00  0.00    -0.387 C  
BRANCH  13  14
HETATM   14  C   UNL     1     -12.620  10.844  70.096  1.00  0.00    -0.304 C  
BRANCH  14  15
HETATM   15  C   UNL     1     -13.028  10.047  71.331  1.00  0.00    -0.517 C  
HETATM   16  C   UNL     1     -11.901   9.171  71.828  1.00  0.00    -0.383 C  
HETATM   17  O   UNL     1     -12.253   8.460  72.925  1.00  0.00    -0.274 OA 
HETATM   18  O   UNL     1     -10.792   9.089  71.325  1.00  0.00    -0.261 OA 
ENDBRANCH  14  15
ENDBRANCH  13  14
ENDBRANCH  12  13
ENDBRANCH  11  12
ENDBRANCH  10  11
ENDBRANCH   9  10
ENDBRANCH   8   9
ENDBRANCH   7   8
ENDBRANCH   6   7
ENDBRANCH   5   6
ENDBRANCH   4   5
ENDBRANCH   3   4
ENDBRANCH   2   3
TORSDOF 13
ENDMDL
MODEL      354
REMARK 921   NORMALIZED FREE ENERGY PREDICTED BY IDOCK:   -2.71 KCAL/MOL
REMARK 922        TOTAL FREE ENERGY PREDICTED BY IDOCK:   -6.18 KCAL/MOL
REMARK 923 INTER-LIGAND FREE ENERGY PREDICTED BY IDOCK:   -4.60 KCAL/MOL
REMARK 924 INTRA-LIGAND FREE ENERGY PREDICTED BY IDOCK:   -1.58 KCAL/MOL
REMARK 927      BINDING AFFINITY PREDICTED BY RF-SCORE:    0.00 PKD
ROOT
HETATM    1  C   UNL     1     -11.015   6.474  67.041  1.00  0.00    -0.466 C  
HETATM    2  C   UNL     1     -10.403   7.454  68.026  1.00  0.00    -0.247 C  
ENDROOT
BRANCH   2   3
HETATM    3  C   UNL     1     -10.500   8.888  67.509  1.00  0.00    -0.337 C  
BRANCH   3   4
HETATM    4  C   UNL     1     -10.120   9.891  68.594  1.00  0.00    -0.191 C  
BRANCH   4   5
HETATM    5  C   UNL     1     -10.566  11.300  68.211  1.00  0.00    -0.228 C  
BRANCH   5   6
HETATM    6  C   UNL     1     -11.010  11.353  66.753  1.00  0.00    -0.347 C  
BRANCH   6   7
HETATM    7  C   UNL     1      -9.924  11.974  65.881  1.00  0.00    -0.260 C  
BRANCH   7   8
HETATM    8  C   UNL     1     -10.538  12.802  64.758  1.00  0.00    -0.348 C  
BRANCH   8   9
HETATM    9  C   UNL     1     -10.455  14.291  65.078  1.00  0.00    -0.458 C  
BRANCH   9  10
HETATM   10  C   UNL     1     -11.477  14.672  66.143  1.00  0.00    -0.339 C  
BRANCH  10  11
HETATM   11  C   UNL     1     -10.896  15.692  67.118  1.00  0.00    -0.297 C  
BRANCH  11  12
HETATM   12  C   UNL     1      -9.816  15.054  67.985  1.00  0.00    -0.218 C  
BRANCH  12  13
HETATM   13  C   UNL     1      -8.521  15.861  67.939  1.00  0.00    -0.164 C  
BRANCH  13  14
HETATM   14  C   UNL     1      -7.387  15.028  67.346  1.00  0.00    -0.231 C  
BRANCH  14  15
HETATM   15  C   UNL     1      -7.361  13.624  67.942  1.00  0.00    -0.148 C  
HETATM   16  C   UNL     1      -6.389  13.525  69.095  1.00  0.00    -0.101 C  
HETATM   17  O   UNL     1      -6.360  12.282  69.631  1.00  0.00    -0.124 OA 
HETATM   18  O   UNL     1      -5.696  14.435  69.519  1.00  0.00    -0.091 OA 
ENDBRANCH  14  15
ENDBRANCH  13  14
ENDBRANCH  12  13
ENDBRANCH  11  12
ENDBRANCH  10  11
ENDBRANCH   9  10
ENDBRANCH   8   9
ENDBRANCH   7   8
ENDBRANCH   6   7
ENDBRANCH   5   6
ENDBRANCH   4   5
ENDBRANCH   3   4
ENDBRANCH   2   3
TORSDOF 13
ENDMDL
MODEL      355
REMARK 921   NORMALIZED FREE ENERGY PREDICTED BY IDOCK:   -2.70 KCAL/MOL
REMARK 922        TOTAL FREE ENERGY PREDICTED BY IDOCK:   -6.16 KCAL/MOL
REMARK 923 INTER-LIGAND FREE ENERGY PREDICTED BY IDOCK:   -4.80 KCAL/MOL
REMARK 924 INTRA-LIGAND FREE ENERGY PREDICTED BY IDOCK:   -1.36 KCAL/MOL
REMARK 927      BINDING AFFINITY PREDICTED BY RF-SCORE:    0.00 PKD
ROOT
HETATM    1  C   UNL     1      -9.901  10.895  63.567  1.00  0.00    -0.407 C  
HETATM    2  C   UNL     1     -10.753  11.348  64.741  1.00  0.00    -0.362 C  
ENDROOT
BRANCH   2   3
HETATM    3  C   UNL     1     -10.325  10.654  66.032  1.00  0.00    -0.290 C  
BRANCH   3   4
HETATM    4  C   UNL     1      -9.571   9.361  65.737  1.00  0.00    -0.340 C  
BRANCH   4   5
HETATM    5  C   UNL     1     -10.093   8.219  66.605  1.00  0.00    -0.351 C  
BRANCH   5   6
HETATM    6  C   UNL     1     -10.056   8.596  68.082  1.00  0.00    -0.236 C  
BRANCH   6   7
HETATM    7  C   UNL     1      -9.301   7.544  68.889  1.00  0.00    -0.142 C  
BRANCH   7   8
HETATM    8  C   UNL     1      -9.900   6.160  68.670  1.00  0.00    -0.160 C  
BRANCH   8   9
HETATM    9  C   UNL     1     -11.243   6.035  69.382  1.00  0.00    -0.397 C  
BRANCH   9  10
HETATM   10  C   UNL     1     -11.045   5.852  70.882  1.00  0.00    -0.312 C  
BRANCH  10  11
HETATM   11  C   UNL     1     -11.814   6.908  71.669  1.00  0.00    -0.363 C  
BRANCH  11  12
HETATM   12  C   UNL     1     -10.944   7.496  72.775  1.00  0.00    -0.410 C  
BRANCH  12  13
HETATM   13  C   UNL     1     -10.188   8.729  72.288  1.00  0.00    -0.310 C  
BRANCH  13  14
HETATM   14  C   UNL     1      -8.708   8.410  72.087  1.00  0.00    -0.272 C  
BRANCH  14  15
HETATM   15  C   UNL     1      -8.119   7.718  73.313  1.00  0.00    -0.195 C  
HETATM   16  C   UNL     1      -7.345   6.477  72.934  1.00  0.00    -0.086 C  
HETATM   17  O   UNL     1      -6.817   5.856  74.015  1.00  0.00    -0.079 OA 
HETATM   18  O   UNL     1      -7.193   6.053  71.800  1.00  0.00    -0.083 OA 
ENDBRANCH  14  15
ENDBRANCH  13  14
ENDBRANCH  12  13
ENDBRANCH  11  12
ENDBRANCH  10  11
ENDBRANCH   9  10
ENDBRANCH   8   9
ENDBRANCH   7   8
ENDBRANCH   6   7
ENDBRANCH   5   6
ENDBRANCH   4   5
ENDBRANCH   3   4
ENDBRANCH   2   3
TORSDOF 13
ENDMDL
MODEL      356
REMARK 921   NORMALIZED FREE ENERGY PREDICTED BY IDOCK:   -2.69 KCAL/MOL
REMARK 922        TOTAL FREE ENERGY PREDICTED BY IDOCK:   -6.15 KCAL/MOL
REMARK 923 INTER-LIGAND FREE ENERGY PREDICTED BY IDOCK:   -5.49 KCAL/MOL
REMARK 924 INTRA-LIGAND FREE ENERGY PREDICTED BY IDOCK:   -0.66 KCAL/MOL
REMARK 927      BINDING AFFINITY PREDICTED BY RF-SCORE:    0.00 PKD
ROOT
HETATM    1  C   UNL     1     -10.908   6.234  67.045  1.00  0.00    -0.458 C  
HETATM    2  C   UNL     1      -9.943   7.238  67.652  1.00  0.00    -0.207 C  
ENDROOT
BRANCH   2   3
HETATM    3  C   UNL     1     -10.510   8.655  67.589  1.00  0.00    -0.311 C  
BRANCH   3   4
HETATM    4  C   UNL     1      -9.409   9.678  67.327  1.00  0.00    -0.163 C  
BRANCH   4   5
HETATM    5  C   UNL     1      -9.738  11.011  67.993  1.00  0.00    -0.181 C  
BRANCH   5   6
HETATM    6  C   UNL     1     -11.162  11.447  67.665  1.00  0.00    -0.346 C  
BRANCH   6   7
HETATM    7  C   UNL     1     -11.357  11.563  66.157  1.00  0.00    -0.200 C  
BRANCH   7   8
HETATM    8  C   UNL     1     -12.212  12.777  65.813  1.00  0.00    -0.469 C  
BRANCH   8   9
HETATM    9  C   UNL     1     -11.458  14.069  66.110  1.00  0.00    -0.350 C  
BRANCH   9  10
HETATM   10  C   UNL     1     -10.855  14.648  64.836  1.00  0.00    -0.436 C  
BRANCH  10  11
HETATM   11  C   UNL     1     -11.001  16.166  64.801  1.00  0.00    -0.330 C  
BRANCH  11  12
HETATM   12  C   UNL     1     -10.625  16.773  66.149  1.00  0.00    -0.212 C  
BRANCH  12  13
HETATM   13  C   UNL     1      -9.119  16.707  66.385  1.00  0.00    -0.325 C  
BRANCH  13  14
HETATM   14  C   UNL     1      -8.783  17.072  67.829  1.00  0.00    -0.222 C  
BRANCH  14  15
HETATM   15  C   UNL     1      -9.792  18.064  68.399  1.00  0.00    -0.369 C  
HETATM   16  C   UNL     1      -9.173  19.424  68.624  1.00  0.00    -0.378 C  
HETATM   17  O   UNL     1     -10.061  20.312  69.128  1.00  0.00    -0.205 OA 
HETATM   18  O   UNL     1      -8.013  19.722  68.391  1.00  0.00    -0.325 OA 
ENDBRANCH  14  15
ENDBRANCH  13  14
ENDBRANCH  12  13
ENDBRANCH  11  12
ENDBRANCH  10  11
ENDBRANCH   9  10
ENDBRANCH   8   9
ENDBRANCH   7   8
ENDBRANCH   6   7
ENDBRANCH   5   6
ENDBRANCH   4   5
ENDBRANCH   3   4
ENDBRANCH   2   3
TORSDOF 13
ENDMDL
MODEL      357
REMARK 921   NORMALIZED FREE ENERGY PREDICTED BY IDOCK:   -2.69 KCAL/MOL
REMARK 922        TOTAL FREE ENERGY PREDICTED BY IDOCK:   -6.15 KCAL/MOL
REMARK 923 INTER-LIGAND FREE ENERGY PREDICTED BY IDOCK:   -4.96 KCAL/MOL
REMARK 924 INTRA-LIGAND FREE ENERGY PREDICTED BY IDOCK:   -1.18 KCAL/MOL
REMARK 927      BINDING AFFINITY PREDICTED BY RF-SCORE:    0.00 PKD
ROOT
HETATM    1  C   UNL     1     -13.412   7.366  71.464  1.00  0.00    -0.445 C  
HETATM    2  C   UNL     1     -12.091   7.585  72.181  1.00  0.00    -0.305 C  
ENDROOT
BRANCH   2   3
HETATM    3  C   UNL     1     -10.909   7.308  71.255  1.00  0.00    -0.255 C  
BRANCH   3   4
HETATM    4  C   UNL     1     -11.377   6.711  69.931  1.00  0.00    -0.422 C  
BRANCH   4   5
HETATM    5  C   UNL     1     -10.561   7.267  68.767  1.00  0.00    -0.202 C  
BRANCH   5   6
HETATM    6  C   UNL     1      -9.825   8.539  69.176  1.00  0.00    -0.186 C  
BRANCH   6   7
HETATM    7  C   UNL     1     -10.125   9.673  68.200  1.00  0.00    -0.205 C  
BRANCH   7   8
HETATM    8  C   UNL     1     -11.368  10.443  68.630  1.00  0.00    -0.277 C  
BRANCH   8   9
HETATM    9  C   UNL     1     -11.739  11.494  67.589  1.00  0.00    -0.283 C  
BRANCH   9  10
HETATM   10  C   UNL     1     -10.581  11.733  66.627  1.00  0.00    -0.275 C  
BRANCH  10  11
HETATM   11  C   UNL     1     -10.810  12.992  65.797  1.00  0.00    -0.292 C  
BRANCH  11  12
HETATM   12  C   UNL     1     -11.917  13.845  66.407  1.00  0.00    -0.467 C  
BRANCH  12  13
HETATM   13  C   UNL     1     -11.440  15.273  66.658  1.00  0.00    -0.107 C  
BRANCH  13  14
HETATM   14  C   UNL     1      -9.962  15.419  66.302  1.00  0.00    -0.308 C  
BRANCH  14  15
HETATM   15  C   UNL     1      -9.134  15.812  67.522  1.00  0.00    -0.201 C  
HETATM   16  C   UNL     1      -8.647  17.239  67.430  1.00  0.00    -0.205 C  
HETATM   17  O   UNL     1      -7.912  17.598  68.509  1.00  0.00    -0.267 OA 
HETATM   18  O   UNL     1      -8.869  18.006  66.508  1.00  0.00    -0.260 OA 
ENDBRANCH  14  15
ENDBRANCH  13  14
ENDBRANCH  12  13
ENDBRANCH  11  12
ENDBRANCH  10  11
ENDBRANCH   9  10
ENDBRANCH   8   9
ENDBRANCH   7   8
ENDBRANCH   6   7
ENDBRANCH   5   6
ENDBRANCH   4   5
ENDBRANCH   3   4
ENDBRANCH   2   3
TORSDOF 13
ENDMDL
MODEL      358
REMARK 921   NORMALIZED FREE ENERGY PREDICTED BY IDOCK:   -2.69 KCAL/MOL
REMARK 922        TOTAL FREE ENERGY PREDICTED BY IDOCK:   -6.14 KCAL/MOL
REMARK 923 INTER-LIGAND FREE ENERGY PREDICTED BY IDOCK:   -4.89 KCAL/MOL
REMARK 924 INTRA-LIGAND FREE ENERGY PREDICTED BY IDOCK:   -1.24 KCAL/MOL
REMARK 927      BINDING AFFINITY PREDICTED BY RF-SCORE:    0.00 PKD
ROOT
HETATM    1  C   UNL     1     -14.406  14.831  71.833  1.00  0.00    -0.657 C  
HETATM    2  C   UNL     1     -13.072  14.348  72.377  1.00  0.00    -0.500 C  
ENDROOT
BRANCH   2   3
HETATM    3  C   UNL     1     -12.365  13.438  71.375  1.00  0.00    -0.214 C  
BRANCH   3   4
HETATM    4  C   UNL     1     -12.880  12.005  71.475  1.00  0.00    -0.403 C  
BRANCH   4   5
HETATM    5  C   UNL     1     -12.002  11.056  70.664  1.00  0.00    -0.464 C  
BRANCH   5   6
HETATM    6  C   UNL     1     -12.555   9.635  70.702  1.00  0.00    -0.125 C  
BRANCH   6   7
HETATM    7  C   UNL     1     -11.457   8.638  71.059  1.00  0.00    -0.324 C  
BRANCH   7   8
HETATM    8  C   UNL     1     -11.515   7.419  70.146  1.00  0.00    -0.154 C  
BRANCH   8   9
HETATM    9  C   UNL     1     -10.133   6.790  69.997  1.00  0.00    -0.200 C  
BRANCH   9  10
HETATM   10  C   UNL     1      -9.836   6.480  68.535  1.00  0.00    -0.140 C  
BRANCH  10  11
HETATM   11  C   UNL     1      -8.602   7.238  68.055  1.00  0.00    -0.125 C  
BRANCH  11  12
HETATM   12  C   UNL     1      -8.997   8.361  67.101  1.00  0.00    -0.153 C  
BRANCH  12  13
HETATM   13  C   UNL     1      -8.720   9.731  67.715  1.00  0.00    -0.129 C  
BRANCH  13  14
HETATM   14  C   UNL     1     -10.026  10.437  68.070  1.00  0.00    -0.178 C  
BRANCH  14  15
HETATM   15  C   UNL     1     -10.895  10.650  66.834  1.00  0.00    -0.267 C  
HETATM   16  C   UNL     1     -10.822  12.077  66.340  1.00  0.00    -0.278 C  
HETATM   17  O   UNL     1     -11.589  12.276  65.242  1.00  0.00    -0.342 OA 
HETATM   18  O   UNL     1     -10.163  12.970  66.847  1.00  0.00    -0.239 OA 
ENDBRANCH  14  15
ENDBRANCH  13  14
ENDBRANCH  12  13
ENDBRANCH  11  12
ENDBRANCH  10  11
ENDBRANCH   9  10
ENDBRANCH   8   9
ENDBRANCH   7   8
ENDBRANCH   6   7
ENDBRANCH   5   6
ENDBRANCH   4   5
ENDBRANCH   3   4
ENDBRANCH   2   3
TORSDOF 13
ENDMDL
MODEL      359
REMARK 921   NORMALIZED FREE ENERGY PREDICTED BY IDOCK:   -2.68 KCAL/MOL
REMARK 922        TOTAL FREE ENERGY PREDICTED BY IDOCK:   -6.12 KCAL/MOL
REMARK 923 INTER-LIGAND FREE ENERGY PREDICTED BY IDOCK:   -4.95 KCAL/MOL
REMARK 924 INTRA-LIGAND FREE ENERGY PREDICTED BY IDOCK:   -1.17 KCAL/MOL
REMARK 927      BINDING AFFINITY PREDICTED BY RF-SCORE:    0.00 PKD
ROOT
HETATM    1  C   UNL     1     -13.111  14.198  65.558  1.00  0.00    -0.166 C  
HETATM    2  C   UNL     1     -12.341  13.377  66.579  1.00  0.00    -0.354 C  
ENDROOT
BRANCH   2   3
HETATM    3  C   UNL     1     -10.837  13.597  66.441  1.00  0.00    -0.290 C  
BRANCH   3   4
HETATM    4  C   UNL     1     -10.482  14.127  65.054  1.00  0.00    -0.447 C  
BRANCH   4   5
HETATM    5  C   UNL     1      -9.833  13.036  64.206  1.00  0.00     0.082 C  
BRANCH   5   6
HETATM    6  C   UNL     1     -10.889  12.198  63.494  1.00  0.00    -0.518 C  
BRANCH   6   7
HETATM    7  C   UNL     1     -10.479  10.730  63.458  1.00  0.00    -0.141 C  
BRANCH   7   8
HETATM    8  C   UNL     1      -9.374  10.451  64.470  1.00  0.00    -0.313 C  
BRANCH   8   9
HETATM    9  C   UNL     1      -9.899   9.607  65.626  1.00  0.00    -0.369 C  
BRANCH   9  10
HETATM   10  C   UNL     1      -8.790   9.321  66.632  1.00  0.00    -0.146 C  
BRANCH  10  11
HETATM   11  C   UNL     1      -9.069   8.033  67.402  1.00  0.00    -0.147 C  
BRANCH  11  12
HETATM   12  C   UNL     1     -10.553   7.915  67.733  1.00  0.00    -0.244 C  
BRANCH  12  13
HETATM   13  C   UNL     1     -11.027   6.466  67.642  1.00  0.00    -0.441 C  
BRANCH  13  14
HETATM   14  C   UNL     1     -10.778   5.734  68.959  1.00  0.00    -0.354 C  
BRANCH  14  15
HETATM   15  C   UNL     1     -11.513   6.407  70.114  1.00  0.00    -0.484 C  
HETATM   16  C   UNL     1     -10.581   6.723  71.261  1.00  0.00    -0.219 C  
HETATM   17  O   UNL     1     -11.224   7.322  72.291  1.00  0.00    -0.246 OA 
HETATM   18  O   UNL     1      -9.385   6.482  71.290  1.00  0.00    -0.156 OA 
ENDBRANCH  14  15
ENDBRANCH  13  14
ENDBRANCH  12  13
ENDBRANCH  11  12
ENDBRANCH  10  11
ENDBRANCH   9  10
ENDBRANCH   8   9
ENDBRANCH   7   8
ENDBRANCH   6   7
ENDBRANCH   5   6
ENDBRANCH   4   5
ENDBRANCH   3   4
ENDBRANCH   2   3
TORSDOF 13
ENDMDL
MODEL      360
REMARK 921   NORMALIZED FREE ENERGY PREDICTED BY IDOCK:   -2.68 KCAL/MOL
REMARK 922        TOTAL FREE ENERGY PREDICTED BY IDOCK:   -6.12 KCAL/MOL
REMARK 923 INTER-LIGAND FREE ENERGY PREDICTED BY IDOCK:   -4.57 KCAL/MOL
REMARK 924 INTRA-LIGAND FREE ENERGY PREDICTED BY IDOCK:   -1.55 KCAL/MOL
REMARK 927      BINDING AFFINITY PREDICTED BY RF-SCORE:    0.00 PKD
ROOT
HETATM    1  C   UNL     1      -7.572  10.177  67.226  1.00  0.00    -0.095 C  
HETATM    2  C   UNL     1      -7.383   8.681  67.416  1.00  0.00    -0.089 C  
ENDROOT
BRANCH   2   3
HETATM    3  C   UNL     1      -7.664   8.270  68.859  1.00  0.00    -0.102 C  
BRANCH   3   4
HETATM    4  C   UNL     1      -7.548   6.758  69.032  1.00  0.00    -0.101 C  
BRANCH   4   5
HETATM    5  C   UNL     1      -8.212   6.308  70.331  1.00  0.00    -0.121 C  
BRANCH   5   6
HETATM    6  C   UNL     1      -7.528   6.940  71.539  1.00  0.00    -0.086 C  
BRANCH   6   7
HETATM    7  C   UNL     1      -7.812   6.134  72.802  1.00  0.00    -0.106 C  
BRANCH   7   8
HETATM    8  C   UNL     1      -8.461   7.007  73.869  1.00  0.00    -0.172 C  
BRANCH   8   9
HETATM    9  C   UNL     1      -9.467   7.968  73.242  1.00  0.00    -0.336 C  
BRANCH   9  10
HETATM   10  C   UNL     1     -10.863   7.358  73.233  1.00  0.00    -0.417 C  
BRANCH  10  11
HETATM   11  C   UNL     1     -11.781   8.105  72.270  1.00  0.00    -0.439 C  
BRANCH  11  12
HETATM   12  C   UNL     1     -10.987   8.657  71.090  1.00  0.00    -0.320 C  
BRANCH  12  13
HETATM   13  C   UNL     1     -11.401  10.090  70.767  1.00  0.00    -0.439 C  
BRANCH  13  14
HETATM   14  C   UNL     1     -10.605  10.627  69.581  1.00  0.00    -0.260 C  
BRANCH  14  15
HETATM   15  C   UNL     1     -11.490  10.793  68.349  1.00  0.00    -0.358 C  
HETATM   16  C   UNL     1     -11.414  12.195  67.791  1.00  0.00    -0.332 C  
HETATM   17  O   UNL     1     -12.195  12.352  66.696  1.00  0.00    -0.562 OA 
HETATM   18  O   UNL     1     -10.741  13.104  68.248  1.00  0.00    -0.230 OA 
ENDBRANCH  14  15
ENDBRANCH  13  14
ENDBRANCH  12  13
ENDBRANCH  11  12
ENDBRANCH  10  11
ENDBRANCH   9  10
ENDBRANCH   8   9
ENDBRANCH   7   8
ENDBRANCH   6   7
ENDBRANCH   5   6
ENDBRANCH   4   5
ENDBRANCH   3   4
ENDBRANCH   2   3
TORSDOF 13
ENDMDL
MODEL      361
REMARK 921   NORMALIZED FREE ENERGY PREDICTED BY IDOCK:   -2.67 KCAL/MOL
REMARK 922        TOTAL FREE ENERGY PREDICTED BY IDOCK:   -6.11 KCAL/MOL
REMARK 923 INTER-LIGAND FREE ENERGY PREDICTED BY IDOCK:   -4.20 KCAL/MOL
REMARK 924 INTRA-LIGAND FREE ENERGY PREDICTED BY IDOCK:   -1.92 KCAL/MOL
REMARK 927      BINDING AFFINITY PREDICTED BY RF-SCORE:    0.00 PKD
ROOT
HETATM    1  C   UNL     1     -10.622  11.153  65.757  1.00  0.00    -0.289 C  
HETATM    2  C   UNL     1     -10.172   9.895  66.480  1.00  0.00    -0.292 C  
ENDROOT
BRANCH   2   3
HETATM    3  C   UNL     1      -9.175  10.223  67.588  1.00  0.00    -0.154 C  
BRANCH   3   4
HETATM    4  C   UNL     1      -7.917   9.368  67.468  1.00  0.00    -0.102 C  
BRANCH   4   5
HETATM    5  C   UNL     1      -7.297   9.505  66.080  1.00  0.00    -0.093 C  
BRANCH   5   6
HETATM    6  C   UNL     1      -6.842   8.150  65.550  1.00  0.00    -0.062 C  
BRANCH   6   7
HETATM    7  C   UNL     1      -6.631   7.166  66.696  1.00  0.00    -0.055 C  
BRANCH   7   8
HETATM    8  C   UNL     1      -7.384   5.866  66.439  1.00  0.00    -0.078 C  
BRANCH   8   9
HETATM    9  C   UNL     1      -8.606   5.761  67.346  1.00  0.00    -0.105 C  
BRANCH   9  10
HETATM   10  C   UNL     1      -9.863   6.214  66.613  1.00  0.00    -0.202 C  
BRANCH  10  11
HETATM   11  C   UNL     1     -10.995   6.501  67.594  1.00  0.00    -0.426 C  
BRANCH  11  12
HETATM   12  C   UNL     1     -10.477   6.504  69.028  1.00  0.00    -0.252 C  
BRANCH  12  13
HETATM   13  C   UNL     1     -10.631   7.880  69.670  1.00  0.00    -0.234 C  
BRANCH  13  14
HETATM   14  C   UNL     1     -10.754   7.757  71.187  1.00  0.00    -0.245 C  
BRANCH  14  15
HETATM   15  C   UNL     1     -11.636   8.861  71.763  1.00  0.00    -0.422 C  
HETATM   16  C   UNL     1     -13.072   8.412  71.905  1.00  0.00    -0.358 C  
HETATM   17  O   UNL     1     -13.862   9.385  72.417  1.00  0.00    -0.451 OA 
HETATM   18  O   UNL     1     -13.504   7.311  71.604  1.00  0.00    -0.375 OA 
ENDBRANCH  14  15
ENDBRANCH  13  14
ENDBRANCH  12  13
ENDBRANCH  11  12
ENDBRANCH  10  11
ENDBRANCH   9  10
ENDBRANCH   8   9
ENDBRANCH   7   8
ENDBRANCH   6   7
ENDBRANCH   5   6
ENDBRANCH   4   5
ENDBRANCH   3   4
ENDBRANCH   2   3
TORSDOF 13
ENDMDL
MODEL      362
REMARK 921   NORMALIZED FREE ENERGY PREDICTED BY IDOCK:   -2.67 KCAL/MOL
REMARK 922        TOTAL FREE ENERGY PREDICTED BY IDOCK:   -6.10 KCAL/MOL
REMARK 923 INTER-LIGAND FREE ENERGY PREDICTED BY IDOCK:   -4.93 KCAL/MOL
REMARK 924 INTRA-LIGAND FREE ENERGY PREDICTED BY IDOCK:   -1.16 KCAL/MOL
REMARK 927      BINDING AFFINITY PREDICTED BY RF-SCORE:    0.00 PKD
ROOT
HETATM    1  C   UNL     1      -7.197  15.059  69.184  1.00  0.00    -0.159 C  
HETATM    2  C   UNL     1      -5.742  14.809  69.543  1.00  0.00    -0.098 C  
ENDROOT
BRANCH   2   3
HETATM    3  C   UNL     1      -5.152  13.684  68.697  1.00  0.00    -0.076 C  
BRANCH   3   4
HETATM    4  C   UNL     1      -6.113  13.267  67.587  1.00  0.00    -0.140 C  
BRANCH   4   5
HETATM    5  C   UNL     1      -6.435  11.778  67.679  1.00  0.00    -0.082 C  
BRANCH   5   6
HETATM    6  C   UNL     1      -7.920  11.557  67.948  1.00  0.00    -0.126 C  
BRANCH   6   7
HETATM    7  C   UNL     1      -8.406  10.277  67.275  1.00  0.00    -0.121 C  
BRANCH   7   8
HETATM    8  C   UNL     1      -9.301  10.597  66.084  1.00  0.00    -0.207 C  
BRANCH   8   9
HETATM    9  C   UNL     1     -10.099  11.872  66.335  1.00  0.00    -0.241 C  
BRANCH   9  10
HETATM   10  C   UNL     1     -11.336  11.579  67.176  1.00  0.00    -0.354 C  
BRANCH  10  11
HETATM   11  C   UNL     1     -11.423  12.524  68.370  1.00  0.00    -0.355 C  
BRANCH  11  12
HETATM   12  C   UNL     1     -12.126  13.820  67.979  1.00  0.00    -0.315 C  
BRANCH  12  13
HETATM   13  C   UNL     1     -11.186  15.017  68.099  1.00  0.00    -0.316 C  
BRANCH  13  14
HETATM   14  C   UNL     1     -10.187  15.036  66.944  1.00  0.00    -0.258 C  
BRANCH  14  15
HETATM   15  C   UNL     1     -10.900  15.108  65.597  1.00  0.00    -0.367 C  
HETATM   16  C   UNL     1     -10.715  16.456  64.938  1.00  0.00    -0.191 C  
HETATM   17  O   UNL     1     -11.343  16.529  63.741  1.00  0.00    -0.966 OA 
HETATM   18  O   UNL     1     -10.083  17.391  65.402  1.00  0.00    -0.562 OA 
ENDBRANCH  14  15
ENDBRANCH  13  14
ENDBRANCH  12  13
ENDBRANCH  11  12
ENDBRANCH  10  11
ENDBRANCH   9  10
ENDBRANCH   8   9
ENDBRANCH   7   8
ENDBRANCH   6   7
ENDBRANCH   5   6
ENDBRANCH   4   5
ENDBRANCH   3   4
ENDBRANCH   2   3
TORSDOF 13
ENDMDL
MODEL      363
REMARK 921   NORMALIZED FREE ENERGY PREDICTED BY IDOCK:   -2.66 KCAL/MOL
REMARK 922        TOTAL FREE ENERGY PREDICTED BY IDOCK:   -6.10 KCAL/MOL
REMARK 923 INTER-LIGAND FREE ENERGY PREDICTED BY IDOCK:   -4.85 KCAL/MOL
REMARK 924 INTRA-LIGAND FREE ENERGY PREDICTED BY IDOCK:   -1.25 KCAL/MOL
REMARK 927      BINDING AFFINITY PREDICTED BY RF-SCORE:    0.00 PKD
ROOT
HETATM    1  C   UNL     1      -7.075   9.529  67.465  1.00  0.00    -0.085 C  
HETATM    2  C   UNL     1      -7.994   9.214  66.297  1.00  0.00    -0.103 C  
ENDROOT
BRANCH   2   3
HETATM    3  C   UNL     1      -9.385   9.805  66.515  1.00  0.00    -0.207 C  
BRANCH   3   4
HETATM    4  C   UNL     1     -10.124   9.974  65.191  1.00  0.00    -0.268 C  
BRANCH   4   5
HETATM    5  C   UNL     1     -10.128  11.436  64.754  1.00  0.00    -0.326 C  
BRANCH   5   6
HETATM    6  C   UNL     1     -11.049  11.644  63.556  1.00  0.00    -0.476 C  
BRANCH   6   7
HETATM    7  C   UNL     1     -12.390  12.219  64.000  1.00  0.00    -0.569 C  
BRANCH   7   8
HETATM    8  C   UNL     1     -12.220  13.111  65.224  1.00  0.00    -0.502 C  
BRANCH   8   9
HETATM    9  C   UNL     1     -12.458  14.574  64.863  1.00  0.00    -0.321 C  
BRANCH   9  10
HETATM   10  C   UNL     1     -11.169  15.378  64.988  1.00  0.00    -0.393 C  
BRANCH  10  11
HETATM   11  C   UNL     1     -10.760  15.533  66.449  1.00  0.00    -0.303 C  
BRANCH  11  12
HETATM   12  C   UNL     1      -9.258  15.328  66.613  1.00  0.00    -0.302 C  
BRANCH  12  13
HETATM   13  C   UNL     1      -8.956  14.261  67.661  1.00  0.00    -0.194 C  
BRANCH  13  14
HETATM   14  C   UNL     1      -7.457  14.191  67.943  1.00  0.00    -0.158 C  
BRANCH  14  15
HETATM   15  C   UNL     1      -6.775  15.523  67.648  1.00  0.00    -0.205 C  
HETATM   16  C   UNL     1      -6.315  16.207  68.915  1.00  0.00    -0.129 C  
HETATM   17  O   UNL     1      -5.707  17.391  68.663  1.00  0.00    -0.152 OA 
HETATM   18  O   UNL     1      -6.459  15.775  70.047  1.00  0.00    -0.157 OA 
ENDBRANCH  14  15
ENDBRANCH  13  14
ENDBRANCH  12  13
ENDBRANCH  11  12
ENDBRANCH  10  11
ENDBRANCH   9  10
ENDBRANCH   8   9
ENDBRANCH   7   8
ENDBRANCH   6   7
ENDBRANCH   5   6
ENDBRANCH   4   5
ENDBRANCH   3   4
ENDBRANCH   2   3
TORSDOF 13
ENDMDL
MODEL      364
REMARK 921   NORMALIZED FREE ENERGY PREDICTED BY IDOCK:   -2.66 KCAL/MOL
REMARK 922        TOTAL FREE ENERGY PREDICTED BY IDOCK:   -6.09 KCAL/MOL
REMARK 923 INTER-LIGAND FREE ENERGY PREDICTED BY IDOCK:   -4.75 KCAL/MOL
REMARK 924 INTRA-LIGAND FREE ENERGY PREDICTED BY IDOCK:   -1.34 KCAL/MOL
REMARK 927      BINDING AFFINITY PREDICTED BY RF-SCORE:    0.00 PKD
ROOT
HETATM    1  C   UNL     1      -9.554   2.842  70.613  1.00  0.00    -0.184 C  
HETATM    2  C   UNL     1      -8.910   2.888  69.238  1.00  0.00    -0.152 C  
ENDROOT
BRANCH   2   3
HETATM    3  C   UNL     1      -9.674   3.822  68.303  1.00  0.00    -0.099 C  
BRANCH   3   4
HETATM    4  C   UNL     1      -8.874   5.090  68.019  1.00  0.00    -0.109 C  
BRANCH   4   5
HETATM    5  C   UNL     1      -9.749   6.330  68.174  1.00  0.00    -0.123 C  
BRANCH   5   6
HETATM    6  C   UNL     1     -10.996   6.018  68.995  1.00  0.00    -0.409 C  
BRANCH   6   7
HETATM    7  C   UNL     1     -10.972   6.772  70.321  1.00  0.00    -0.339 C  
BRANCH   7   8
HETATM    8  C   UNL     1      -9.625   7.452  70.533  1.00  0.00    -0.172 C  
BRANCH   8   9
HETATM    9  C   UNL     1      -9.813   8.912  70.932  1.00  0.00    -0.304 C  
BRANCH   9  10
HETATM   10  C   UNL     1      -9.210   9.841  69.885  1.00  0.00    -0.263 C  
BRANCH  10  11
HETATM   11  C   UNL     1     -10.235  10.196  68.813  1.00  0.00    -0.200 C  
BRANCH  11  12
HETATM   12  C   UNL     1     -11.132  11.336  69.282  1.00  0.00    -0.314 C  
BRANCH  12  13
HETATM   13  C   UNL     1     -11.701  12.115  68.100  1.00  0.00    -0.402 C  
BRANCH  13  14
HETATM   14  C   UNL     1     -10.650  12.279  67.005  1.00  0.00    -0.248 C  
BRANCH  14  15
HETATM   15  C   UNL     1     -11.273  12.793  65.711  1.00  0.00    -0.341 C  
HETATM   16  C   UNL     1     -10.983  11.873  64.548  1.00  0.00    -0.322 C  
HETATM   17  O   UNL     1     -11.534  12.319  63.394  1.00  0.00    -0.439 OA 
HETATM   18  O   UNL     1     -10.333  10.842  64.604  1.00  0.00    -0.335 OA 
ENDBRANCH  14  15
ENDBRANCH  13  14
ENDBRANCH  12  13
ENDBRANCH  11  12
ENDBRANCH  10  11
ENDBRANCH   9  10
ENDBRANCH   8   9
ENDBRANCH   7   8
ENDBRANCH   6   7
ENDBRANCH   5   6
ENDBRANCH   4   5
ENDBRANCH   3   4
ENDBRANCH   2   3
TORSDOF 13
ENDMDL
MODEL      365
REMARK 921   NORMALIZED FREE ENERGY PREDICTED BY IDOCK:   -2.65 KCAL/MOL
REMARK 922        TOTAL FREE ENERGY PREDICTED BY IDOCK:   -6.07 KCAL/MOL
REMARK 923 INTER-LIGAND FREE ENERGY PREDICTED BY IDOCK:   -5.21 KCAL/MOL
REMARK 924 INTRA-LIGAND FREE ENERGY PREDICTED BY IDOCK:   -0.86 KCAL/MOL
REMARK 927      BINDING AFFINITY PREDICTED BY RF-SCORE:    0.00 PKD
ROOT
HETATM    1  C   UNL     1     -12.279  15.850  72.486  1.00  0.00    -0.597 C  
HETATM    2  C   UNL     1     -13.217  15.490  71.347  1.00  0.00    -0.587 C  
ENDROOT
BRANCH   2   3
HETATM    3  C   UNL     1     -14.165  14.362  71.750  1.00  0.00    -0.572 C  
BRANCH   3   4
HETATM    4  C   UNL     1     -13.476  13.371  72.684  1.00  0.00    -0.536 C  
BRANCH   4   5
HETATM    5  C   UNL     1     -13.358  11.999  72.027  1.00  0.00    -0.447 C  
BRANCH   5   6
HETATM    6  C   UNL     1     -12.396  12.041  70.845  1.00  0.00    -0.384 C  
BRANCH   6   7
HETATM    7  C   UNL     1     -12.154  10.639  70.295  1.00  0.00    -0.423 C  
BRANCH   7   8
HETATM    8  C   UNL     1     -10.690  10.450  69.917  1.00  0.00    -0.331 C  
BRANCH   8   9
HETATM    9  C   UNL     1     -10.334  11.293  68.697  1.00  0.00    -0.217 C  
BRANCH   9  10
HETATM   10  C   UNL     1      -8.826  11.495  68.601  1.00  0.00    -0.108 C  
BRANCH  10  11
HETATM   11  C   UNL     1      -8.243  10.711  67.429  1.00  0.00    -0.115 C  
BRANCH  11  12
HETATM   12  C   UNL     1      -7.469   9.495  67.926  1.00  0.00    -0.083 C  
BRANCH  12  13
HETATM   13  C   UNL     1      -8.115   8.196  67.452  1.00  0.00    -0.122 C  
BRANCH  13  14
HETATM   14  C   UNL     1      -8.232   7.200  68.603  1.00  0.00    -0.125 C  
BRANCH  14  15
HETATM   15  C   UNL     1      -9.159   7.723  69.696  1.00  0.00    -0.146 C  
HETATM   16  C   UNL     1      -8.899   7.043  71.021  1.00  0.00    -0.146 C  
HETATM   17  O   UNL     1      -9.716   7.502  71.998  1.00  0.00    -0.156 OA 
HETATM   18  O   UNL     1      -8.063   6.178  71.222  1.00  0.00    -0.114 OA 
ENDBRANCH  14  15
ENDBRANCH  13  14
ENDBRANCH  12  13
ENDBRANCH  11  12
ENDBRANCH  10  11
ENDBRANCH   9  10
ENDBRANCH   8   9
ENDBRANCH   7   8
ENDBRANCH   6   7
ENDBRANCH   5   6
ENDBRANCH   4   5
ENDBRANCH   3   4
ENDBRANCH   2   3
TORSDOF 13
ENDMDL
MODEL      366
REMARK 921   NORMALIZED FREE ENERGY PREDICTED BY IDOCK:   -2.64 KCAL/MOL
REMARK 922        TOTAL FREE ENERGY PREDICTED BY IDOCK:   -6.05 KCAL/MOL
REMARK 923 INTER-LIGAND FREE ENERGY PREDICTED BY IDOCK:   -4.81 KCAL/MOL
REMARK 924 INTRA-LIGAND FREE ENERGY PREDICTED BY IDOCK:   -1.24 KCAL/MOL
REMARK 927      BINDING AFFINITY PREDICTED BY RF-SCORE:    0.00 PKD
ROOT
HETATM    1  C   UNL     1      -5.928  16.844  68.920  1.00  0.00    -0.159 C  
HETATM    2  C   UNL     1      -7.401  17.210  68.977  1.00  0.00    -0.217 C  
ENDROOT
BRANCH   2   3
HETATM    3  C   UNL     1      -8.093  16.918  67.648  1.00  0.00    -0.193 C  
BRANCH   3   4
HETATM    4  C   UNL     1      -7.525  15.659  66.997  1.00  0.00    -0.228 C  
BRANCH   4   5
HETATM    5  C   UNL     1      -8.491  14.487  67.149  1.00  0.00    -0.234 C  
BRANCH   5   6
HETATM    6  C   UNL     1      -8.259  13.757  68.468  1.00  0.00    -0.124 C  
BRANCH   6   7
HETATM    7  C   UNL     1      -7.673  12.370  68.221  1.00  0.00    -0.140 C  
BRANCH   7   8
HETATM    8  C   UNL     1      -7.987  11.893  66.808  1.00  0.00    -0.087 C  
BRANCH   8   9
HETATM    9  C   UNL     1      -8.685  10.538  66.838  1.00  0.00    -0.130 C  
BRANCH   9  10
HETATM   10  C   UNL     1      -9.199  10.226  68.239  1.00  0.00    -0.139 C  
BRANCH  10  11
HETATM   11  C   UNL     1     -10.722  10.135  68.256  1.00  0.00    -0.277 C  
BRANCH  11  12
HETATM   12  C   UNL     1     -11.289  10.847  69.479  1.00  0.00    -0.351 C  
BRANCH  12  13
HETATM   13  C   UNL     1     -12.125  12.059  69.076  1.00  0.00    -0.223 C  
BRANCH  13  14
HETATM   14  C   UNL     1     -11.282  13.055  68.282  1.00  0.00    -0.309 C  
BRANCH  14  15
HETATM   15  C   UNL     1     -12.154  13.923  67.380  1.00  0.00    -0.380 C  
HETATM   16  C   UNL     1     -12.489  13.221  66.084  1.00  0.00    -0.268 C  
HETATM   17  O   UNL     1     -13.264  13.983  65.277  1.00  0.00    -0.782 OA 
HETATM   18  O   UNL     1     -12.122  12.101  65.769  1.00  0.00    -0.572 OA 
ENDBRANCH  14  15
ENDBRANCH  13  14
ENDBRANCH  12  13
ENDBRANCH  11  12
ENDBRANCH  10  11
ENDBRANCH   9  10
ENDBRANCH   8   9
ENDBRANCH   7   8
ENDBRANCH   6   7
ENDBRANCH   5   6
ENDBRANCH   4   5
ENDBRANCH   3   4
ENDBRANCH   2   3
TORSDOF 13
ENDMDL
MODEL      367
REMARK 921   NORMALIZED FREE ENERGY PREDICTED BY IDOCK:   -2.63 KCAL/MOL
REMARK 922        TOTAL FREE ENERGY PREDICTED BY IDOCK:   -6.03 KCAL/MOL
REMARK 923 INTER-LIGAND FREE ENERGY PREDICTED BY IDOCK:   -4.85 KCAL/MOL
REMARK 924 INTRA-LIGAND FREE ENERGY PREDICTED BY IDOCK:   -1.18 KCAL/MOL
REMARK 927      BINDING AFFINITY PREDICTED BY RF-SCORE:    0.00 PKD
ROOT
HETATM    1  C   UNL     1      -9.178   4.610  67.397  1.00  0.00    -0.146 C  
HETATM    2  C   UNL     1     -10.415   5.239  66.780  1.00  0.00    -0.330 C  
ENDROOT
BRANCH   2   3
HETATM    3  C   UNL     1     -11.036   6.270  67.720  1.00  0.00    -0.361 C  
BRANCH   3   4
HETATM    4  C   UNL     1     -10.115   7.472  67.904  1.00  0.00    -0.226 C  
BRANCH   4   5
HETATM    5  C   UNL     1     -10.131   8.364  66.666  1.00  0.00    -0.358 C  
BRANCH   5   6
HETATM    6  C   UNL     1      -8.745   8.447  66.035  1.00  0.00    -0.183 C  
BRANCH   6   7
HETATM    7  C   UNL     1      -8.850   8.613  64.523  1.00  0.00     0.049 C  
BRANCH   7   8
HETATM    8  C   UNL     1      -8.268   9.952  64.083  1.00  0.00    -0.159 C  
BRANCH   8   9
HETATM    9  C   UNL     1      -9.109  11.107  64.616  1.00  0.00    -0.082 C  
BRANCH   9  10
HETATM   10  C   UNL     1     -10.014  11.665  63.523  1.00  0.00    -0.429 C  
BRANCH  10  11
HETATM   11  C   UNL     1     -11.482  11.393  63.837  1.00  0.00    -0.232 C  
BRANCH  11  12
HETATM   12  C   UNL     1     -12.248  12.701  64.004  1.00  0.00    -0.544 C  
BRANCH  12  13
HETATM   13  C   UNL     1     -11.585  13.603  65.041  1.00  0.00    -0.345 C  
BRANCH  13  14
HETATM   14  C   UNL     1     -12.408  13.643  66.326  1.00  0.00    -0.464 C  
BRANCH  14  15
HETATM   15  C   UNL     1     -11.998  12.528  67.283  1.00  0.00    -0.286 C  
HETATM   16  C   UNL     1     -11.483  13.077  68.593  1.00  0.00    -0.307 C  
HETATM   17  O   UNL     1     -11.117  12.094  69.449  1.00  0.00    -0.207 OA 
HETATM   18  O   UNL     1     -11.391  14.260  68.879  1.00  0.00    -0.244 OA 
ENDBRANCH  14  15
ENDBRANCH  13  14
ENDBRANCH  12  13
ENDBRANCH  11  12
ENDBRANCH  10  11
ENDBRANCH   9  10
ENDBRANCH   8   9
ENDBRANCH   7   8
ENDBRANCH   6   7
ENDBRANCH   5   6
ENDBRANCH   4   5
ENDBRANCH   3   4
ENDBRANCH   2   3
TORSDOF 13
ENDMDL
MODEL      368
REMARK 921   NORMALIZED FREE ENERGY PREDICTED BY IDOCK:   -2.62 KCAL/MOL
REMARK 922        TOTAL FREE ENERGY PREDICTED BY IDOCK:   -6.02 KCAL/MOL
REMARK 923 INTER-LIGAND FREE ENERGY PREDICTED BY IDOCK:   -4.99 KCAL/MOL
REMARK 924 INTRA-LIGAND FREE ENERGY PREDICTED BY IDOCK:   -1.03 KCAL/MOL
REMARK 927      BINDING AFFINITY PREDICTED BY RF-SCORE:    0.00 PKD
ROOT
HETATM    1  C   UNL     1      -6.908  18.723  67.812  1.00  0.00    -0.225 C  
HETATM    2  C   UNL     1      -8.113  19.279  68.551  1.00  0.00    -0.401 C  
ENDROOT
BRANCH   2   3
HETATM    3  C   UNL     1      -9.368  19.217  67.684  1.00  0.00    -0.371 C  
BRANCH   3   4
HETATM    4  C   UNL     1      -9.273  18.091  66.659  1.00  0.00    -0.291 C  
BRANCH   4   5
HETATM    5  C   UNL     1     -10.368  17.053  66.891  1.00  0.00    -0.303 C  
BRANCH   5   6
HETATM    6  C   UNL     1      -9.769  15.668  67.113  1.00  0.00    -0.226 C  
BRANCH   6   7
HETATM    7  C   UNL     1      -9.881  14.823  65.848  1.00  0.00    -0.363 C  
BRANCH   7   8
HETATM    8  C   UNL     1     -11.156  15.159  65.083  1.00  0.00    -0.410 C  
BRANCH   8   9
HETATM    9  C   UNL     1     -11.559  14.006  64.171  1.00  0.00    -0.289 C  
BRANCH   9  10
HETATM   10  C   UNL     1     -10.455  12.957  64.107  1.00  0.00    -0.429 C  
BRANCH  10  11
HETATM   11  C   UNL     1     -11.040  11.554  63.974  1.00  0.00    -0.441 C  
BRANCH  11  12
HETATM   12  C   UNL     1     -10.092  10.517  64.568  1.00  0.00    -0.402 C  
BRANCH  12  13
HETATM   13  C   UNL     1     -10.277  10.401  66.079  1.00  0.00    -0.295 C  
BRANCH  13  14
HETATM   14  C   UNL     1      -9.311   9.373  66.663  1.00  0.00    -0.211 C  
BRANCH  14  15
HETATM   15  C   UNL     1      -7.929   9.487  66.026  1.00  0.00    -0.107 C  
HETATM   16  C   UNL     1      -6.947  10.180  66.941  1.00  0.00    -0.089 C  
HETATM   17  O   UNL     1      -5.717  10.284  66.385  1.00  0.00    -0.055 OA 
HETATM   18  O   UNL     1      -7.198  10.609  68.056  1.00  0.00    -0.084 OA 
ENDBRANCH  14  15
ENDBRANCH  13  14
ENDBRANCH  12  13
ENDBRANCH  11  12
ENDBRANCH  10  11
ENDBRANCH   9  10
ENDBRANCH   8   9
ENDBRANCH   7   8
ENDBRANCH   6   7
ENDBRANCH   5   6
ENDBRANCH   4   5
ENDBRANCH   3   4
ENDBRANCH   2   3
TORSDOF 13
ENDMDL
MODEL      369
REMARK 921   NORMALIZED FREE ENERGY PREDICTED BY IDOCK:   -2.62 KCAL/MOL
REMARK 922        TOTAL FREE ENERGY PREDICTED BY IDOCK:   -6.02 KCAL/MOL
REMARK 923 INTER-LIGAND FREE ENERGY PREDICTED BY IDOCK:   -4.62 KCAL/MOL
REMARK 924 INTRA-LIGAND FREE ENERGY PREDICTED BY IDOCK:   -1.40 KCAL/MOL
REMARK 927      BINDING AFFINITY PREDICTED BY RF-SCORE:    0.00 PKD
ROOT
HETATM    1  C   UNL     1      -8.165   8.281  64.765  1.00  0.00    -0.147 C  
HETATM    2  C   UNL     1      -9.235   8.466  65.828  1.00  0.00    -0.175 C  
ENDROOT
BRANCH   2   3
HETATM    3  C   UNL     1      -9.808   9.880  65.792  1.00  0.00    -0.356 C  
BRANCH   3   4
HETATM    4  C   UNL     1     -10.747  10.124  66.970  1.00  0.00    -0.264 C  
BRANCH   4   5
HETATM    5  C   UNL     1     -10.283  11.322  67.794  1.00  0.00    -0.203 C  
BRANCH   5   6
HETATM    6  C   UNL     1     -10.234  12.584  66.940  1.00  0.00    -0.237 C  
BRANCH   6   7
HETATM    7  C   UNL     1      -9.308  13.623  67.565  1.00  0.00    -0.223 C  
BRANCH   7   8
HETATM    8  C   UNL     1      -8.032  12.970  68.083  1.00  0.00    -0.154 C  
BRANCH   8   9
HETATM    9  C   UNL     1      -6.831  13.885  67.869  1.00  0.00    -0.166 C  
BRANCH   9  10
HETATM   10  C   UNL     1      -7.285  15.300  67.527  1.00  0.00    -0.224 C  
BRANCH  10  11
HETATM   11  C   UNL     1      -6.870  16.285  68.615  1.00  0.00    -0.141 C  
BRANCH  11  12
HETATM   12  C   UNL     1      -7.908  17.392  68.763  1.00  0.00    -0.250 C  
BRANCH  12  13
HETATM   13  C   UNL     1      -9.272  16.825  69.147  1.00  0.00    -0.140 C  
BRANCH  13  14
HETATM   14  C   UNL     1     -10.384  17.507  68.353  1.00  0.00    -0.378 C  
BRANCH  14  15
HETATM   15  C   UNL     1     -10.862  16.629  67.201  1.00  0.00    -0.126 C  
HETATM   16  C   UNL     1     -10.286  17.080  65.879  1.00  0.00    -0.296 C  
HETATM   17  O   UNL     1     -10.703  16.306  64.850  1.00  0.00    -0.646 OA 
HETATM   18  O   UNL     1      -9.532  18.026  65.720  1.00  0.00    -0.495 OA 
ENDBRANCH  14  15
ENDBRANCH  13  14
ENDBRANCH  12  13
ENDBRANCH  11  12
ENDBRANCH  10  11
ENDBRANCH   9  10
ENDBRANCH   8   9
ENDBRANCH   7   8
ENDBRANCH   6   7
ENDBRANCH   5   6
ENDBRANCH   4   5
ENDBRANCH   3   4
ENDBRANCH   2   3
TORSDOF 13
ENDMDL
MODEL      370
REMARK 921   NORMALIZED FREE ENERGY PREDICTED BY IDOCK:   -2.62 KCAL/MOL
REMARK 922        TOTAL FREE ENERGY PREDICTED BY IDOCK:   -6.02 KCAL/MOL
REMARK 923 INTER-LIGAND FREE ENERGY PREDICTED BY IDOCK:   -4.87 KCAL/MOL
REMARK 924 INTRA-LIGAND FREE ENERGY PREDICTED BY IDOCK:   -1.15 KCAL/MOL
REMARK 927      BINDING AFFINITY PREDICTED BY RF-SCORE:    0.00 PKD
ROOT
HETATM    1  C   UNL     1     -10.924   6.436  67.082  1.00  0.00    -0.476 C  
HETATM    2  C   UNL     1      -9.945   7.592  66.979  1.00  0.00    -0.310 C  
ENDROOT
BRANCH   2   3
HETATM    3  C   UNL     1     -10.605   8.910  67.379  1.00  0.00    -0.305 C  
BRANCH   3   4
HETATM    4  C   UNL     1      -9.968  10.089  66.649  1.00  0.00    -0.274 C  
BRANCH   4   5
HETATM    5  C   UNL     1     -10.165  11.383  67.434  1.00  0.00    -0.221 C  
BRANCH   5   6
HETATM    6  C   UNL     1     -11.625  11.823  67.401  1.00  0.00    -0.352 C  
BRANCH   6   7
HETATM    7  C   UNL     1     -12.069  12.112  65.971  1.00  0.00    -0.101 C  
BRANCH   7   8
HETATM    8  C   UNL     1     -12.636  13.522  65.854  1.00  0.00    -0.454 C  
BRANCH   8   9
HETATM    9  C   UNL     1     -11.556  14.563  66.131  1.00  0.00    -0.366 C  
BRANCH   9  10
HETATM   10  C   UNL     1     -11.044  15.169  64.830  1.00  0.00    -0.395 C  
BRANCH  10  11
HETATM   11  C   UNL     1     -10.887  16.681  64.955  1.00  0.00    -0.158 C  
BRANCH  11  12
HETATM   12  C   UNL     1     -10.394  17.058  66.348  1.00  0.00    -0.304 C  
BRANCH  12  13
HETATM   13  C   UNL     1      -8.873  16.971  66.439  1.00  0.00    -0.313 C  
BRANCH  13  14
HETATM   14  C   UNL     1      -8.441  16.537  67.838  1.00  0.00    -0.182 C  
BRANCH  14  15
HETATM   15  C   UNL     1      -9.639  16.405  68.772  1.00  0.00    -0.249 C  
HETATM   16  C   UNL     1      -9.763  15.005  69.327  1.00  0.00    -0.190 C  
HETATM   17  O   UNL     1     -10.823  14.878  70.159  1.00  0.00    -0.214 OA 
HETATM   18  O   UNL     1      -9.015  14.074  69.076  1.00  0.00    -0.006 OA 
ENDBRANCH  14  15
ENDBRANCH  13  14
ENDBRANCH  12  13
ENDBRANCH  11  12
ENDBRANCH  10  11
ENDBRANCH   9  10
ENDBRANCH   8   9
ENDBRANCH   7   8
ENDBRANCH   6   7
ENDBRANCH   5   6
ENDBRANCH   4   5
ENDBRANCH   3   4
ENDBRANCH   2   3
TORSDOF 13
ENDMDL
MODEL      371
REMARK 921   NORMALIZED FREE ENERGY PREDICTED BY IDOCK:   -2.62 KCAL/MOL
REMARK 922        TOTAL FREE ENERGY PREDICTED BY IDOCK:   -6.02 KCAL/MOL
REMARK 923 INTER-LIGAND FREE ENERGY PREDICTED BY IDOCK:   -4.89 KCAL/MOL
REMARK 924 INTRA-LIGAND FREE ENERGY PREDICTED BY IDOCK:   -1.13 KCAL/MOL
REMARK 927      BINDING AFFINITY PREDICTED BY RF-SCORE:    0.00 PKD
ROOT
HETATM    1  C   UNL     1      -5.862  18.078  69.303  1.00  0.00    -0.225 C  
HETATM    2  C   UNL     1      -7.249  18.646  69.057  1.00  0.00    -0.283 C  
ENDROOT
BRANCH   2   3
HETATM    3  C   UNL     1      -7.756  18.279  67.664  1.00  0.00    -0.230 C  
BRANCH   3   4
HETATM    4  C   UNL     1      -7.406  16.835  67.314  1.00  0.00    -0.206 C  
BRANCH   4   5
HETATM    5  C   UNL     1      -8.569  15.902  67.636  1.00  0.00    -0.172 C  
BRANCH   5   6
HETATM    6  C   UNL     1      -8.346  15.191  68.967  1.00  0.00    -0.209 C  
BRANCH   6   7
HETATM    7  C   UNL     1      -8.241  13.683  68.762  1.00  0.00     0.021 C  
BRANCH   7   8
HETATM    8  C   UNL     1      -8.476  13.317  67.301  1.00  0.00    -0.203 C  
BRANCH   8   9
HETATM    9  C   UNL     1      -9.532  12.223  67.181  1.00  0.00    -0.196 C  
BRANCH   9  10
HETATM   10  C   UNL     1     -10.079  11.848  68.553  1.00  0.00    -0.211 C  
BRANCH  10  11
HETATM   11  C   UNL     1     -11.483  12.410  68.755  1.00  0.00    -0.350 C  
BRANCH  11  12
HETATM   12  C   UNL     1     -12.041  11.991  70.111  1.00  0.00    -0.377 C  
BRANCH  12  13
HETATM   13  C   UNL     1     -12.647  13.181  70.851  1.00  0.00    -0.377 C  
BRANCH  13  14
HETATM   14  C   UNL     1     -11.598  14.267  71.076  1.00  0.00    -0.094 C  
BRANCH  14  15
HETATM   15  C   UNL     1     -12.211  15.502  71.730  1.00  0.00    -0.467 C  
HETATM   16  C   UNL     1     -12.453  15.290  73.206  1.00  0.00    -0.486 C  
HETATM   17  O   UNL     1     -12.996  16.382  73.796  1.00  0.00    -0.635 OA 
HETATM   18  O   UNL     1     -12.203  14.270  73.827  1.00  0.00    -0.185 OA 
ENDBRANCH  14  15
ENDBRANCH  13  14
ENDBRANCH  12  13
ENDBRANCH  11  12
ENDBRANCH  10  11
ENDBRANCH   9  10
ENDBRANCH   8   9
ENDBRANCH   7   8
ENDBRANCH   6   7
ENDBRANCH   5   6
ENDBRANCH   4   5
ENDBRANCH   3   4
ENDBRANCH   2   3
TORSDOF 13
ENDMDL
MODEL      372
REMARK 921   NORMALIZED FREE ENERGY PREDICTED BY IDOCK:   -2.61 KCAL/MOL
REMARK 922        TOTAL FREE ENERGY PREDICTED BY IDOCK:   -6.00 KCAL/MOL
REMARK 923 INTER-LIGAND FREE ENERGY PREDICTED BY IDOCK:   -4.98 KCAL/MOL
REMARK 924 INTRA-LIGAND FREE ENERGY PREDICTED BY IDOCK:   -1.02 KCAL/MOL
REMARK 927      BINDING AFFINITY PREDICTED BY RF-SCORE:    0.00 PKD
ROOT
HETATM    1  C   UNL     1      -7.546   5.805  69.611  1.00  0.00    -0.076 C  
HETATM    2  C   UNL     1      -8.827   4.990  69.660  1.00  0.00    -0.121 C  
ENDROOT
BRANCH   2   3
HETATM    3  C   UNL     1      -9.317   4.648  68.256  1.00  0.00    -0.182 C  
BRANCH   3   4
HETATM    4  C   UNL     1      -9.139   5.831  67.308  1.00  0.00    -0.110 C  
BRANCH   4   5
HETATM    5  C   UNL     1     -10.492   6.373  66.856  1.00  0.00    -0.340 C  
BRANCH   5   6
HETATM    6  C   UNL     1     -10.705   7.796  67.361  1.00  0.00    -0.300 C  
BRANCH   6   7
HETATM    7  C   UNL     1      -9.368   8.492  67.593  1.00  0.00    -0.157 C  
BRANCH   7   8
HETATM    8  C   UNL     1      -9.411   9.930  67.090  1.00  0.00    -0.190 C  
BRANCH   8   9
HETATM    9  C   UNL     1     -10.805  10.524  67.269  1.00  0.00    -0.338 C  
BRANCH   9  10
HETATM   10  C   UNL     1     -11.056  11.628  66.249  1.00  0.00    -0.345 C  
BRANCH  10  11
HETATM   11  C   UNL     1     -10.767  13.002  66.847  1.00  0.00    -0.273 C  
BRANCH  11  12
HETATM   12  C   UNL     1     -11.371  13.120  68.242  1.00  0.00    -0.333 C  
BRANCH  12  13
HETATM   13  C   UNL     1     -12.191  14.400  68.383  1.00  0.00    -0.178 C  
BRANCH  13  14
HETATM   14  C   UNL     1     -11.776  15.171  69.634  1.00  0.00    -0.353 C  
BRANCH  14  15
HETATM   15  C   UNL     1     -11.880  14.299  70.882  1.00  0.00    -0.322 C  
HETATM   16  C   UNL     1     -13.130  14.606  71.674  1.00  0.00    -0.346 C  
HETATM   17  O   UNL     1     -13.232  13.837  72.784  1.00  0.00    -0.514 OA 
HETATM   18  O   UNL     1     -13.968  15.442  71.380  1.00  0.00    -0.504 OA 
ENDBRANCH  14  15
ENDBRANCH  13  14
ENDBRANCH  12  13
ENDBRANCH  11  12
ENDBRANCH  10  11
ENDBRANCH   9  10
ENDBRANCH   8   9
ENDBRANCH   7   8
ENDBRANCH   6   7
ENDBRANCH   5   6
ENDBRANCH   4   5
ENDBRANCH   3   4
ENDBRANCH   2   3
TORSDOF 13
ENDMDL
MODEL      373
REMARK 921   NORMALIZED FREE ENERGY PREDICTED BY IDOCK:   -2.61 KCAL/MOL
REMARK 922        TOTAL FREE ENERGY PREDICTED BY IDOCK:   -5.99 KCAL/MOL
REMARK 923 INTER-LIGAND FREE ENERGY PREDICTED BY IDOCK:   -4.40 KCAL/MOL
REMARK 924 INTRA-LIGAND FREE ENERGY PREDICTED BY IDOCK:   -1.60 KCAL/MOL
REMARK 927      BINDING AFFINITY PREDICTED BY RF-SCORE:    0.00 PKD
ROOT
HETATM    1  C   UNL     1     -10.103   6.920  73.907  1.00  0.00    -0.391 C  
HETATM    2  C   UNL     1     -11.261   6.992  72.927  1.00  0.00    -0.273 C  
ENDROOT
BRANCH   2   3
HETATM    3  C   UNL     1     -10.932   7.912  71.754  1.00  0.00    -0.290 C  
BRANCH   3   4
HETATM    4  C   UNL     1      -9.647   8.694  72.011  1.00  0.00    -0.385 C  
BRANCH   4   5
HETATM    5  C   UNL     1      -8.698   8.583  70.820  1.00  0.00    -0.183 C  
BRANCH   5   6
HETATM    6  C   UNL     1      -8.550   7.132  70.374  1.00  0.00    -0.142 C  
BRANCH   6   7
HETATM    7  C   UNL     1      -7.867   7.054  69.013  1.00  0.00    -0.115 C  
BRANCH   7   8
HETATM    8  C   UNL     1      -8.684   6.206  68.045  1.00  0.00    -0.113 C  
BRANCH   8   9
HETATM    9  C   UNL     1     -10.177   6.395  68.289  1.00  0.00    -0.197 C  
BRANCH   9  10
HETATM   10  C   UNL     1     -10.754   7.427  67.327  1.00  0.00    -0.379 C  
BRANCH  10  11
HETATM   11  C   UNL     1      -9.754   7.770  66.227  1.00  0.00    -0.149 C  
BRANCH  11  12
HETATM   12  C   UNL     1      -9.711   9.276  65.989  1.00  0.00    -0.359 C  
BRANCH  12  13
HETATM   13  C   UNL     1      -8.551   9.922  66.740  1.00  0.00    -0.133 C  
BRANCH  13  14
HETATM   14  C   UNL     1      -8.870  11.377  67.078  1.00  0.00    -0.168 C  
BRANCH  14  15
HETATM   15  C   UNL     1     -10.363  11.663  66.938  1.00  0.00    -0.253 C  
HETATM   16  C   UNL     1     -10.677  13.120  67.185  1.00  0.00    -0.255 C  
HETATM   17  O   UNL     1     -11.999  13.385  67.061  1.00  0.00    -0.382 OA 
HETATM   18  O   UNL     1      -9.862  13.984  67.466  1.00  0.00    -0.229 OA 
ENDBRANCH  14  15
ENDBRANCH  13  14
ENDBRANCH  12  13
ENDBRANCH  11  12
ENDBRANCH  10  11
ENDBRANCH   9  10
ENDBRANCH   8   9
ENDBRANCH   7   8
ENDBRANCH   6   7
ENDBRANCH   5   6
ENDBRANCH   4   5
ENDBRANCH   3   4
ENDBRANCH   2   3
TORSDOF 13
ENDMDL
MODEL      374
REMARK 921   NORMALIZED FREE ENERGY PREDICTED BY IDOCK:   -2.60 KCAL/MOL
REMARK 922        TOTAL FREE ENERGY PREDICTED BY IDOCK:   -5.97 KCAL/MOL
REMARK 923 INTER-LIGAND FREE ENERGY PREDICTED BY IDOCK:   -4.68 KCAL/MOL
REMARK 924 INTRA-LIGAND FREE ENERGY PREDICTED BY IDOCK:   -1.29 KCAL/MOL
REMARK 927      BINDING AFFINITY PREDICTED BY RF-SCORE:    0.00 PKD
ROOT
HETATM    1  C   UNL     1      -9.380   5.599  67.749  1.00  0.00    -0.113 C  
HETATM    2  C   UNL     1      -8.805   6.993  67.562  1.00  0.00    -0.119 C  
ENDROOT
BRANCH   2   3
HETATM    3  C   UNL     1      -9.492   7.723  66.411  1.00  0.00    -0.245 C  
BRANCH   3   4
HETATM    4  C   UNL     1      -8.578   8.787  65.811  1.00  0.00    -0.185 C  
BRANCH   4   5
HETATM    5  C   UNL     1      -9.301   9.569  64.718  1.00  0.00    -0.235 C  
BRANCH   5   6
HETATM    6  C   UNL     1      -9.370  11.053  65.064  1.00  0.00    -0.250 C  
BRANCH   6   7
HETATM    7  C   UNL     1     -10.674  11.378  65.787  1.00  0.00    -0.309 C  
BRANCH   7   8
HETATM    8  C   UNL     1     -11.760  11.774  64.794  1.00  0.00    -0.212 C  
BRANCH   8   9
HETATM    9  C   UNL     1     -12.508  13.012  65.277  1.00  0.00    -0.555 C  
BRANCH   9  10
HETATM   10  C   UNL     1     -12.214  13.281  66.748  1.00  0.00    -0.340 C  
BRANCH  10  11
HETATM   11  C   UNL     1     -11.647  14.684  66.945  1.00  0.00    -0.374 C  
BRANCH  11  12
HETATM   12  C   UNL     1     -10.899  15.142  65.698  1.00  0.00    -0.367 C  
BRANCH  12  13
HETATM   13  C   UNL     1      -9.454  15.509  66.022  1.00  0.00    -0.387 C  
BRANCH  13  14
HETATM   14  C   UNL     1      -8.941  14.688  67.203  1.00  0.00    -0.240 C  
BRANCH  14  15
HETATM   15  C   UNL     1      -7.424  14.788  67.330  1.00  0.00    -0.221 C  
HETATM   16  C   UNL     1      -6.788  13.430  67.511  1.00  0.00    -0.144 C  
HETATM   17  O   UNL     1      -5.441  13.508  67.623  1.00  0.00    -0.262 OA 
HETATM   18  O   UNL     1      -7.386  12.367  67.556  1.00  0.00    -0.122 OA 
ENDBRANCH  14  15
ENDBRANCH  13  14
ENDBRANCH  12  13
ENDBRANCH  11  12
ENDBRANCH  10  11
ENDBRANCH   9  10
ENDBRANCH   8   9
ENDBRANCH   7   8
ENDBRANCH   6   7
ENDBRANCH   5   6
ENDBRANCH   4   5
ENDBRANCH   3   4
ENDBRANCH   2   3
TORSDOF 13
ENDMDL
MODEL      375
REMARK 921   NORMALIZED FREE ENERGY PREDICTED BY IDOCK:   -2.59 KCAL/MOL
REMARK 922        TOTAL FREE ENERGY PREDICTED BY IDOCK:   -5.97 KCAL/MOL
REMARK 923 INTER-LIGAND FREE ENERGY PREDICTED BY IDOCK:   -4.76 KCAL/MOL
REMARK 924 INTRA-LIGAND FREE ENERGY PREDICTED BY IDOCK:   -1.21 KCAL/MOL
REMARK 927      BINDING AFFINITY PREDICTED BY RF-SCORE:    0.00 PKD
ROOT
HETATM    1  C   UNL     1      -9.087   6.286  66.757  1.00  0.00    -0.141 C  
HETATM    2  C   UNL     1      -9.552   7.014  68.007  1.00  0.00    -0.133 C  
ENDROOT
BRANCH   2   3
HETATM    3  C   UNL     1      -8.778   6.545  69.237  1.00  0.00    -0.130 C  
BRANCH   3   4
HETATM    4  C   UNL     1      -7.337   7.045  69.204  1.00  0.00    -0.092 C  
BRANCH   4   5
HETATM    5  C   UNL     1      -6.585   6.617  70.461  1.00  0.00    -0.052 C  
BRANCH   5   6
HETATM    6  C   UNL     1      -6.813   7.608  71.597  1.00  0.00    -0.053 C  
BRANCH   6   7
HETATM    7  C   UNL     1      -7.469   6.920  72.790  1.00  0.00    -0.085 C  
BRANCH   7   8
HETATM    8  C   UNL     1      -8.376   7.888  73.542  1.00  0.00    -0.271 C  
BRANCH   8   9
HETATM    9  C   UNL     1      -9.705   7.225  73.887  1.00  0.00    -0.323 C  
BRANCH   9  10
HETATM   10  C   UNL     1     -10.855   7.910  73.159  1.00  0.00    -0.318 C  
BRANCH  10  11
HETATM   11  C   UNL     1     -10.418   8.396  71.780  1.00  0.00    -0.353 C  
BRANCH  11  12
HETATM   12  C   UNL     1     -11.584   9.049  71.045  1.00  0.00    -0.360 C  
BRANCH  12  13
HETATM   13  C   UNL     1     -12.815   9.152  71.941  1.00  0.00    -0.466 C  
BRANCH  13  14
HETATM   14  C   UNL     1     -13.607  10.419  71.627  1.00  0.00    -0.211 C  
BRANCH  14  15
HETATM   15  C   UNL     1     -12.686  11.551  71.180  1.00  0.00    -0.458 C  
HETATM   16  C   UNL     1     -13.086  12.872  71.795  1.00  0.00    -0.360 C  
HETATM   17  O   UNL     1     -12.274  13.882  71.406  1.00  0.00    -0.323 OA 
HETATM   18  O   UNL     1     -14.025  13.045  72.556  1.00  0.00    -0.632 OA 
ENDBRANCH  14  15
ENDBRANCH  13  14
ENDBRANCH  12  13
ENDBRANCH  11  12
ENDBRANCH  10  11
ENDBRANCH   9  10
ENDBRANCH   8   9
ENDBRANCH   7   8
ENDBRANCH   6   7
ENDBRANCH   5   6
ENDBRANCH   4   5
ENDBRANCH   3   4
ENDBRANCH   2   3
TORSDOF 13
ENDMDL
MODEL      376
REMARK 921   NORMALIZED FREE ENERGY PREDICTED BY IDOCK:   -2.59 KCAL/MOL
REMARK 922        TOTAL FREE ENERGY PREDICTED BY IDOCK:   -5.97 KCAL/MOL
REMARK 923 INTER-LIGAND FREE ENERGY PREDICTED BY IDOCK:   -5.31 KCAL/MOL
REMARK 924 INTRA-LIGAND FREE ENERGY PREDICTED BY IDOCK:   -0.65 KCAL/MOL
REMARK 927      BINDING AFFINITY PREDICTED BY RF-SCORE:    0.00 PKD
ROOT
HETATM    1  C   UNL     1     -13.302  12.329  72.157  1.00  0.00    -0.473 C  
HETATM    2  C   UNL     1     -13.794  13.763  72.253  1.00  0.00    -0.679 C  
ENDROOT
BRANCH   2   3
HETATM    3  C   UNL     1     -12.877  14.602  73.139  1.00  0.00    -0.586 C  
BRANCH   3   4
HETATM    4  C   UNL     1     -12.106  15.630  72.315  1.00  0.00    -0.548 C  
BRANCH   4   5
HETATM    5  C   UNL     1     -12.239  15.340  70.823  1.00  0.00    -0.411 C  
BRANCH   5   6
HETATM    6  C   UNL     1     -11.114  16.004  70.036  1.00  0.00    -0.362 C  
BRANCH   6   7
HETATM    7  C   UNL     1     -10.571  15.059  68.969  1.00  0.00    -0.245 C  
BRANCH   7   8
HETATM    8  C   UNL     1     -11.702  14.276  68.312  1.00  0.00    -0.377 C  
BRANCH   8   9
HETATM    9  C   UNL     1     -11.305  12.817  68.115  1.00  0.00    -0.329 C  
BRANCH   9  10
HETATM   10  C   UNL     1      -9.899  12.713  67.537  1.00  0.00    -0.203 C  
BRANCH  10  11
HETATM   11  C   UNL     1      -9.897  11.905  66.243  1.00  0.00    -0.246 C  
BRANCH  11  12
HETATM   12  C   UNL     1      -9.384  10.491  66.492  1.00  0.00    -0.189 C  
BRANCH  12  13
HETATM   13  C   UNL     1      -8.109  10.216  65.699  1.00  0.00    -0.149 C  
BRANCH  13  14
HETATM   14  C   UNL     1      -7.713   8.746  65.807  1.00  0.00    -0.094 C  
BRANCH  14  15
HETATM   15  C   UNL     1      -8.267   7.936  64.638  1.00  0.00    -0.094 C  
HETATM   16  C   UNL     1      -7.419   8.093  63.398  1.00  0.00    -0.124 C  
HETATM   17  O   UNL     1      -7.902   7.376  62.356  1.00  0.00    -0.114 OA 
HETATM   18  O   UNL     1      -6.412   8.777  63.309  1.00  0.00    -0.089 OA 
ENDBRANCH  14  15
ENDBRANCH  13  14
ENDBRANCH  12  13
ENDBRANCH  11  12
ENDBRANCH  10  11
ENDBRANCH   9  10
ENDBRANCH   8   9
ENDBRANCH   7   8
ENDBRANCH   6   7
ENDBRANCH   5   6
ENDBRANCH   4   5
ENDBRANCH   3   4
ENDBRANCH   2   3
TORSDOF 13
ENDMDL
MODEL      377
REMARK 921   NORMALIZED FREE ENERGY PREDICTED BY IDOCK:   -2.58 KCAL/MOL
REMARK 922        TOTAL FREE ENERGY PREDICTED BY IDOCK:   -5.95 KCAL/MOL
REMARK 923 INTER-LIGAND FREE ENERGY PREDICTED BY IDOCK:   -5.17 KCAL/MOL
REMARK 924 INTRA-LIGAND FREE ENERGY PREDICTED BY IDOCK:   -0.79 KCAL/MOL
REMARK 927      BINDING AFFINITY PREDICTED BY RF-SCORE:    0.00 PKD
ROOT
HETATM    1  C   UNL     1      -8.868   3.282  69.738  1.00  0.00    -0.154 C  
HETATM    2  C   UNL     1      -8.585   3.654  68.293  1.00  0.00    -0.117 C  
ENDROOT
BRANCH   2   3
HETATM    3  C   UNL     1      -9.816   4.268  67.630  1.00  0.00    -0.150 C  
BRANCH   3   4
HETATM    4  C   UNL     1      -9.691   5.786  67.536  1.00  0.00    -0.128 C  
BRANCH   4   5
HETATM    5  C   UNL     1     -10.984   6.466  67.975  1.00  0.00    -0.400 C  
BRANCH   5   6
HETATM    6  C   UNL     1     -11.172   6.357  69.485  1.00  0.00    -0.477 C  
BRANCH   6   7
HETATM    7  C   UNL     1     -10.618   7.593  70.188  1.00  0.00    -0.239 C  
BRANCH   7   8
HETATM    8  C   UNL     1     -10.549   8.776  69.229  1.00  0.00    -0.210 C  
BRANCH   8   9
HETATM    9  C   UNL     1     -10.967  10.064  69.929  1.00  0.00    -0.339 C  
BRANCH   9  10
HETATM   10  C   UNL     1     -11.918  10.871  69.054  1.00  0.00    -0.322 C  
BRANCH  10  11
HETATM   11  C   UNL     1     -11.897  12.347  69.438  1.00  0.00    -0.365 C  
BRANCH  11  12
HETATM   12  C   UNL     1     -11.421  13.201  68.268  1.00  0.00    -0.349 C  
BRANCH  12  13
HETATM   13  C   UNL     1     -10.940  14.570  68.742  1.00  0.00    -0.262 C  
BRANCH  13  14
HETATM   14  C   UNL     1      -9.848  15.107  67.820  1.00  0.00    -0.223 C  
BRANCH  14  15
HETATM   15  C   UNL     1     -10.342  16.305  67.015  1.00  0.00    -0.292 C  
HETATM   16  C   UNL     1     -10.828  15.894  65.644  1.00  0.00    -0.284 C  
HETATM   17  O   UNL     1     -11.270  16.950  64.922  1.00  0.00    -0.524 OA 
HETATM   18  O   UNL     1     -10.835  14.755  65.207  1.00  0.00    -0.333 OA 
ENDBRANCH  14  15
ENDBRANCH  13  14
ENDBRANCH  12  13
ENDBRANCH  11  12
ENDBRANCH  10  11
ENDBRANCH   9  10
ENDBRANCH   8   9
ENDBRANCH   7   8
ENDBRANCH   6   7
ENDBRANCH   5   6
ENDBRANCH   4   5
ENDBRANCH   3   4
ENDBRANCH   2   3
TORSDOF 13
ENDMDL
MODEL      378
REMARK 921   NORMALIZED FREE ENERGY PREDICTED BY IDOCK:   -2.58 KCAL/MOL
REMARK 922        TOTAL FREE ENERGY PREDICTED BY IDOCK:   -5.95 KCAL/MOL
REMARK 923 INTER-LIGAND FREE ENERGY PREDICTED BY IDOCK:   -4.54 KCAL/MOL
REMARK 924 INTRA-LIGAND FREE ENERGY PREDICTED BY IDOCK:   -1.41 KCAL/MOL
REMARK 927      BINDING AFFINITY PREDICTED BY RF-SCORE:    0.00 PKD
ROOT
HETATM    1  C   UNL     1      -7.470  14.297  67.457  1.00  0.00    -0.201 C  
HETATM    2  C   UNL     1      -7.621  15.807  67.529  1.00  0.00    -0.194 C  
ENDROOT
BRANCH   2   3
HETATM    3  C   UNL     1      -8.482  16.329  66.381  1.00  0.00    -0.365 C  
BRANCH   3   4
HETATM    4  C   UNL     1      -9.545  15.310  65.981  1.00  0.00    -0.372 C  
BRANCH   4   5
HETATM    5  C   UNL     1     -10.817  15.502  66.802  1.00  0.00    -0.291 C  
BRANCH   5   6
HETATM    6  C   UNL     1     -11.260  14.189  67.438  1.00  0.00    -0.334 C  
BRANCH   6   7
HETATM    7  C   UNL     1     -11.986  13.315  66.420  1.00  0.00    -0.465 C  
BRANCH   7   8
HETATM    8  C   UNL     1     -11.595  11.851  66.585  1.00  0.00    -0.337 C  
BRANCH   8   9
HETATM    9  C   UNL     1     -10.082  11.708  66.715  1.00  0.00    -0.242 C  
BRANCH   9  10
HETATM   10  C   UNL     1      -9.725  10.737  67.834  1.00  0.00    -0.181 C  
BRANCH  10  11
HETATM   11  C   UNL     1     -10.969  10.320  68.613  1.00  0.00    -0.289 C  
BRANCH  11  12
HETATM   12  C   UNL     1     -10.601   9.913  70.036  1.00  0.00    -0.335 C  
BRANCH  12  13
HETATM   13  C   UNL     1     -10.505   8.395  70.170  1.00  0.00    -0.230 C  
BRANCH  13  14
HETATM   14  C   UNL     1      -9.213   7.997  70.879  1.00  0.00    -0.163 C  
BRANCH  14  15
HETATM   15  C   UNL     1      -7.989   8.353  70.041  1.00  0.00    -0.109 C  
HETATM   16  C   UNL     1      -6.910   9.004  70.876  1.00  0.00    -0.088 C  
HETATM   17  O   UNL     1      -5.819   9.322  70.141  1.00  0.00    -0.030 OA 
HETATM   18  O   UNL     1      -6.980   9.232  72.072  1.00  0.00    -0.313 OA 
ENDBRANCH  14  15
ENDBRANCH  13  14
ENDBRANCH  12  13
ENDBRANCH  11  12
ENDBRANCH  10  11
ENDBRANCH   9  10
ENDBRANCH   8   9
ENDBRANCH   7   8
ENDBRANCH   6   7
ENDBRANCH   5   6
ENDBRANCH   4   5
ENDBRANCH   3   4
ENDBRANCH   2   3
TORSDOF 13
ENDMDL
MODEL      379
REMARK 921   NORMALIZED FREE ENERGY PREDICTED BY IDOCK:   -2.57 KCAL/MOL
REMARK 922        TOTAL FREE ENERGY PREDICTED BY IDOCK:   -5.93 KCAL/MOL
REMARK 923 INTER-LIGAND FREE ENERGY PREDICTED BY IDOCK:   -5.22 KCAL/MOL
REMARK 924 INTRA-LIGAND FREE ENERGY PREDICTED BY IDOCK:   -0.71 KCAL/MOL
REMARK 927      BINDING AFFINITY PREDICTED BY RF-SCORE:    0.00 PKD
ROOT
HETATM    1  C   UNL     1      -9.986  16.388  69.358  1.00  0.00    -0.214 C  
HETATM    2  C   UNL     1     -11.154  15.455  69.084  1.00  0.00    -0.267 C  
ENDROOT
BRANCH   2   3
HETATM    3  C   UNL     1     -12.251  15.623  70.133  1.00  0.00    -0.387 C  
BRANCH   3   4
HETATM    4  C   UNL     1     -11.967  14.772  71.368  1.00  0.00    -0.403 C  
BRANCH   4   5
HETATM    5  C   UNL     1     -12.423  13.332  71.150  1.00  0.00    -0.397 C  
BRANCH   5   6
HETATM    6  C   UNL     1     -12.370  12.961  69.672  1.00  0.00    -0.083 C  
BRANCH   6   7
HETATM    7  C   UNL     1     -11.394  11.812  69.439  1.00  0.00    -0.337 C  
BRANCH   7   8
HETATM    8  C   UNL     1     -10.951  11.765  67.981  1.00  0.00    -0.274 C  
BRANCH   8   9
HETATM    9  C   UNL     1     -10.412  10.383  67.625  1.00  0.00    -0.277 C  
BRANCH   9  10
HETATM   10  C   UNL     1      -9.059  10.145  68.284  1.00  0.00    -0.122 C  
BRANCH  10  11
HETATM   11  C   UNL     1      -8.853   8.664  68.590  1.00  0.00    -0.142 C  
BRANCH  11  12
HETATM   12  C   UNL     1      -9.697   8.240  69.787  1.00  0.00    -0.180 C  
BRANCH  12  13
HETATM   13  C   UNL     1      -9.319   9.028  71.039  1.00  0.00    -0.339 C  
BRANCH  13  14
HETATM   14  C   UNL     1     -10.278   8.713  72.185  1.00  0.00    -0.394 C  
BRANCH  14  15
HETATM   15  C   UNL     1     -11.732   8.809  71.732  1.00  0.00    -0.416 C  
HETATM   16  C   UNL     1     -12.448   7.485  71.870  1.00  0.00    -0.303 C  
HETATM   17  O   UNL     1     -13.740   7.560  71.473  1.00  0.00    -0.378 OA 
HETATM   18  O   UNL     1     -11.952   6.451  72.286  1.00  0.00    -0.304 OA 
ENDBRANCH  14  15
ENDBRANCH  13  14
ENDBRANCH  12  13
ENDBRANCH  11  12
ENDBRANCH  10  11
ENDBRANCH   9  10
ENDBRANCH   8   9
ENDBRANCH   7   8
ENDBRANCH   6   7
ENDBRANCH   5   6
ENDBRANCH   4   5
ENDBRANCH   3   4
ENDBRANCH   2   3
TORSDOF 13
ENDMDL
MODEL      380
REMARK 921   NORMALIZED FREE ENERGY PREDICTED BY IDOCK:   -2.55 KCAL/MOL
REMARK 922        TOTAL FREE ENERGY PREDICTED BY IDOCK:   -5.90 KCAL/MOL
REMARK 923 INTER-LIGAND FREE ENERGY PREDICTED BY IDOCK:   -4.62 KCAL/MOL
REMARK 924 INTRA-LIGAND FREE ENERGY PREDICTED BY IDOCK:   -1.28 KCAL/MOL
REMARK 927      BINDING AFFINITY PREDICTED BY RF-SCORE:    0.00 PKD
ROOT
HETATM    1  C   UNL     1     -10.116   4.219  73.970  1.00  0.00    -0.213 C  
HETATM    2  C   UNL     1     -11.171   5.151  73.399  1.00  0.00    -0.358 C  
ENDROOT
BRANCH   2   3
HETATM    3  C   UNL     1     -10.619   6.562  73.214  1.00  0.00    -0.301 C  
BRANCH   3   4
HETATM    4  C   UNL     1     -10.116   6.774  71.789  1.00  0.00    -0.195 C  
BRANCH   4   5
HETATM    5  C   UNL     1     -11.254   7.213  70.872  1.00  0.00    -0.305 C  
BRANCH   5   6
HETATM    6  C   UNL     1     -10.902   8.510  70.150  1.00  0.00    -0.238 C  
BRANCH   6   7
HETATM    7  C   UNL     1      -9.469   8.467  69.631  1.00  0.00    -0.166 C  
BRANCH   7   8
HETATM    8  C   UNL     1      -8.703   9.717  70.050  1.00  0.00    -0.256 C  
BRANCH   8   9
HETATM    9  C   UNL     1      -7.960  10.319  68.862  1.00  0.00    -0.113 C  
BRANCH   9  10
HETATM   10  C   UNL     1      -8.620  11.618  68.414  1.00  0.00    -0.156 C  
BRANCH  10  11
HETATM   11  C   UNL     1      -8.668  11.711  66.892  1.00  0.00    -0.185 C  
BRANCH  11  12
HETATM   12  C   UNL     1     -10.082  11.450  66.382  1.00  0.00    -0.255 C  
BRANCH  12  13
HETATM   13  C   UNL     1     -11.116  11.659  67.484  1.00  0.00    -0.333 C  
BRANCH  13  14
HETATM   14  C   UNL     1     -11.790  13.022  67.340  1.00  0.00    -0.411 C  
BRANCH  14  15
HETATM   15  C   UNL     1     -11.799  13.779  68.665  1.00  0.00    -0.409 C  
HETATM   16  C   UNL     1     -10.663  14.772  68.748  1.00  0.00    -0.253 C  
HETATM   17  O   UNL     1     -10.664  15.450  69.920  1.00  0.00    -0.264 OA 
HETATM   18  O   UNL     1      -9.826  14.966  67.883  1.00  0.00    -0.212 OA 
ENDBRANCH  14  15
ENDBRANCH  13  14
ENDBRANCH  12  13
ENDBRANCH  11  12
ENDBRANCH  10  11
ENDBRANCH   9  10
ENDBRANCH   8   9
ENDBRANCH   7   8
ENDBRANCH   6   7
ENDBRANCH   5   6
ENDBRANCH   4   5
ENDBRANCH   3   4
ENDBRANCH   2   3
TORSDOF 13
ENDMDL
MODEL      381
REMARK 921   NORMALIZED FREE ENERGY PREDICTED BY IDOCK:   -2.55 KCAL/MOL
REMARK 922        TOTAL FREE ENERGY PREDICTED BY IDOCK:   -5.89 KCAL/MOL
REMARK 923 INTER-LIGAND FREE ENERGY PREDICTED BY IDOCK:   -5.94 KCAL/MOL
REMARK 924 INTRA-LIGAND FREE ENERGY PREDICTED BY IDOCK:    0.04 KCAL/MOL
REMARK 927      BINDING AFFINITY PREDICTED BY RF-SCORE:    0.00 PKD
ROOT
HETATM    1  C   UNL     1     -12.105  16.368  73.247  1.00  0.00    -0.553 C  
HETATM    2  C   UNL     1     -12.981  15.129  73.314  1.00  0.00    -0.645 C  
ENDROOT
BRANCH   2   3
HETATM    3  C   UNL     1     -14.129  15.211  72.310  1.00  0.00    -0.633 C  
BRANCH   3   4
HETATM    4  C   UNL     1     -14.359  13.867  71.625  1.00  0.00    -0.145 C  
BRANCH   4   5
HETATM    5  C   UNL     1     -13.360  12.826  72.123  1.00  0.00    -0.593 C  
BRANCH   5   6
HETATM    6  C   UNL     1     -12.508  12.295  70.975  1.00  0.00    -0.361 C  
BRANCH   6   7
HETATM    7  C   UNL     1     -12.748  10.803  70.772  1.00  0.00    -0.451 C  
BRANCH   7   8
HETATM    8  C   UNL     1     -11.468  10.010  71.013  1.00  0.00    -0.463 C  
BRANCH   8   9
HETATM    9  C   UNL     1     -10.457  10.264  69.900  1.00  0.00    -0.304 C  
BRANCH   9  10
HETATM   10  C   UNL     1     -10.903  11.425  69.020  1.00  0.00    -0.265 C  
BRANCH  10  11
HETATM   11  C   UNL     1     -11.341  10.932  67.644  1.00  0.00    -0.345 C  
BRANCH  11  12
HETATM   12  C   UNL     1     -10.649   9.618  67.298  1.00  0.00    -0.315 C  
BRANCH  12  13
HETATM   13  C   UNL     1      -9.731   9.778  66.090  1.00  0.00    -0.309 C  
BRANCH  13  14
HETATM   14  C   UNL     1      -8.856  11.020  66.238  1.00  0.00    -0.187 C  
BRANCH  14  15
HETATM   15  C   UNL     1      -7.426  10.649  66.619  1.00  0.00    -0.129 C  
HETATM   16  C   UNL     1      -6.803  11.686  67.524  1.00  0.00    -0.104 C  
HETATM   17  O   UNL     1      -5.534  11.365  67.870  1.00  0.00    -0.043 OA 
HETATM   18  O   UNL     1      -7.348  12.705  67.917  1.00  0.00    -0.092 OA 
ENDBRANCH  14  15
ENDBRANCH  13  14
ENDBRANCH  12  13
ENDBRANCH  11  12
ENDBRANCH  10  11
ENDBRANCH   9  10
ENDBRANCH   8   9
ENDBRANCH   7   8
ENDBRANCH   6   7
ENDBRANCH   5   6
ENDBRANCH   4   5
ENDBRANCH   3   4
ENDBRANCH   2   3
TORSDOF 13
ENDMDL
MODEL      382
REMARK 921   NORMALIZED FREE ENERGY PREDICTED BY IDOCK:   -2.54 KCAL/MOL
REMARK 922        TOTAL FREE ENERGY PREDICTED BY IDOCK:   -5.89 KCAL/MOL
REMARK 923 INTER-LIGAND FREE ENERGY PREDICTED BY IDOCK:   -4.40 KCAL/MOL
REMARK 924 INTRA-LIGAND FREE ENERGY PREDICTED BY IDOCK:   -1.48 KCAL/MOL
REMARK 927      BINDING AFFINITY PREDICTED BY RF-SCORE:    0.00 PKD
ROOT
HETATM    1  C   UNL     1     -12.196  14.043  70.469  1.00  0.00    -0.435 C  
HETATM    2  C   UNL     1     -11.703  13.751  69.062  1.00  0.00    -0.372 C  
ENDROOT
BRANCH   2   3
HETATM    3  C   UNL     1     -11.045  12.376  68.983  1.00  0.00    -0.288 C  
BRANCH   3   4
HETATM    4  C   UNL     1     -10.263  12.214  67.683  1.00  0.00    -0.206 C  
BRANCH   4   5
HETATM    5  C   UNL     1     -10.982  12.905  66.528  1.00  0.00    -0.300 C  
BRANCH   5   6
HETATM    6  C   UNL     1     -11.346  11.904  65.435  1.00  0.00    -0.334 C  
BRANCH   6   7
HETATM    7  C   UNL     1     -11.202  12.537  64.055  1.00  0.00    -0.461 C  
BRANCH   7   8
HETATM    8  C   UNL     1     -10.321  11.679  63.155  1.00  0.00    -0.383 C  
BRANCH   8   9
HETATM    9  C   UNL     1      -9.175  11.062  63.950  1.00  0.00    -0.181 C  
BRANCH   9  10
HETATM   10  C   UNL     1      -9.123   9.553  63.739  1.00  0.00    -0.153 C  
BRANCH  10  11
HETATM   11  C   UNL     1      -8.345   8.871  64.860  1.00  0.00    -0.181 C  
BRANCH  11  12
HETATM   12  C   UNL     1      -8.142   9.824  66.033  1.00  0.00    -0.114 C  
BRANCH  12  13
HETATM   13  C   UNL     1      -7.363   9.156  67.161  1.00  0.00    -0.087 C  
BRANCH  13  14
HETATM   14  C   UNL     1      -8.229   8.122  67.878  1.00  0.00    -0.129 C  
BRANCH  14  15
HETATM   15  C   UNL     1      -9.190   8.789  68.858  1.00  0.00    -0.141 C  
HETATM   16  C   UNL     1     -10.342   7.879  69.216  1.00  0.00    -0.220 C  
HETATM   17  O   UNL     1     -11.200   8.461  70.087  1.00  0.00    -0.233 OA 
HETATM   18  O   UNL     1     -10.512   6.748  68.790  1.00  0.00    -0.185 OA 
ENDBRANCH  14  15
ENDBRANCH  13  14
ENDBRANCH  12  13
ENDBRANCH  11  12
ENDBRANCH  10  11
ENDBRANCH   9  10
ENDBRANCH   8   9
ENDBRANCH   7   8
ENDBRANCH   6   7
ENDBRANCH   5   6
ENDBRANCH   4   5
ENDBRANCH   3   4
ENDBRANCH   2   3
TORSDOF 13
ENDMDL
MODEL      383
REMARK 921   NORMALIZED FREE ENERGY PREDICTED BY IDOCK:   -2.54 KCAL/MOL
REMARK 922        TOTAL FREE ENERGY PREDICTED BY IDOCK:   -5.88 KCAL/MOL
REMARK 923 INTER-LIGAND FREE ENERGY PREDICTED BY IDOCK:   -4.65 KCAL/MOL
REMARK 924 INTRA-LIGAND FREE ENERGY PREDICTED BY IDOCK:   -1.23 KCAL/MOL
REMARK 927      BINDING AFFINITY PREDICTED BY RF-SCORE:    0.00 PKD
ROOT
HETATM    1  C   UNL     1      -8.373   5.165  67.707  1.00  0.00    -0.105 C  
HETATM    2  C   UNL     1      -7.749   6.431  67.146  1.00  0.00    -0.100 C  
ENDROOT
BRANCH   2   3
HETATM    3  C   UNL     1      -8.729   7.173  66.240  1.00  0.00    -0.156 C  
BRANCH   3   4
HETATM    4  C   UNL     1      -8.024   8.273  65.451  1.00  0.00    -0.127 C  
BRANCH   4   5
HETATM    5  C   UNL     1      -9.011   9.017  64.557  1.00  0.00    -0.069 C  
BRANCH   5   6
HETATM    6  C   UNL     1      -8.561  10.456  64.327  1.00  0.00    -0.190 C  
BRANCH   6   7
HETATM    7  C   UNL     1      -8.792  11.300  65.576  1.00  0.00    -0.094 C  
BRANCH   7   8
HETATM    8  C   UNL     1     -10.143  10.979  66.204  1.00  0.00    -0.286 C  
BRANCH   8   9
HETATM    9  C   UNL     1     -10.314  11.720  67.526  1.00  0.00    -0.217 C  
BRANCH   9  10
HETATM   10  C   UNL     1      -9.049  12.494  67.879  1.00  0.00    -0.199 C  
BRANCH  10  11
HETATM   11  C   UNL     1      -9.388  13.881  68.418  1.00  0.00    -0.201 C  
BRANCH  11  12
HETATM   12  C   UNL     1     -10.836  13.934  68.894  1.00  0.00    -0.278 C  
BRANCH  12  13
HETATM   13  C   UNL     1     -11.548  15.176  68.364  1.00  0.00    -0.356 C  
BRANCH  13  14
HETATM   14  C   UNL     1     -11.090  15.493  66.942  1.00  0.00    -0.221 C  
BRANCH  14  15
HETATM   15  C   UNL     1     -11.870  14.678  65.914  1.00  0.00    -0.272 C  
HETATM   16  C   UNL     1     -11.714  15.241  64.520  1.00  0.00    -0.305 C  
HETATM   17  O   UNL     1     -12.401  14.523  63.601  1.00  0.00    -0.704 OA 
HETATM   18  O   UNL     1     -11.056  16.224  64.222  1.00  0.00    -0.762 OA 
ENDBRANCH  14  15
ENDBRANCH  13  14
ENDBRANCH  12  13
ENDBRANCH  11  12
ENDBRANCH  10  11
ENDBRANCH   9  10
ENDBRANCH   8   9
ENDBRANCH   7   8
ENDBRANCH   6   7
ENDBRANCH   5   6
ENDBRANCH   4   5
ENDBRANCH   3   4
ENDBRANCH   2   3
TORSDOF 13
ENDMDL
MODEL      384
REMARK 921   NORMALIZED FREE ENERGY PREDICTED BY IDOCK:   -2.54 KCAL/MOL
REMARK 922        TOTAL FREE ENERGY PREDICTED BY IDOCK:   -5.88 KCAL/MOL
REMARK 923 INTER-LIGAND FREE ENERGY PREDICTED BY IDOCK:   -4.88 KCAL/MOL
REMARK 924 INTRA-LIGAND FREE ENERGY PREDICTED BY IDOCK:   -1.00 KCAL/MOL
REMARK 927      BINDING AFFINITY PREDICTED BY RF-SCORE:    0.00 PKD
ROOT
HETATM    1  C   UNL     1      -9.614   5.367  67.729  1.00  0.00    -0.147 C  
HETATM    2  C   UNL     1     -10.639   6.283  68.374  1.00  0.00    -0.316 C  
ENDROOT
BRANCH   2   3
HETATM    3  C   UNL     1     -10.397   6.409  69.877  1.00  0.00    -0.242 C  
BRANCH   3   4
HETATM    4  C   UNL     1      -9.441   7.558  70.186  1.00  0.00    -0.161 C  
BRANCH   4   5
HETATM    5  C   UNL     1     -10.159   8.901  70.091  1.00  0.00    -0.212 C  
BRANCH   5   6
HETATM    6  C   UNL     1      -9.816   9.611  68.785  1.00  0.00    -0.173 C  
BRANCH   6   7
HETATM    7  C   UNL     1     -11.069  10.204  68.148  1.00  0.00    -0.290 C  
BRANCH   7   8
HETATM    8  C   UNL     1     -10.702  11.230  67.083  1.00  0.00    -0.297 C  
BRANCH   8   9
HETATM    9  C   UNL     1     -10.823  12.647  67.633  1.00  0.00    -0.248 C  
BRANCH   9  10
HETATM   10  C   UNL     1      -9.465  13.167  68.089  1.00  0.00    -0.222 C  
BRANCH  10  11
HETATM   11  C   UNL     1      -9.347  14.670  67.853  1.00  0.00    -0.198 C  
BRANCH  11  12
HETATM   12  C   UNL     1      -9.480  15.433  69.167  1.00  0.00    -0.242 C  
BRANCH  12  13
HETATM   13  C   UNL     1     -10.547  16.520  69.070  1.00  0.00    -0.324 C  
BRANCH  13  14
HETATM   14  C   UNL     1     -11.896  15.997  69.559  1.00  0.00    -0.243 C  
BRANCH  14  15
HETATM   15  C   UNL     1     -11.722  14.987  70.689  1.00  0.00    -0.357 C  
HETATM   16  C   UNL     1     -12.956  14.903  71.557  1.00  0.00    -0.342 C  
HETATM   17  O   UNL     1     -12.812  14.007  72.563  1.00  0.00    -0.360 OA 
HETATM   18  O   UNL     1     -13.978  15.550  71.401  1.00  0.00    -0.509 OA 
ENDBRANCH  14  15
ENDBRANCH  13  14
ENDBRANCH  12  13
ENDBRANCH  11  12
ENDBRANCH  10  11
ENDBRANCH   9  10
ENDBRANCH   8   9
ENDBRANCH   7   8
ENDBRANCH   6   7
ENDBRANCH   5   6
ENDBRANCH   4   5
ENDBRANCH   3   4
ENDBRANCH   2   3
TORSDOF 13
ENDMDL
MODEL      385
REMARK 921   NORMALIZED FREE ENERGY PREDICTED BY IDOCK:   -2.54 KCAL/MOL
REMARK 922        TOTAL FREE ENERGY PREDICTED BY IDOCK:   -5.88 KCAL/MOL
REMARK 923 INTER-LIGAND FREE ENERGY PREDICTED BY IDOCK:   -5.20 KCAL/MOL
REMARK 924 INTRA-LIGAND FREE ENERGY PREDICTED BY IDOCK:   -0.68 KCAL/MOL
REMARK 927      BINDING AFFINITY PREDICTED BY RF-SCORE:    0.00 PKD
ROOT
HETATM    1  C   UNL     1      -9.556  19.472  66.861  1.00  0.00    -0.440 C  
HETATM    2  C   UNL     1      -9.166  18.105  67.397  1.00  0.00    -0.257 C  
ENDROOT
BRANCH   2   3
HETATM    3  C   UNL     1     -10.375  17.176  67.470  1.00  0.00    -0.341 C  
BRANCH   3   4
HETATM    4  C   UNL     1     -10.128  16.026  68.442  1.00  0.00    -0.229 C  
BRANCH   4   5
HETATM    5  C   UNL     1     -11.309  15.857  69.394  1.00  0.00    -0.349 C  
BRANCH   5   6
HETATM    6  C   UNL     1     -12.155  14.650  69.004  1.00  0.00    -0.270 C  
BRANCH   6   7
HETATM    7  C   UNL     1     -11.298  13.391  68.932  1.00  0.00    -0.331 C  
BRANCH   7   8
HETATM    8  C   UNL     1     -11.668  12.553  67.713  1.00  0.00    -0.419 C  
BRANCH   8   9
HETATM    9  C   UNL     1     -11.487  11.067  68.005  1.00  0.00    -0.365 C  
BRANCH   9  10
HETATM   10  C   UNL     1     -10.083  10.786  68.529  1.00  0.00    -0.187 C  
BRANCH  10  11
HETATM   11  C   UNL     1      -9.345   9.807  67.621  1.00  0.00    -0.157 C  
BRANCH  11  12
HETATM   12  C   UNL     1     -10.266   8.666  67.200  1.00  0.00    -0.353 C  
BRANCH  12  13
HETATM   13  C   UNL     1     -10.363   7.602  68.290  1.00  0.00    -0.238 C  
BRANCH  13  14
HETATM   14  C   UNL     1     -10.927   6.301  67.725  1.00  0.00    -0.427 C  
BRANCH  14  15
HETATM   15  C   UNL     1      -9.847   5.227  67.624  1.00  0.00    -0.187 C  
HETATM   16  C   UNL     1     -10.008   4.390  66.376  1.00  0.00    -0.232 C  
HETATM   17  O   UNL     1      -9.053   3.435  66.276  1.00  0.00    -0.140 OA 
HETATM   18  O   UNL     1     -10.883   4.529  65.537  1.00  0.00    -0.280 OA 
ENDBRANCH  14  15
ENDBRANCH  13  14
ENDBRANCH  12  13
ENDBRANCH  11  12
ENDBRANCH  10  11
ENDBRANCH   9  10
ENDBRANCH   8   9
ENDBRANCH   7   8
ENDBRANCH   6   7
ENDBRANCH   5   6
ENDBRANCH   4   5
ENDBRANCH   3   4
ENDBRANCH   2   3
TORSDOF 13
ENDMDL
MODEL      386
REMARK 921   NORMALIZED FREE ENERGY PREDICTED BY IDOCK:   -2.54 KCAL/MOL
REMARK 922        TOTAL FREE ENERGY PREDICTED BY IDOCK:   -5.88 KCAL/MOL
REMARK 923 INTER-LIGAND FREE ENERGY PREDICTED BY IDOCK:   -4.01 KCAL/MOL
REMARK 924 INTRA-LIGAND FREE ENERGY PREDICTED BY IDOCK:   -1.87 KCAL/MOL
REMARK 927      BINDING AFFINITY PREDICTED BY RF-SCORE:    0.00 PKD
ROOT
HETATM    1  C   UNL     1     -11.197  10.679  68.041  1.00  0.00    -0.373 C  
HETATM    2  C   UNL     1      -9.767  10.846  67.556  1.00  0.00    -0.187 C  
ENDROOT
BRANCH   2   3
HETATM    3  C   UNL     1      -9.611  10.352  66.119  1.00  0.00    -0.245 C  
BRANCH   3   4
HETATM    4  C   UNL     1      -9.837   8.845  66.028  1.00  0.00    -0.277 C  
BRANCH   4   5
HETATM    5  C   UNL     1      -8.511   8.093  66.096  1.00  0.00    -0.143 C  
BRANCH   5   6
HETATM    6  C   UNL     1      -8.198   7.667  67.526  1.00  0.00    -0.121 C  
BRANCH   6   7
HETATM    7  C   UNL     1      -9.344   6.843  68.106  1.00  0.00    -0.124 C  
BRANCH   7   8
HETATM    8  C   UNL     1      -9.668   7.291  69.527  1.00  0.00    -0.158 C  
BRANCH   8   9
HETATM    9  C   UNL     1     -11.114   6.958  69.881  1.00  0.00    -0.333 C  
BRANCH   9  10
HETATM   10  C   UNL     1     -11.730   8.064  70.729  1.00  0.00    -0.215 C  
BRANCH  10  11
HETATM   11  C   UNL     1     -10.734   8.581  71.763  1.00  0.00    -0.373 C  
BRANCH  11  12
HETATM   12  C   UNL     1     -10.718   7.678  72.992  1.00  0.00    -0.449 C  
BRANCH  12  13
HETATM   13  C   UNL     1      -9.337   7.653  73.643  1.00  0.00    -0.344 C  
BRANCH  13  14
HETATM   14  C   UNL     1      -8.909   6.219  73.945  1.00  0.00    -0.131 C  
BRANCH  14  15
HETATM   15  C   UNL     1      -9.693   5.217  73.103  1.00  0.00    -0.161 C  
HETATM   16  C   UNL     1      -8.868   4.690  71.951  1.00  0.00    -0.123 C  
HETATM   17  O   UNL     1      -9.555   3.799  71.198  1.00  0.00    -0.154 OA 
HETATM   18  O   UNL     1      -7.718   5.009  71.699  1.00  0.00    -0.099 OA 
ENDBRANCH  14  15
ENDBRANCH  13  14
ENDBRANCH  12  13
ENDBRANCH  11  12
ENDBRANCH  10  11
ENDBRANCH   9  10
ENDBRANCH   8   9
ENDBRANCH   7   8
ENDBRANCH   6   7
ENDBRANCH   5   6
ENDBRANCH   4   5
ENDBRANCH   3   4
ENDBRANCH   2   3
TORSDOF 13
ENDMDL
MODEL      387
REMARK 921   NORMALIZED FREE ENERGY PREDICTED BY IDOCK:   -2.54 KCAL/MOL
REMARK 922        TOTAL FREE ENERGY PREDICTED BY IDOCK:   -5.87 KCAL/MOL
REMARK 923 INTER-LIGAND FREE ENERGY PREDICTED BY IDOCK:   -4.63 KCAL/MOL
REMARK 924 INTRA-LIGAND FREE ENERGY PREDICTED BY IDOCK:   -1.25 KCAL/MOL
REMARK 927      BINDING AFFINITY PREDICTED BY RF-SCORE:    0.00 PKD
ROOT
HETATM    1  C   UNL     1     -13.961  12.648  72.327  1.00  0.00    -0.166 C  
HETATM    2  C   UNL     1     -14.083  14.154  72.171  1.00  0.00    -0.643 C  
ENDROOT
BRANCH   2   3
HETATM    3  C   UNL     1     -12.972  14.878  72.928  1.00  0.00    -0.572 C  
BRANCH   3   4
HETATM    4  C   UNL     1     -11.862  15.326  71.981  1.00  0.00    -0.513 C  
BRANCH   4   5
HETATM    5  C   UNL     1     -12.284  15.143  70.526  1.00  0.00    -0.389 C  
BRANCH   5   6
HETATM    6  C   UNL     1     -11.091  14.762  69.656  1.00  0.00    -0.299 C  
BRANCH   6   7
HETATM    7  C   UNL     1     -11.468  13.652  68.679  1.00  0.00    -0.342 C  
BRANCH   7   8
HETATM    8  C   UNL     1     -11.571  12.312  69.397  1.00  0.00    -0.378 C  
BRANCH   8   9
HETATM    9  C   UNL     1     -10.427  11.390  68.986  1.00  0.00    -0.196 C  
BRANCH   9  10
HETATM   10  C   UNL     1     -10.377  11.233  67.471  1.00  0.00    -0.224 C  
BRANCH  10  11
HETATM   11  C   UNL     1     -10.758   9.815  67.056  1.00  0.00    -0.236 C  
BRANCH  11  12
HETATM   12  C   UNL     1     -10.846   8.902  68.275  1.00  0.00    -0.048 C  
BRANCH  12  13
HETATM   13  C   UNL     1     -10.147   7.570  68.021  1.00  0.00    -0.221 C  
BRANCH  13  14
HETATM   14  C   UNL     1      -8.671   7.654  68.407  1.00  0.00    -0.127 C  
BRANCH  14  15
HETATM   15  C   UNL     1      -8.502   8.103  69.855  1.00  0.00    -0.125 C  
HETATM   16  C   UNL     1      -7.051   8.090  70.277  1.00  0.00    -0.048 C  
HETATM   17  O   UNL     1      -6.890   8.489  71.561  1.00  0.00    -0.065 OA 
HETATM   18  O   UNL     1      -6.110   7.763  69.572  1.00  0.00    -0.032 OA 
ENDBRANCH  14  15
ENDBRANCH  13  14
ENDBRANCH  12  13
ENDBRANCH  11  12
ENDBRANCH  10  11
ENDBRANCH   9  10
ENDBRANCH   8   9
ENDBRANCH   7   8
ENDBRANCH   6   7
ENDBRANCH   5   6
ENDBRANCH   4   5
ENDBRANCH   3   4
ENDBRANCH   2   3
TORSDOF 13
ENDMDL
MODEL      388
REMARK 921   NORMALIZED FREE ENERGY PREDICTED BY IDOCK:   -2.54 KCAL/MOL
REMARK 922        TOTAL FREE ENERGY PREDICTED BY IDOCK:   -5.87 KCAL/MOL
REMARK 923 INTER-LIGAND FREE ENERGY PREDICTED BY IDOCK:   -4.27 KCAL/MOL
REMARK 924 INTRA-LIGAND FREE ENERGY PREDICTED BY IDOCK:   -1.60 KCAL/MOL
REMARK 927      BINDING AFFINITY PREDICTED BY RF-SCORE:    0.00 PKD
ROOT
HETATM    1  C   UNL     1     -10.190  10.828  64.285  1.00  0.00    -0.422 C  
HETATM    2  C   UNL     1     -10.878  12.011  64.944  1.00  0.00    -0.349 C  
ENDROOT
BRANCH   2   3
HETATM    3  C   UNL     1     -10.590  12.052  66.443  1.00  0.00    -0.278 C  
BRANCH   3   4
HETATM    4  C   UNL     1     -11.882  12.003  67.253  1.00  0.00    -0.257 C  
BRANCH   4   5
HETATM    5  C   UNL     1     -12.020  13.244  68.130  1.00  0.00    -0.340 C  
BRANCH   5   6
HETATM    6  C   UNL     1     -10.910  13.300  69.175  1.00  0.00    -0.148 C  
BRANCH   6   7
HETATM    7  C   UNL     1     -10.455  14.738  69.402  1.00  0.00    -0.210 C  
BRANCH   7   8
HETATM    8  C   UNL     1     -11.653  15.665  69.573  1.00  0.00    -0.366 C  
BRANCH   8   9
HETATM    9  C   UNL     1     -11.624  16.782  68.535  1.00  0.00     0.221 C  
BRANCH   9  10
HETATM   10  C   UNL     1     -10.199  17.036  68.056  1.00  0.00    -0.319 C  
BRANCH  10  11
HETATM   11  C   UNL     1     -10.109  16.946  66.536  1.00  0.00    -0.320 C  
BRANCH  11  12
HETATM   12  C   UNL     1      -8.795  16.297  66.113  1.00  0.00    -0.362 C  
BRANCH  12  13
HETATM   13  C   UNL     1      -8.625  14.923  66.753  1.00  0.00    -0.256 C  
BRANCH  13  14
HETATM   14  C   UNL     1      -7.193  14.733  67.250  1.00  0.00    -0.114 C  
BRANCH  14  15
HETATM   15  C   UNL     1      -6.657  16.007  67.897  1.00  0.00    -0.161 C  
HETATM   16  C   UNL     1      -6.620  15.896  69.403  1.00  0.00    -0.173 C  
HETATM   17  O   UNL     1      -6.145  17.022  69.986  1.00  0.00    -0.230 OA 
HETATM   18  O   UNL     1      -6.970  14.923  70.051  1.00  0.00    -0.187 OA 
ENDBRANCH  14  15
ENDBRANCH  13  14
ENDBRANCH  12  13
ENDBRANCH  11  12
ENDBRANCH  10  11
ENDBRANCH   9  10
ENDBRANCH   8   9
ENDBRANCH   7   8
ENDBRANCH   6   7
ENDBRANCH   5   6
ENDBRANCH   4   5
ENDBRANCH   3   4
ENDBRANCH   2   3
TORSDOF 13
ENDMDL
MODEL      389
REMARK 921   NORMALIZED FREE ENERGY PREDICTED BY IDOCK:   -2.54 KCAL/MOL
REMARK 922        TOTAL FREE ENERGY PREDICTED BY IDOCK:   -5.87 KCAL/MOL
REMARK 923 INTER-LIGAND FREE ENERGY PREDICTED BY IDOCK:   -4.63 KCAL/MOL
REMARK 924 INTRA-LIGAND FREE ENERGY PREDICTED BY IDOCK:   -1.25 KCAL/MOL
REMARK 927      BINDING AFFINITY PREDICTED BY RF-SCORE:    0.00 PKD
ROOT
HETATM    1  C   UNL     1     -14.409   7.172  71.440  1.00  0.00    -0.417 C  
HETATM    2  C   UNL     1     -14.353   8.578  72.012  1.00  0.00    -0.537 C  
ENDROOT
BRANCH   2   3
HETATM    3  C   UNL     1     -12.948   9.165  71.895  1.00  0.00    -0.473 C  
BRANCH   3   4
HETATM    4  C   UNL     1     -12.994  10.604  71.390  1.00  0.00    -0.545 C  
BRANCH   4   5
HETATM    5  C   UNL     1     -11.797  10.902  70.490  1.00  0.00    -0.457 C  
BRANCH   5   6
HETATM    6  C   UNL     1     -10.782   9.765  70.540  1.00  0.00    -0.381 C  
BRANCH   6   7
HETATM    7  C   UNL     1     -10.495   9.236  69.139  1.00  0.00    -0.231 C  
BRANCH   7   8
HETATM    8  C   UNL     1     -10.223   7.737  69.171  1.00  0.00    -0.210 C  
BRANCH   8   9
HETATM    9  C   UNL     1      -9.150   7.360  68.154  1.00  0.00    -0.131 C  
BRANCH   9  10
HETATM   10  C   UNL     1      -9.052   5.847  68.008  1.00  0.00    -0.117 C  
BRANCH  10  11
HETATM   11  C   UNL     1      -7.665   5.347  68.399  1.00  0.00    -0.081 C  
BRANCH  11  12
HETATM   12  C   UNL     1      -7.760   4.015  69.135  1.00  0.00    -0.053 C  
BRANCH  12  13
HETATM   13  C   UNL     1      -7.449   4.180  70.620  1.00  0.00    -0.045 C  
BRANCH  13  14
HETATM   14  C   UNL     1      -8.588   3.630  71.474  1.00  0.00    -0.113 C  
BRANCH  14  15
HETATM   15  C   UNL     1      -9.863   4.448  71.291  1.00  0.00    -0.260 C  
HETATM   16  C   UNL     1     -10.117   5.357  72.471  1.00  0.00    -0.175 C  
HETATM   17  O   UNL     1     -11.246   6.088  72.317  1.00  0.00    -0.263 OA 
HETATM   18  O   UNL     1      -9.411   5.446  73.462  1.00  0.00    -0.137 OA 
ENDBRANCH  14  15
ENDBRANCH  13  14
ENDBRANCH  12  13
ENDBRANCH  11  12
ENDBRANCH  10  11
ENDBRANCH   9  10
ENDBRANCH   8   9
ENDBRANCH   7   8
ENDBRANCH   6   7
ENDBRANCH   5   6
ENDBRANCH   4   5
ENDBRANCH   3   4
ENDBRANCH   2   3
TORSDOF 13
ENDMDL
MODEL      390
REMARK 921   NORMALIZED FREE ENERGY PREDICTED BY IDOCK:   -2.53 KCAL/MOL
REMARK 922        TOTAL FREE ENERGY PREDICTED BY IDOCK:   -5.86 KCAL/MOL
REMARK 923 INTER-LIGAND FREE ENERGY PREDICTED BY IDOCK:   -4.97 KCAL/MOL
REMARK 924 INTRA-LIGAND FREE ENERGY PREDICTED BY IDOCK:   -0.89 KCAL/MOL
REMARK 927      BINDING AFFINITY PREDICTED BY RF-SCORE:    0.00 PKD
ROOT
HETATM    1  C   UNL     1     -12.107  16.360  73.242  1.00  0.00    -0.553 C  
HETATM    2  C   UNL     1     -12.988  15.125  73.317  1.00  0.00    -0.645 C  
ENDROOT
BRANCH   2   3
HETATM    3  C   UNL     1     -14.144  15.212  72.324  1.00  0.00    -0.633 C  
BRANCH   3   4
HETATM    4  C   UNL     1     -14.400  13.863  71.658  1.00  0.00    -0.145 C  
BRANCH   4   5
HETATM    5  C   UNL     1     -13.410  12.815  72.158  1.00  0.00    -0.593 C  
BRANCH   5   6
HETATM    6  C   UNL     1     -12.596  12.240  71.003  1.00  0.00    -0.352 C  
BRANCH   6   7
HETATM    7  C   UNL     1     -12.881  10.751  70.830  1.00  0.00    -0.443 C  
BRANCH   7   8
HETATM    8  C   UNL     1     -11.617   9.929  71.050  1.00  0.00    -0.470 C  
BRANCH   8   9
HETATM    9  C   UNL     1     -10.624  10.149  69.913  1.00  0.00    -0.331 C  
BRANCH   9  10
HETATM   10  C   UNL     1      -9.939   8.842  69.534  1.00  0.00    -0.195 C  
BRANCH  10  11
HETATM   11  C   UNL     1      -8.483   8.835  69.989  1.00  0.00    -0.133 C  
BRANCH  11  12
HETATM   12  C   UNL     1      -7.949  10.258  70.107  1.00  0.00     0.091 C  
BRANCH  12  13
HETATM   13  C   UNL     1      -6.834  10.517  69.098  1.00  0.00    -0.074 C  
BRANCH  13  14
HETATM   14  C   UNL     1      -7.245  10.038  67.707  1.00  0.00    -0.087 C  
BRANCH  14  15
HETATM   15  C   UNL     1      -7.615  11.212  66.804  1.00  0.00    -0.146 C  
HETATM   16  C   UNL     1      -8.718  10.847  65.838  1.00  0.00    -0.183 C  
HETATM   17  O   UNL     1      -9.055  11.882  65.034  1.00  0.00     0.086 OA 
HETATM   18  O   UNL     1      -9.263   9.758  65.763  1.00  0.00    -0.163 OA 
ENDBRANCH  14  15
ENDBRANCH  13  14
ENDBRANCH  12  13
ENDBRANCH  11  12
ENDBRANCH  10  11
ENDBRANCH   9  10
ENDBRANCH   8   9
ENDBRANCH   7   8
ENDBRANCH   6   7
ENDBRANCH   5   6
ENDBRANCH   4   5
ENDBRANCH   3   4
ENDBRANCH   2   3
TORSDOF 13
ENDMDL
MODEL      391
REMARK 921   NORMALIZED FREE ENERGY PREDICTED BY IDOCK:   -2.53 KCAL/MOL
REMARK 922        TOTAL FREE ENERGY PREDICTED BY IDOCK:   -5.86 KCAL/MOL
REMARK 923 INTER-LIGAND FREE ENERGY PREDICTED BY IDOCK:   -4.63 KCAL/MOL
REMARK 924 INTRA-LIGAND FREE ENERGY PREDICTED BY IDOCK:   -1.24 KCAL/MOL
REMARK 927      BINDING AFFINITY PREDICTED BY RF-SCORE:    0.00 PKD
ROOT
HETATM    1  C   UNL     1     -12.555  13.884  70.217  1.00  0.00    -0.328 C  
HETATM    2  C   UNL     1     -11.972  13.206  68.989  1.00  0.00    -0.329 C  
ENDROOT
BRANCH   2   3
HETATM    3  C   UNL     1     -11.487  11.796  69.316  1.00  0.00    -0.369 C  
BRANCH   3   4
HETATM    4  C   UNL     1     -10.869  11.128  68.091  1.00  0.00    -0.266 C  
BRANCH   4   5
HETATM    5  C   UNL     1     -11.651  11.482  66.829  1.00  0.00    -0.133 C  
BRANCH   5   6
HETATM    6  C   UNL     1     -10.914  12.536  66.009  1.00  0.00    -0.318 C  
BRANCH   6   7
HETATM    7  C   UNL     1     -11.376  12.510  64.555  1.00  0.00    -0.379 C  
BRANCH   7   8
HETATM    8  C   UNL     1     -11.477  13.923  63.993  1.00  0.00    -0.183 C  
BRANCH   8   9
HETATM    9  C   UNL     1     -11.622  14.942  65.118  1.00  0.00    -0.330 C  
BRANCH   9  10
HETATM   10  C   UNL     1     -10.906  16.240  64.765  1.00  0.00    -0.245 C  
BRANCH  10  11
HETATM   11  C   UNL     1     -10.523  17.014  66.023  1.00  0.00    -0.280 C  
BRANCH  11  12
HETATM   12  C   UNL     1     -10.280  16.060  67.188  1.00  0.00    -0.278 C  
BRANCH  12  13
HETATM   13  C   UNL     1     -10.182  16.815  68.511  1.00  0.00    -0.298 C  
BRANCH  13  14
HETATM   14  C   UNL     1      -8.987  17.766  68.502  1.00  0.00    -0.288 C  
BRANCH  14  15
HETATM   15  C   UNL     1      -7.742  17.096  69.077  1.00  0.00    -0.164 C  
HETATM   16  C   UNL     1      -6.789  16.661  67.988  1.00  0.00    -0.143 C  
HETATM   17  O   UNL     1      -5.680  16.067  68.489  1.00  0.00    -0.101 OA 
HETATM   18  O   UNL     1      -6.965  16.810  66.790  1.00  0.00    -0.195 OA 
ENDBRANCH  14  15
ENDBRANCH  13  14
ENDBRANCH  12  13
ENDBRANCH  11  12
ENDBRANCH  10  11
ENDBRANCH   9  10
ENDBRANCH   8   9
ENDBRANCH   7   8
ENDBRANCH   6   7
ENDBRANCH   5   6
ENDBRANCH   4   5
ENDBRANCH   3   4
ENDBRANCH   2   3
TORSDOF 13
ENDMDL
MODEL      392
REMARK 921   NORMALIZED FREE ENERGY PREDICTED BY IDOCK:   -2.53 KCAL/MOL
REMARK 922        TOTAL FREE ENERGY PREDICTED BY IDOCK:   -5.86 KCAL/MOL
REMARK 923 INTER-LIGAND FREE ENERGY PREDICTED BY IDOCK:   -4.83 KCAL/MOL
REMARK 924 INTRA-LIGAND FREE ENERGY PREDICTED BY IDOCK:   -1.02 KCAL/MOL
REMARK 927      BINDING AFFINITY PREDICTED BY RF-SCORE:    0.00 PKD
ROOT
HETATM    1  C   UNL     1      -6.057  18.518  69.059  1.00  0.00    -0.240 C  
HETATM    2  C   UNL     1      -7.181  19.533  69.178  1.00  0.00    -0.382 C  
ENDROOT
BRANCH   2   3
HETATM    3  C   UNL     1      -7.798  19.834  67.814  1.00  0.00    -0.326 C  
BRANCH   3   4
HETATM    4  C   UNL     1      -7.892  18.572  66.962  1.00  0.00    -0.236 C  
BRANCH   4   5
HETATM    5  C   UNL     1      -9.262  17.917  67.111  1.00  0.00    -0.258 C  
BRANCH   5   6
HETATM    6  C   UNL     1      -9.143  16.551  67.779  1.00  0.00    -0.204 C  
BRANCH   6   7
HETATM    7  C   UNL     1      -9.482  15.437  66.793  1.00  0.00    -0.260 C  
BRANCH   7   8
HETATM    8  C   UNL     1     -10.656  15.836  65.907  1.00  0.00    -0.350 C  
BRANCH   8   9
HETATM    9  C   UNL     1     -11.517  14.623  65.573  1.00  0.00    -0.341 C  
BRANCH   9  10
HETATM   10  C   UNL     1     -10.851  13.339  66.053  1.00  0.00    -0.284 C  
BRANCH  10  11
HETATM   11  C   UNL     1     -11.785  12.543  66.959  1.00  0.00    -0.437 C  
BRANCH  11  12
HETATM   12  C   UNL     1     -11.033  11.405  67.642  1.00  0.00    -0.303 C  
BRANCH  12  13
HETATM   13  C   UNL     1      -9.785  11.016  66.855  1.00  0.00    -0.215 C  
BRANCH  13  14
HETATM   14  C   UNL     1     -10.035   9.750  66.039  1.00  0.00    -0.342 C  
BRANCH  14  15
HETATM   15  C   UNL     1      -8.723   9.078  65.642  1.00  0.00    -0.205 C  
HETATM   16  C   UNL     1      -8.299   9.465  64.245  1.00  0.00    -0.173 C  
HETATM   17  O   UNL     1      -7.135   8.875  63.884  1.00  0.00    -0.090 OA 
HETATM   18  O   UNL     1      -8.908  10.216  63.501  1.00  0.00    -0.188 OA 
ENDBRANCH  14  15
ENDBRANCH  13  14
ENDBRANCH  12  13
ENDBRANCH  11  12
ENDBRANCH  10  11
ENDBRANCH   9  10
ENDBRANCH   8   9
ENDBRANCH   7   8
ENDBRANCH   6   7
ENDBRANCH   5   6
ENDBRANCH   4   5
ENDBRANCH   3   4
ENDBRANCH   2   3
TORSDOF 13
ENDMDL
MODEL      393
REMARK 921   NORMALIZED FREE ENERGY PREDICTED BY IDOCK:   -2.52 KCAL/MOL
REMARK 922        TOTAL FREE ENERGY PREDICTED BY IDOCK:   -5.84 KCAL/MOL
REMARK 923 INTER-LIGAND FREE ENERGY PREDICTED BY IDOCK:   -5.20 KCAL/MOL
REMARK 924 INTRA-LIGAND FREE ENERGY PREDICTED BY IDOCK:   -0.64 KCAL/MOL
REMARK 927      BINDING AFFINITY PREDICTED BY RF-SCORE:    0.00 PKD
ROOT
HETATM    1  C   UNL     1     -14.001   7.421  71.594  1.00  0.00    -0.523 C  
HETATM    2  C   UNL     1     -12.759   6.934  70.867  1.00  0.00    -0.196 C  
ENDROOT
BRANCH   2   3
HETATM    3  C   UNL     1     -11.509   7.127  71.723  1.00  0.00    -0.301 C  
BRANCH   3   4
HETATM    4  C   UNL     1     -10.403   6.162  71.305  1.00  0.00    -0.264 C  
BRANCH   4   5
HETATM    5  C   UNL     1      -9.210   6.921  70.729  1.00  0.00    -0.158 C  
BRANCH   5   6
HETATM    6  C   UNL     1      -9.516   7.431  69.325  1.00  0.00    -0.154 C  
BRANCH   6   7
HETATM    7  C   UNL     1      -8.427   7.002  68.346  1.00  0.00    -0.123 C  
BRANCH   7   8
HETATM    8  C   UNL     1      -7.942   8.188  67.521  1.00  0.00    -0.122 C  
BRANCH   8   9
HETATM    9  C   UNL     1      -9.119   9.037  67.052  1.00  0.00    -0.155 C  
BRANCH   9  10
HETATM   10  C   UNL     1      -8.750  10.516  67.048  1.00  0.00    -0.132 C  
BRANCH  10  11
HETATM   11  C   UNL     1      -9.661  11.305  66.112  1.00  0.00    -0.241 C  
BRANCH  11  12
HETATM   12  C   UNL     1      -9.352  12.796  66.190  1.00  0.00    -0.114 C  
BRANCH  12  13
HETATM   13  C   UNL     1     -10.090  13.453  67.353  1.00  0.00    -0.237 C  
BRANCH  13  14
HETATM   14  C   UNL     1     -10.560  14.855  66.971  1.00  0.00    -0.289 C  
BRANCH  14  15
HETATM   15  C   UNL     1     -11.464  14.820  65.743  1.00  0.00    -0.322 C  
HETATM   16  C   UNL     1     -11.249  16.025  64.857  1.00  0.00    -0.312 C  
HETATM   17  O   UNL     1     -12.047  16.003  63.763  1.00  0.00    -0.882 OA 
HETATM   18  O   UNL     1     -10.460  16.931  65.071  1.00  0.00    -0.675 OA 
ENDBRANCH  14  15
ENDBRANCH  13  14
ENDBRANCH  12  13
ENDBRANCH  11  12
ENDBRANCH  10  11
ENDBRANCH   9  10
ENDBRANCH   8   9
ENDBRANCH   7   8
ENDBRANCH   6   7
ENDBRANCH   5   6
ENDBRANCH   4   5
ENDBRANCH   3   4
ENDBRANCH   2   3
TORSDOF 13
ENDMDL
MODEL      394
REMARK 921   NORMALIZED FREE ENERGY PREDICTED BY IDOCK:   -2.51 KCAL/MOL
REMARK 922        TOTAL FREE ENERGY PREDICTED BY IDOCK:   -5.82 KCAL/MOL
REMARK 923 INTER-LIGAND FREE ENERGY PREDICTED BY IDOCK:   -4.75 KCAL/MOL
REMARK 924 INTRA-LIGAND FREE ENERGY PREDICTED BY IDOCK:   -1.07 KCAL/MOL
REMARK 927      BINDING AFFINITY PREDICTED BY RF-SCORE:    0.00 PKD
ROOT
HETATM    1  C   UNL     1     -12.414  11.028  71.084  1.00  0.00    -0.502 C  
HETATM    2  C   UNL     1     -11.758  10.289  69.930  1.00  0.00    -0.298 C  
ENDROOT
BRANCH   2   3
HETATM    3  C   UNL     1     -11.169   8.958  70.391  1.00  0.00    -0.259 C  
BRANCH   3   4
HETATM    4  C   UNL     1      -9.839   9.165  71.111  1.00  0.00    -0.371 C  
BRANCH   4   5
HETATM    5  C   UNL     1      -8.688   8.575  70.302  1.00  0.00    -0.144 C  
BRANCH   5   6
HETATM    6  C   UNL     1      -8.859   8.867  68.815  1.00  0.00    -0.137 C  
BRANCH   6   7
HETATM    7  C   UNL     1      -8.007  10.062  68.398  1.00  0.00    -0.097 C  
BRANCH   7   8
HETATM    8  C   UNL     1      -8.579  10.727  67.152  1.00  0.00    -0.128 C  
BRANCH   8   9
HETATM    9  C   UNL     1      -9.607  11.788  67.529  1.00  0.00    -0.179 C  
BRANCH   9  10
HETATM   10  C   UNL     1     -10.849  11.671  66.654  1.00  0.00    -0.327 C  
BRANCH  10  11
HETATM   11  C   UNL     1     -10.605  12.275  65.274  1.00  0.00    -0.322 C  
BRANCH  11  12
HETATM   12  C   UNL     1     -11.483  13.504  65.061  1.00  0.00    -0.334 C  
BRANCH  12  13
HETATM   13  C   UNL     1     -10.698  14.792  65.293  1.00  0.00    -0.406 C  
BRANCH  13  14
HETATM   14  C   UNL     1     -11.494  15.758  66.168  1.00  0.00     0.277 C  
BRANCH  14  15
HETATM   15  C   UNL     1     -10.578  16.770  66.850  1.00  0.00    -0.219 C  
HETATM   16  C   UNL     1     -10.371  18.000  65.998  1.00  0.00    -0.331 C  
HETATM   17  O   UNL     1      -9.560  18.904  66.596  1.00  0.00    -0.310 OA 
HETATM   18  O   UNL     1     -10.859  18.189  64.896  1.00  0.00    -0.666 OA 
ENDBRANCH  14  15
ENDBRANCH  13  14
ENDBRANCH  12  13
ENDBRANCH  11  12
ENDBRANCH  10  11
ENDBRANCH   9  10
ENDBRANCH   8   9
ENDBRANCH   7   8
ENDBRANCH   6   7
ENDBRANCH   5   6
ENDBRANCH   4   5
ENDBRANCH   3   4
ENDBRANCH   2   3
TORSDOF 13
ENDMDL
MODEL      395
REMARK 921   NORMALIZED FREE ENERGY PREDICTED BY IDOCK:   -2.50 KCAL/MOL
REMARK 922        TOTAL FREE ENERGY PREDICTED BY IDOCK:   -5.82 KCAL/MOL
REMARK 923 INTER-LIGAND FREE ENERGY PREDICTED BY IDOCK:   -4.75 KCAL/MOL
REMARK 924 INTRA-LIGAND FREE ENERGY PREDICTED BY IDOCK:   -1.06 KCAL/MOL
REMARK 927      BINDING AFFINITY PREDICTED BY RF-SCORE:    0.00 PKD
ROOT
HETATM    1  C   UNL     1      -7.733   5.133  64.958  1.00  0.00    -0.085 C  
HETATM    2  C   UNL     1      -7.821   4.675  66.404  1.00  0.00    -0.099 C  
ENDROOT
BRANCH   2   3
HETATM    3  C   UNL     1      -6.624   5.170  67.211  1.00  0.00    -0.053 C  
BRANCH   3   4
HETATM    4  C   UNL     1      -6.914   6.523  67.854  1.00  0.00    -0.079 C  
BRANCH   4   5
HETATM    5  C   UNL     1      -8.265   6.508  68.564  1.00  0.00    -0.121 C  
BRANCH   5   6
HETATM    6  C   UNL     1      -8.290   7.514  69.710  1.00  0.00    -0.134 C  
BRANCH   6   7
HETATM    7  C   UNL     1      -9.565   8.351  69.665  1.00  0.00    -0.163 C  
BRANCH   7   8
HETATM    8  C   UNL     1     -10.200   8.297  68.280  1.00  0.00    -0.246 C  
BRANCH   8   9
HETATM    9  C   UNL     1     -10.667   9.683  67.846  1.00  0.00    -0.302 C  
BRANCH   9  10
HETATM   10  C   UNL     1     -10.592  10.667  69.007  1.00  0.00    -0.249 C  
BRANCH  10  11
HETATM   11  C   UNL     1     -11.954  11.302  69.275  1.00  0.00    -0.411 C  
BRANCH  11  12
HETATM   12  C   UNL     1     -11.904  12.805  69.026  1.00  0.00    -0.344 C  
BRANCH  12  13
HETATM   13  C   UNL     1     -10.559  13.225  68.438  1.00  0.00    -0.263 C  
BRANCH  13  14
HETATM   14  C   UNL     1     -10.760  14.137  67.230  1.00  0.00    -0.279 C  
BRANCH  14  15
HETATM   15  C   UNL     1     -12.106  13.880  66.559  1.00  0.00    -0.484 C  
HETATM   16  C   UNL     1     -11.941  13.199  65.221  1.00  0.00    -0.398 C  
HETATM   17  O   UNL     1     -13.130  12.965  64.617  1.00  0.00    -0.742 OA 
HETATM   18  O   UNL     1     -10.878  12.883  64.712  1.00  0.00    -0.298 OA 
ENDBRANCH  14  15
ENDBRANCH  13  14
ENDBRANCH  12  13
ENDBRANCH  11  12
ENDBRANCH  10  11
ENDBRANCH   9  10
ENDBRANCH   8   9
ENDBRANCH   7   8
ENDBRANCH   6   7
ENDBRANCH   5   6
ENDBRANCH   4   5
ENDBRANCH   3   4
ENDBRANCH   2   3
TORSDOF 13
ENDMDL
MODEL      396
REMARK 921   NORMALIZED FREE ENERGY PREDICTED BY IDOCK:   -2.50 KCAL/MOL
REMARK 922        TOTAL FREE ENERGY PREDICTED BY IDOCK:   -5.80 KCAL/MOL
REMARK 923 INTER-LIGAND FREE ENERGY PREDICTED BY IDOCK:   -4.67 KCAL/MOL
REMARK 924 INTRA-LIGAND FREE ENERGY PREDICTED BY IDOCK:   -1.14 KCAL/MOL
REMARK 927      BINDING AFFINITY PREDICTED BY RF-SCORE:    0.00 PKD
ROOT
HETATM    1  C   UNL     1      -9.375  19.588  69.016  1.00  0.00    -0.337 C  
HETATM    2  C   UNL     1      -8.141  19.307  68.177  1.00  0.00    -0.349 C  
ENDROOT
BRANCH   2   3
HETATM    3  C   UNL     1      -8.435  19.481  66.689  1.00  0.00    -0.352 C  
BRANCH   3   4
HETATM    4  C   UNL     1      -9.903  19.827  66.455  1.00  0.00    -0.546 C  
BRANCH   4   5
HETATM    5  C   UNL     1     -10.614  18.700  65.711  1.00  0.00    -0.290 C  
BRANCH   5   6
HETATM    6  C   UNL     1     -10.424  17.368  66.427  1.00  0.00    -0.267 C  
BRANCH   6   7
HETATM    7  C   UNL     1     -10.619  16.203  65.462  1.00  0.00    -0.394 C  
BRANCH   7   8
HETATM    8  C   UNL     1      -9.689  15.047  65.813  1.00  0.00    -0.375 C  
BRANCH   8   9
HETATM    9  C   UNL     1      -8.551  15.522  66.709  1.00  0.00    -0.307 C  
BRANCH   9  10
HETATM   10  C   UNL     1      -8.598  14.818  68.060  1.00  0.00    -0.166 C  
BRANCH  10  11
HETATM   11  C   UNL     1      -7.242  14.213  68.410  1.00  0.00    -0.109 C  
BRANCH  11  12
HETATM   12  C   UNL     1      -7.354  12.701  68.574  1.00  0.00    -0.115 C  
BRANCH  12  13
HETATM   13  C   UNL     1      -7.171  11.985  67.239  1.00  0.00    -0.150 C  
BRANCH  13  14
HETATM   14  C   UNL     1      -8.484  11.353  66.782  1.00  0.00    -0.165 C  
BRANCH  14  15
HETATM   15  C   UNL     1      -8.529   9.865  67.114  1.00  0.00    -0.121 C  
HETATM   16  C   UNL     1      -9.633   9.157  66.364  1.00  0.00    -0.245 C  
HETATM   17  O   UNL     1      -9.679   7.835  66.651  1.00  0.00    -0.204 OA 
HETATM   18  O   UNL     1     -10.410   9.683  65.584  1.00  0.00    -0.173 OA 
ENDBRANCH  14  15
ENDBRANCH  13  14
ENDBRANCH  12  13
ENDBRANCH  11  12
ENDBRANCH  10  11
ENDBRANCH   9  10
ENDBRANCH   8   9
ENDBRANCH   7   8
ENDBRANCH   6   7
ENDBRANCH   5   6
ENDBRANCH   4   5
ENDBRANCH   3   4
ENDBRANCH   2   3
TORSDOF 13
ENDMDL
MODEL      397
REMARK 921   NORMALIZED FREE ENERGY PREDICTED BY IDOCK:   -2.49 KCAL/MOL
REMARK 922        TOTAL FREE ENERGY PREDICTED BY IDOCK:   -5.80 KCAL/MOL
REMARK 923 INTER-LIGAND FREE ENERGY PREDICTED BY IDOCK:   -4.20 KCAL/MOL
REMARK 924 INTRA-LIGAND FREE ENERGY PREDICTED BY IDOCK:   -1.60 KCAL/MOL
REMARK 927      BINDING AFFINITY PREDICTED BY RF-SCORE:    0.00 PKD
ROOT
HETATM    1  C   UNL     1     -10.748  14.996  68.434  1.00  0.00    -0.245 C  
HETATM    2  C   UNL     1     -11.107  14.119  67.246  1.00  0.00    -0.315 C  
ENDROOT
BRANCH   2   3
HETATM    3  C   UNL     1     -12.013  12.965  67.668  1.00  0.00    -0.344 C  
BRANCH   3   4
HETATM    4  C   UNL     1     -11.245  11.647  67.704  1.00  0.00    -0.345 C  
BRANCH   4   5
HETATM    5  C   UNL     1     -10.862  11.281  69.135  1.00  0.00    -0.269 C  
BRANCH   5   6
HETATM    6  C   UNL     1     -12.102  10.989  69.973  1.00  0.00    -0.441 C  
BRANCH   6   7
HETATM    7  C   UNL     1     -11.751  10.106  71.167  1.00  0.00    -0.453 C  
BRANCH   7   8
HETATM    8  C   UNL     1     -10.389   9.451  70.974  1.00  0.00    -0.382 C  
BRANCH   8   9
HETATM    9  C   UNL     1     -10.038   8.573  72.170  1.00  0.00    -0.393 C  
BRANCH   9  10
HETATM   10  C   UNL     1      -9.097   7.447  71.756  1.00  0.00    -0.143 C  
BRANCH  10  11
HETATM   11  C   UNL     1      -8.778   7.521  70.266  1.00  0.00    -0.145 C  
BRANCH  11  12
HETATM   12  C   UNL     1      -7.314   7.176  70.012  1.00  0.00    -0.080 C  
BRANCH  12  13
HETATM   13  C   UNL     1      -6.601   8.302  69.268  1.00  0.00    -0.039 C  
BRANCH  13  14
HETATM   14  C   UNL     1      -7.607   9.189  68.538  1.00  0.00    -0.085 C  
BRANCH  14  15
HETATM   15  C   UNL     1      -7.197  10.657  68.598  1.00  0.00    -0.090 C  
HETATM   16  C   UNL     1      -7.379  11.342  67.264  1.00  0.00    -0.130 C  
HETATM   17  O   UNL     1      -7.019  12.647  67.307  1.00  0.00    -0.154 OA 
HETATM   18  O   UNL     1      -7.797  10.814  66.246  1.00  0.00    -0.147 OA 
ENDBRANCH  14  15
ENDBRANCH  13  14
ENDBRANCH  12  13
ENDBRANCH  11  12
ENDBRANCH  10  11
ENDBRANCH   9  10
ENDBRANCH   8   9
ENDBRANCH   7   8
ENDBRANCH   6   7
ENDBRANCH   5   6
ENDBRANCH   4   5
ENDBRANCH   3   4
ENDBRANCH   2   3
TORSDOF 13
ENDMDL
MODEL      398
REMARK 921   NORMALIZED FREE ENERGY PREDICTED BY IDOCK:   -2.49 KCAL/MOL
REMARK 922        TOTAL FREE ENERGY PREDICTED BY IDOCK:   -5.79 KCAL/MOL
REMARK 923 INTER-LIGAND FREE ENERGY PREDICTED BY IDOCK:   -4.20 KCAL/MOL
REMARK 924 INTRA-LIGAND FREE ENERGY PREDICTED BY IDOCK:   -1.59 KCAL/MOL
REMARK 927      BINDING AFFINITY PREDICTED BY RF-SCORE:    0.00 PKD
ROOT
HETATM    1  C   UNL     1      -8.337   5.502  69.795  1.00  0.00    -0.105 C  
HETATM    2  C   UNL     1      -7.960   6.461  70.911  1.00  0.00    -0.112 C  
ENDROOT
BRANCH   2   3
HETATM    3  C   UNL     1      -8.923   6.341  72.090  1.00  0.00    -0.137 C  
BRANCH   3   4
HETATM    4  C   UNL     1     -10.131   5.480  71.728  1.00  0.00    -0.247 C  
BRANCH   4   5
HETATM    5  C   UNL     1     -11.364   5.918  72.513  1.00  0.00    -0.352 C  
BRANCH   5   6
HETATM    6  C   UNL     1     -11.285   7.399  72.871  1.00  0.00    -0.368 C  
BRANCH   6   7
HETATM    7  C   UNL     1     -12.082   8.237  71.876  1.00  0.00    -0.382 C  
BRANCH   7   8
HETATM    8  C   UNL     1     -11.314   9.496  71.491  1.00  0.00    -0.456 C  
BRANCH   8   9
HETATM    9  C   UNL     1     -11.226   9.633  69.975  1.00  0.00    -0.271 C  
BRANCH   9  10
HETATM   10  C   UNL     1     -10.779   8.322  69.340  1.00  0.00    -0.160 C  
BRANCH  10  11
HETATM   11  C   UNL     1      -9.737   8.567  68.253  1.00  0.00    -0.171 C  
BRANCH  11  12
HETATM   12  C   UNL     1     -10.395   9.107  66.988  1.00  0.00    -0.333 C  
BRANCH  12  13
HETATM   13  C   UNL     1      -9.824  10.470  66.605  1.00  0.00    -0.246 C  
BRANCH  13  14
HETATM   14  C   UNL     1      -8.699  10.316  65.584  1.00  0.00    -0.176 C  
BRANCH  14  15
HETATM   15  C   UNL     1      -9.086   9.342  64.475  1.00  0.00    -0.205 C  
HETATM   16  C   UNL     1      -8.098   9.377  63.332  1.00  0.00    -0.153 C  
HETATM   17  O   UNL     1      -8.433   8.515  62.343  1.00  0.00    -0.201 OA 
HETATM   18  O   UNL     1      -7.107  10.086  63.273  1.00  0.00    -0.126 OA 
ENDBRANCH  14  15
ENDBRANCH  13  14
ENDBRANCH  12  13
ENDBRANCH  11  12
ENDBRANCH  10  11
ENDBRANCH   9  10
ENDBRANCH   8   9
ENDBRANCH   7   8
ENDBRANCH   6   7
ENDBRANCH   5   6
ENDBRANCH   4   5
ENDBRANCH   3   4
ENDBRANCH   2   3
TORSDOF 13
ENDMDL
MODEL      399
REMARK 921   NORMALIZED FREE ENERGY PREDICTED BY IDOCK:   -2.47 KCAL/MOL
REMARK 922        TOTAL FREE ENERGY PREDICTED BY IDOCK:   -5.76 KCAL/MOL
REMARK 923 INTER-LIGAND FREE ENERGY PREDICTED BY IDOCK:   -4.77 KCAL/MOL
REMARK 924 INTRA-LIGAND FREE ENERGY PREDICTED BY IDOCK:   -0.99 KCAL/MOL
REMARK 927      BINDING AFFINITY PREDICTED BY RF-SCORE:    0.00 PKD
ROOT
HETATM    1  C   UNL     1      -6.774   6.929  74.000  1.00  0.00    -0.078 C  
HETATM    2  C   UNL     1      -7.606   7.811  73.085  1.00  0.00    -0.145 C  
ENDROOT
BRANCH   2   3
HETATM    3  C   UNL     1      -9.083   7.761  73.466  1.00  0.00    -0.342 C  
BRANCH   3   4
HETATM    4  C   UNL     1      -9.960   8.313  72.344  1.00  0.00    -0.379 C  
BRANCH   4   5
HETATM    5  C   UNL     1      -9.104   8.815  71.185  1.00  0.00    -0.285 C  
BRANCH   5   6
HETATM    6  C   UNL     1      -9.972   9.449  70.102  1.00  0.00    -0.269 C  
BRANCH   6   7
HETATM    7  C   UNL     1      -9.140  10.371  69.216  1.00  0.00    -0.188 C  
BRANCH   7   8
HETATM    8  C   UNL     1      -9.902  10.736  67.947  1.00  0.00    -0.185 C  
BRANCH   8   9
HETATM    9  C   UNL     1     -11.403  10.782  68.213  1.00  0.00    -0.376 C  
BRANCH   9  10
HETATM   10  C   UNL     1     -11.903  12.222  68.234  1.00  0.00    -0.367 C  
BRANCH  10  11
HETATM   11  C   UNL     1     -11.558  12.940  66.933  1.00  0.00    -0.425 C  
BRANCH  11  12
HETATM   12  C   UNL     1     -11.767  14.444  67.076  1.00  0.00    -0.420 C  
BRANCH  12  13
HETATM   13  C   UNL     1     -10.581  15.223  66.517  1.00  0.00    -0.304 C  
BRANCH  13  14
HETATM   14  C   UNL     1      -9.287  14.428  66.680  1.00  0.00    -0.297 C  
BRANCH  14  15
HETATM   15  C   UNL     1      -8.818  14.424  68.132  1.00  0.00    -0.180 C  
HETATM   16  C   UNL     1      -7.322  14.244  68.234  1.00  0.00    -0.124 C  
HETATM   17  O   UNL     1      -6.895  14.241  69.519  1.00  0.00    -0.131 OA 
HETATM   18  O   UNL     1      -6.557  14.113  67.293  1.00  0.00    -0.274 OA 
ENDBRANCH  14  15
ENDBRANCH  13  14
ENDBRANCH  12  13
ENDBRANCH  11  12
ENDBRANCH  10  11
ENDBRANCH   9  10
ENDBRANCH   8   9
ENDBRANCH   7   8
ENDBRANCH   6   7
ENDBRANCH   5   6
ENDBRANCH   4   5
ENDBRANCH   3   4
ENDBRANCH   2   3
TORSDOF 13
ENDMDL
MODEL      400
REMARK 921   NORMALIZED FREE ENERGY PREDICTED BY IDOCK:   -2.47 KCAL/MOL
REMARK 922        TOTAL FREE ENERGY PREDICTED BY IDOCK:   -5.76 KCAL/MOL
REMARK 923 INTER-LIGAND FREE ENERGY PREDICTED BY IDOCK:   -5.04 KCAL/MOL
REMARK 924 INTRA-LIGAND FREE ENERGY PREDICTED BY IDOCK:   -0.71 KCAL/MOL
REMARK 927      BINDING AFFINITY PREDICTED BY RF-SCORE:    0.00 PKD
ROOT
HETATM    1  C   UNL     1     -13.648  12.640  72.415  1.00  0.00    -0.435 C  
HETATM    2  C   UNL     1     -13.760  14.111  72.052  1.00  0.00    -0.554 C  
ENDROOT
BRANCH   2   3
HETATM    3  C   UNL     1     -12.634  14.923  72.686  1.00  0.00    -0.456 C  
BRANCH   3   4
HETATM    4  C   UNL     1     -11.650  15.418  71.630  1.00  0.00    -0.492 C  
BRANCH   4   5
HETATM    5  C   UNL     1     -11.890  14.719  70.295  1.00  0.00    -0.357 C  
BRANCH   5   6
HETATM    6  C   UNL     1     -10.635  14.751  69.430  1.00  0.00    -0.229 C  
BRANCH   6   7
HETATM    7  C   UNL     1     -10.390  13.392  68.783  1.00  0.00    -0.164 C  
BRANCH   7   8
HETATM    8  C   UNL     1     -11.705  12.753  68.351  1.00  0.00    -0.380 C  
BRANCH   8   9
HETATM    9  C   UNL     1     -11.722  11.267  68.691  1.00  0.00    -0.391 C  
BRANCH   9  10
HETATM   10  C   UNL     1     -10.396  10.613  68.320  1.00  0.00    -0.201 C  
BRANCH  10  11
HETATM   11  C   UNL     1     -10.610   9.446  67.361  1.00  0.00    -0.326 C  
BRANCH  11  12
HETATM   12  C   UNL     1     -10.525   8.117  68.104  1.00  0.00    -0.225 C  
BRANCH  12  13
HETATM   13  C   UNL     1      -9.355   7.276  67.601  1.00  0.00    -0.139 C  
BRANCH  13  14
HETATM   14  C   UNL     1      -9.380   5.885  68.229  1.00  0.00    -0.118 C  
BRANCH  14  15
HETATM   15  C   UNL     1     -10.087   4.880  67.323  1.00  0.00    -0.212 C  
HETATM   16  C   UNL     1      -9.153   4.321  66.275  1.00  0.00    -0.129 C  
HETATM   17  O   UNL     1      -9.770   3.427  65.466  1.00  0.00    -0.133 OA 
HETATM   18  O   UNL     1      -7.976   4.617  66.143  1.00  0.00    -0.101 OA 
ENDBRANCH  14  15
ENDBRANCH  13  14
ENDBRANCH  12  13
ENDBRANCH  11  12
ENDBRANCH  10  11
ENDBRANCH   9  10
ENDBRANCH   8   9
ENDBRANCH   7   8
ENDBRANCH   6   7
ENDBRANCH   5   6
ENDBRANCH   4   5
ENDBRANCH   3   4
ENDBRANCH   2   3
TORSDOF 13
ENDMDL
MODEL      401
REMARK 921   NORMALIZED FREE ENERGY PREDICTED BY IDOCK:   -2.47 KCAL/MOL
REMARK 922        TOTAL FREE ENERGY PREDICTED BY IDOCK:   -5.75 KCAL/MOL
REMARK 923 INTER-LIGAND FREE ENERGY PREDICTED BY IDOCK:   -3.87 KCAL/MOL
REMARK 924 INTRA-LIGAND FREE ENERGY PREDICTED BY IDOCK:   -1.88 KCAL/MOL
REMARK 927      BINDING AFFINITY PREDICTED BY RF-SCORE:    0.00 PKD
ROOT
HETATM    1  C   UNL     1      -9.099   5.328  72.006  1.00  0.00    -0.151 C  
HETATM    2  C   UNL     1      -9.938   4.719  70.895  1.00  0.00    -0.283 C  
ENDROOT
BRANCH   2   3
HETATM    3  C   UNL     1      -9.151   4.646  69.588  1.00  0.00    -0.163 C  
BRANCH   3   4
HETATM    4  C   UNL     1      -9.340   3.293  68.908  1.00  0.00    -0.232 C  
BRANCH   4   5
HETATM    5  C   UNL     1      -9.631   3.470  67.420  1.00  0.00    -0.172 C  
BRANCH   5   6
HETATM    6  C   UNL     1      -9.994   4.917  67.104  1.00  0.00    -0.229 C  
BRANCH   6   7
HETATM    7  C   UNL     1      -9.162   5.441  65.938  1.00  0.00    -0.165 C  
BRANCH   7   8
HETATM    8  C   UNL     1      -7.838   6.013  66.431  1.00  0.00    -0.104 C  
BRANCH   8   9
HETATM    9  C   UNL     1      -7.511   7.316  65.709  1.00  0.00    -0.084 C  
BRANCH   9  10
HETATM   10  C   UNL     1      -7.848   8.518  66.583  1.00  0.00    -0.090 C  
BRANCH  10  11
HETATM   11  C   UNL     1      -9.192   9.122  66.188  1.00  0.00    -0.259 C  
BRANCH  11  12
HETATM   12  C   UNL     1     -10.077   9.315  67.414  1.00  0.00    -0.280 C  
BRANCH  12  13
HETATM   13  C   UNL     1      -9.503   8.593  68.630  1.00  0.00    -0.144 C  
BRANCH  13  14
HETATM   14  C   UNL     1     -10.610   7.890  69.413  1.00  0.00    -0.209 C  
BRANCH  14  15
HETATM   15  C   UNL     1     -11.223   8.816  70.459  1.00  0.00    -0.278 C  
HETATM   16  C   UNL     1     -12.236   8.095  71.317  1.00  0.00    -0.279 C  
HETATM   17  O   UNL     1     -12.786   8.908  72.250  1.00  0.00    -0.376 OA 
HETATM   18  O   UNL     1     -12.548   6.920  71.210  1.00  0.00    -0.375 OA 
ENDBRANCH  14  15
ENDBRANCH  13  14
ENDBRANCH  12  13
ENDBRANCH  11  12
ENDBRANCH  10  11
ENDBRANCH   9  10
ENDBRANCH   8   9
ENDBRANCH   7   8
ENDBRANCH   6   7
ENDBRANCH   5   6
ENDBRANCH   4   5
ENDBRANCH   3   4
ENDBRANCH   2   3
TORSDOF 13
ENDMDL
MODEL      402
REMARK 921   NORMALIZED FREE ENERGY PREDICTED BY IDOCK:   -2.46 KCAL/MOL
REMARK 922        TOTAL FREE ENERGY PREDICTED BY IDOCK:   -5.75 KCAL/MOL
REMARK 923 INTER-LIGAND FREE ENERGY PREDICTED BY IDOCK:   -4.48 KCAL/MOL
REMARK 924 INTRA-LIGAND FREE ENERGY PREDICTED BY IDOCK:   -1.26 KCAL/MOL
REMARK 927      BINDING AFFINITY PREDICTED BY RF-SCORE:    0.00 PKD
ROOT
HETATM    1  C   UNL     1      -7.412  14.304  67.455  1.00  0.00    -0.201 C  
HETATM    2  C   UNL     1      -7.525  15.809  67.632  1.00  0.00    -0.180 C  
ENDROOT
BRANCH   2   3
HETATM    3  C   UNL     1      -8.181  16.458  66.416  1.00  0.00    -0.366 C  
BRANCH   3   4
HETATM    4  C   UNL     1      -9.371  15.636  65.929  1.00  0.00    -0.357 C  
BRANCH   4   5
HETATM    5  C   UNL     1     -10.634  15.996  66.707  1.00  0.00    -0.297 C  
BRANCH   5   6
HETATM    6  C   UNL     1     -11.330  14.742  67.225  1.00  0.00    -0.366 C  
BRANCH   6   7
HETATM    7  C   UNL     1     -12.107  14.054  66.107  1.00  0.00    -0.471 C  
BRANCH   7   8
HETATM    8  C   UNL     1     -11.963  12.539  66.199  1.00  0.00    -0.432 C  
BRANCH   8   9
HETATM    9  C   UNL     1     -11.183  11.997  65.006  1.00  0.00    -0.374 C  
BRANCH   9  10
HETATM   10  C   UNL     1     -10.183  10.937  65.452  1.00  0.00    -0.339 C  
BRANCH  10  11
HETATM   11  C   UNL     1     -10.171  10.800  66.971  1.00  0.00    -0.261 C  
BRANCH  11  12
HETATM   12  C   UNL     1      -8.810  10.313  67.457  1.00  0.00    -0.128 C  
BRANCH  12  13
HETATM   13  C   UNL     1      -8.816  10.066  68.963  1.00  0.00    -0.159 C  
BRANCH  13  14
HETATM   14  C   UNL     1      -8.229   8.694  69.287  1.00  0.00    -0.113 C  
BRANCH  14  15
HETATM   15  C   UNL     1      -9.106   7.573  68.738  1.00  0.00    -0.135 C  
HETATM   16  C   UNL     1      -8.287   6.517  68.033  1.00  0.00    -0.116 C  
HETATM   17  O   UNL     1      -9.056   5.516  67.543  1.00  0.00    -0.109 OA 
HETATM   18  O   UNL     1      -7.074   6.532  67.901  1.00  0.00    -0.080 OA 
ENDBRANCH  14  15
ENDBRANCH  13  14
ENDBRANCH  12  13
ENDBRANCH  11  12
ENDBRANCH  10  11
ENDBRANCH   9  10
ENDBRANCH   8   9
ENDBRANCH   7   8
ENDBRANCH   6   7
ENDBRANCH   5   6
ENDBRANCH   4   5
ENDBRANCH   3   4
ENDBRANCH   2   3
TORSDOF 13
ENDMDL
MODEL      403
REMARK 921   NORMALIZED FREE ENERGY PREDICTED BY IDOCK:   -2.46 KCAL/MOL
REMARK 922        TOTAL FREE ENERGY PREDICTED BY IDOCK:   -5.74 KCAL/MOL
REMARK 923 INTER-LIGAND FREE ENERGY PREDICTED BY IDOCK:   -4.87 KCAL/MOL
REMARK 924 INTRA-LIGAND FREE ENERGY PREDICTED BY IDOCK:   -0.87 KCAL/MOL
REMARK 927      BINDING AFFINITY PREDICTED BY RF-SCORE:    0.00 PKD
ROOT
HETATM    1  C   UNL     1      -9.407  19.906  69.254  1.00  0.00     0.037 C  
HETATM    2  C   UNL     1      -8.159  19.844  68.390  1.00  0.00    -0.239 C  
ENDROOT
BRANCH   2   3
HETATM    3  C   UNL     1      -8.466  20.239  66.948  1.00  0.00    -0.354 C  
BRANCH   3   4
HETATM    4  C   UNL     1      -9.971  20.317  66.708  1.00  0.00    -0.587 C  
BRANCH   4   5
HETATM    5  C   UNL     1     -10.443  19.157  65.835  1.00  0.00    -0.500 C  
BRANCH   5   6
HETATM    6  C   UNL     1     -10.470  17.855  66.627  1.00  0.00    -0.318 C  
BRANCH   6   7
HETATM    7  C   UNL     1     -10.467  16.652  65.689  1.00  0.00    -0.313 C  
BRANCH   7   8
HETATM    8  C   UNL     1      -9.337  15.692  66.042  1.00  0.00    -0.384 C  
BRANCH   8   9
HETATM    9  C   UNL     1      -8.130  16.453  66.580  1.00  0.00    -0.345 C  
BRANCH   9  10
HETATM   10  C   UNL     1      -7.546  15.747  67.798  1.00  0.00    -0.157 C  
BRANCH  10  11
HETATM   11  C   UNL     1      -7.106  14.328  67.449  1.00  0.00    -0.109 C  
BRANCH  11  12
HETATM   12  C   UNL     1      -7.605  13.338  68.497  1.00  0.00    -0.128 C  
BRANCH  12  13
HETATM   13  C   UNL     1      -9.079  13.005  68.286  1.00  0.00    -0.179 C  
BRANCH  13  14
HETATM   14  C   UNL     1      -9.246  11.551  67.848  1.00  0.00    -0.168 C  
BRANCH  14  15
HETATM   15  C   UNL     1      -9.988  10.736  68.903  1.00  0.00    -0.213 C  
HETATM   16  C   UNL     1     -11.417  11.201  69.064  1.00  0.00    -0.296 C  
HETATM   17  O   UNL     1     -12.085  10.483  69.997  1.00  0.00    -0.287 OA 
HETATM   18  O   UNL     1     -11.940  12.113  68.444  1.00  0.00    -0.331 OA 
ENDBRANCH  14  15
ENDBRANCH  13  14
ENDBRANCH  12  13
ENDBRANCH  11  12
ENDBRANCH  10  11
ENDBRANCH   9  10
ENDBRANCH   8   9
ENDBRANCH   7   8
ENDBRANCH   6   7
ENDBRANCH   5   6
ENDBRANCH   4   5
ENDBRANCH   3   4
ENDBRANCH   2   3
TORSDOF 13
ENDMDL
MODEL      404
REMARK 921   NORMALIZED FREE ENERGY PREDICTED BY IDOCK:   -2.45 KCAL/MOL
REMARK 922        TOTAL FREE ENERGY PREDICTED BY IDOCK:   -5.72 KCAL/MOL
REMARK 923 INTER-LIGAND FREE ENERGY PREDICTED BY IDOCK:   -4.62 KCAL/MOL
REMARK 924 INTRA-LIGAND FREE ENERGY PREDICTED BY IDOCK:   -1.10 KCAL/MOL
REMARK 927      BINDING AFFINITY PREDICTED BY RF-SCORE:    0.00 PKD
ROOT
HETATM    1  C   UNL     1      -5.649  13.982  71.446  1.00  0.00    -0.232 C  
HETATM    2  C   UNL     1      -5.640  14.722  70.119  1.00  0.00    -0.120 C  
ENDROOT
BRANCH   2   3
HETATM    3  C   UNL     1      -6.935  14.485  69.348  1.00  0.00    -0.151 C  
BRANCH   3   4
HETATM    4  C   UNL     1      -6.702  14.566  67.842  1.00  0.00    -0.176 C  
BRANCH   4   5
HETATM    5  C   UNL     1      -7.543  15.677  67.220  1.00  0.00    -0.247 C  
BRANCH   5   6
HETATM    6  C   UNL     1      -9.031  15.406  67.411  1.00  0.00    -0.202 C  
BRANCH   6   7
HETATM    7  C   UNL     1      -9.413  14.053  66.819  1.00  0.00    -0.292 C  
BRANCH   7   8
HETATM    8  C   UNL     1     -10.669  13.505  67.486  1.00  0.00    -0.266 C  
BRANCH   8   9
HETATM    9  C   UNL     1     -11.277  14.540  68.427  1.00  0.00    -0.290 C  
BRANCH   9  10
HETATM   10  C   UNL     1     -12.027  13.859  69.566  1.00  0.00    -0.396 C  
BRANCH  10  11
HETATM   11  C   UNL     1     -11.640  12.387  69.673  1.00  0.00    -0.330 C  
BRANCH  11  12
HETATM   12  C   UNL     1     -12.465  11.691  70.751  1.00  0.00    -0.425 C  
BRANCH  12  13
HETATM   13  C   UNL     1     -11.741  10.463  71.295  1.00  0.00    -0.320 C  
BRANCH  13  14
HETATM   14  C   UNL     1     -10.883   9.817  70.209  1.00  0.00    -0.356 C  
BRANCH  14  15
HETATM   15  C   UNL     1     -10.287   8.497  70.686  1.00  0.00    -0.232 C  
HETATM   16  C   UNL     1      -8.811   8.626  70.984  1.00  0.00    -0.191 C  
HETATM   17  O   UNL     1      -8.272   7.459  71.410  1.00  0.00    -0.103 OA 
HETATM   18  O   UNL     1      -8.150   9.644  70.865  1.00  0.00    -0.293 OA 
ENDBRANCH  14  15
ENDBRANCH  13  14
ENDBRANCH  12  13
ENDBRANCH  11  12
ENDBRANCH  10  11
ENDBRANCH   9  10
ENDBRANCH   8   9
ENDBRANCH   7   8
ENDBRANCH   6   7
ENDBRANCH   5   6
ENDBRANCH   4   5
ENDBRANCH   3   4
ENDBRANCH   2   3
TORSDOF 13
ENDMDL
MODEL      405
REMARK 921   NORMALIZED FREE ENERGY PREDICTED BY IDOCK:   -2.44 KCAL/MOL
REMARK 922        TOTAL FREE ENERGY PREDICTED BY IDOCK:   -5.69 KCAL/MOL
REMARK 923 INTER-LIGAND FREE ENERGY PREDICTED BY IDOCK:   -4.56 KCAL/MOL
REMARK 924 INTRA-LIGAND FREE ENERGY PREDICTED BY IDOCK:   -1.14 KCAL/MOL
REMARK 927      BINDING AFFINITY PREDICTED BY RF-SCORE:    0.00 PKD
ROOT
HETATM    1  C   UNL     1      -6.409   5.207  69.262  1.00  0.00    -0.034 C  
HETATM    2  C   UNL     1      -7.792   5.540  69.795  1.00  0.00    -0.082 C  
ENDROOT
BRANCH   2   3
HETATM    3  C   UNL     1      -8.864   5.289  68.738  1.00  0.00    -0.104 C  
BRANCH   3   4
HETATM    4  C   UNL     1      -8.670   6.200  67.529  1.00  0.00    -0.104 C  
BRANCH   4   5
HETATM    5  C   UNL     1      -9.971   6.347  66.746  1.00  0.00    -0.225 C  
BRANCH   5   6
HETATM    6  C   UNL     1     -10.498   7.776  66.827  1.00  0.00    -0.318 C  
BRANCH   6   7
HETATM    7  C   UNL     1      -9.602   8.631  67.718  1.00  0.00    -0.178 C  
BRANCH   7   8
HETATM    8  C   UNL     1      -8.931   9.736  66.911  1.00  0.00    -0.154 C  
BRANCH   8   9
HETATM    9  C   UNL     1      -9.816  10.168  65.746  1.00  0.00    -0.331 C  
BRANCH   9  10
HETATM   10  C   UNL     1      -9.042  11.060  64.782  1.00  0.00    -0.154 C  
BRANCH  10  11
HETATM   11  C   UNL     1      -9.979  11.721  63.776  1.00  0.00    -0.379 C  
BRANCH  11  12
HETATM   12  C   UNL     1     -11.434  11.396  64.101  1.00  0.00    -0.197 C  
BRANCH  12  13
HETATM   13  C   UNL     1     -12.365  12.517  63.651  1.00  0.00    -0.618 C  
BRANCH  13  14
HETATM   14  C   UNL     1     -12.732  13.419  64.827  1.00  0.00    -0.310 C  
BRANCH  14  15
HETATM   15  C   UNL     1     -12.017  14.765  64.737  1.00  0.00    -0.408 C  
HETATM   16  C   UNL     1     -10.948  14.901  65.796  1.00  0.00    -0.345 C  
HETATM   17  O   UNL     1     -10.307  16.092  65.723  1.00  0.00    -0.337 OA 
HETATM   18  O   UNL     1     -10.668  14.060  66.634  1.00  0.00    -0.279 OA 
ENDBRANCH  14  15
ENDBRANCH  13  14
ENDBRANCH  12  13
ENDBRANCH  11  12
ENDBRANCH  10  11
ENDBRANCH   9  10
ENDBRANCH   8   9
ENDBRANCH   7   8
ENDBRANCH   6   7
ENDBRANCH   5   6
ENDBRANCH   4   5
ENDBRANCH   3   4
ENDBRANCH   2   3
TORSDOF 13
ENDMDL
MODEL      406
REMARK 921   NORMALIZED FREE ENERGY PREDICTED BY IDOCK:   -2.43 KCAL/MOL
REMARK 922        TOTAL FREE ENERGY PREDICTED BY IDOCK:   -5.69 KCAL/MOL
REMARK 923 INTER-LIGAND FREE ENERGY PREDICTED BY IDOCK:   -5.04 KCAL/MOL
REMARK 924 INTRA-LIGAND FREE ENERGY PREDICTED BY IDOCK:   -0.64 KCAL/MOL
REMARK 927      BINDING AFFINITY PREDICTED BY RF-SCORE:    0.00 PKD
ROOT
HETATM    1  C   UNL     1      -8.759   5.849  65.891  1.00  0.00    -0.152 C  
HETATM    2  C   UNL     1      -9.641   5.920  67.126  1.00  0.00    -0.136 C  
ENDROOT
BRANCH   2   3
HETATM    3  C   UNL     1      -8.802   5.968  68.400  1.00  0.00    -0.112 C  
BRANCH   3   4
HETATM    4  C   UNL     1      -9.457   6.852  69.457  1.00  0.00    -0.146 C  
BRANCH   4   5
HETATM    5  C   UNL     1     -10.205   8.013  68.806  1.00  0.00    -0.220 C  
BRANCH   5   6
HETATM    6  C   UNL     1     -10.547   9.086  69.835  1.00  0.00    -0.240 C  
BRANCH   6   7
HETATM    7  C   UNL     1     -10.285  10.478  69.270  1.00  0.00    -0.245 C  
BRANCH   7   8
HETATM    8  C   UNL     1     -11.503  11.376  69.454  1.00  0.00    -0.378 C  
BRANCH   8   9
HETATM    9  C   UNL     1     -11.728  12.240  68.218  1.00  0.00    -0.392 C  
BRANCH   9  10
HETATM   10  C   UNL     1     -11.105  13.619  68.401  1.00  0.00    -0.289 C  
BRANCH  10  11
HETATM   11  C   UNL     1     -11.649  14.303  69.651  1.00  0.00    -0.351 C  
BRANCH  11  12
HETATM   12  C   UNL     1     -11.890  15.786  69.391  1.00  0.00    -0.361 C  
BRANCH  12  13
HETATM   13  C   UNL     1     -11.376  16.197  68.014  1.00  0.00    -0.234 C  
BRANCH  13  14
HETATM   14  C   UNL     1     -10.072  16.982  68.137  1.00  0.00    -0.308 C  
BRANCH  14  15
HETATM   15  C   UNL     1      -9.771  17.762  66.860  1.00  0.00    -0.300 C  
HETATM   16  C   UNL     1     -10.368  19.149  66.900  1.00  0.00    -0.416 C  
HETATM   17  O   UNL     1     -10.106  19.850  65.771  1.00  0.00    -0.431 OA 
HETATM   18  O   UNL     1     -11.016  19.617  67.822  1.00  0.00    -0.332 OA 
ENDBRANCH  14  15
ENDBRANCH  13  14
ENDBRANCH  12  13
ENDBRANCH  11  12
ENDBRANCH  10  11
ENDBRANCH   9  10
ENDBRANCH   8   9
ENDBRANCH   7   8
ENDBRANCH   6   7
ENDBRANCH   5   6
ENDBRANCH   4   5
ENDBRANCH   3   4
ENDBRANCH   2   3
TORSDOF 13
ENDMDL
MODEL      407
REMARK 921   NORMALIZED FREE ENERGY PREDICTED BY IDOCK:   -2.43 KCAL/MOL
REMARK 922        TOTAL FREE ENERGY PREDICTED BY IDOCK:   -5.68 KCAL/MOL
REMARK 923 INTER-LIGAND FREE ENERGY PREDICTED BY IDOCK:   -4.35 KCAL/MOL
REMARK 924 INTRA-LIGAND FREE ENERGY PREDICTED BY IDOCK:   -1.33 KCAL/MOL
REMARK 927      BINDING AFFINITY PREDICTED BY RF-SCORE:    0.00 PKD
ROOT
HETATM    1  C   UNL     1      -7.917   7.711  64.690  1.00  0.00    -0.136 C  
HETATM    2  C   UNL     1      -8.611   7.267  65.966  1.00  0.00    -0.160 C  
ENDROOT
BRANCH   2   3
HETATM    3  C   UNL     1      -9.880   8.079  66.215  1.00  0.00    -0.162 C  
BRANCH   3   4
HETATM    4  C   UNL     1     -10.396   7.871  67.636  1.00  0.00    -0.307 C  
BRANCH   4   5
HETATM    5  C   UNL     1     -10.328   9.171  68.434  1.00  0.00    -0.242 C  
BRANCH   5   6
HETATM    6  C   UNL     1     -11.034  10.302  67.693  1.00  0.00    -0.356 C  
BRANCH   6   7
HETATM    7  C   UNL     1     -10.409  11.649  68.043  1.00  0.00    -0.208 C  
BRANCH   7   8
HETATM    8  C   UNL     1      -8.972  11.472  68.519  1.00  0.00    -0.146 C  
BRANCH   8   9
HETATM    9  C   UNL     1      -8.005  12.217  67.605  1.00  0.00    -0.157 C  
BRANCH   9  10
HETATM   10  C   UNL     1      -8.499  13.633  67.335  1.00  0.00    -0.206 C  
BRANCH  10  11
HETATM   11  C   UNL     1      -8.108  14.575  68.469  1.00  0.00    -0.148 C  
BRANCH  11  12
HETATM   12  C   UNL     1      -9.274  15.485  68.839  1.00  0.00    -0.218 C  
BRANCH  12  13
HETATM   13  C   UNL     1     -10.612  14.773  68.656  1.00  0.00    -0.255 C  
BRANCH  13  14
HETATM   14  C   UNL     1     -11.531  15.580  67.742  1.00  0.00    -0.247 C  
BRANCH  14  15
HETATM   15  C   UNL     1     -12.113  14.710  66.632  1.00  0.00    -0.229 C  
HETATM   16  C   UNL     1     -11.413  14.944  65.313  1.00  0.00    -0.336 C  
HETATM   17  O   UNL     1     -11.921  14.174  64.322  1.00  0.00    -0.443 OA 
HETATM   18  O   UNL     1     -10.495  15.727  65.127  1.00  0.00    -0.400 OA 
ENDBRANCH  14  15
ENDBRANCH  13  14
ENDBRANCH  12  13
ENDBRANCH  11  12
ENDBRANCH  10  11
ENDBRANCH   9  10
ENDBRANCH   8   9
ENDBRANCH   7   8
ENDBRANCH   6   7
ENDBRANCH   5   6
ENDBRANCH   4   5
ENDBRANCH   3   4
ENDBRANCH   2   3
TORSDOF 13
ENDMDL
MODEL      408
REMARK 921   NORMALIZED FREE ENERGY PREDICTED BY IDOCK:   -2.43 KCAL/MOL
REMARK 922        TOTAL FREE ENERGY PREDICTED BY IDOCK:   -5.68 KCAL/MOL
REMARK 923 INTER-LIGAND FREE ENERGY PREDICTED BY IDOCK:   -4.91 KCAL/MOL
REMARK 924 INTRA-LIGAND FREE ENERGY PREDICTED BY IDOCK:   -0.77 KCAL/MOL
REMARK 927      BINDING AFFINITY PREDICTED BY RF-SCORE:    0.00 PKD
ROOT
HETATM    1  C   UNL     1     -14.398   7.304  71.467  1.00  0.00    -0.558 C  
HETATM    2  C   UNL     1     -14.265   8.609  72.232  1.00  0.00    -0.497 C  
ENDROOT
BRANCH   2   3
HETATM    3  C   UNL     1     -12.944   9.304  71.911  1.00  0.00    -0.489 C  
BRANCH   3   4
HETATM    4  C   UNL     1     -13.079  10.820  72.017  1.00  0.00    -0.476 C  
BRANCH   4   5
HETATM    5  C   UNL     1     -12.259  11.515  70.933  1.00  0.00    -0.425 C  
BRANCH   5   6
HETATM    6  C   UNL     1     -11.405  10.510  70.167  1.00  0.00    -0.400 C  
BRANCH   6   7
HETATM    7  C   UNL     1     -11.483  10.770  68.666  1.00  0.00    -0.365 C  
BRANCH   7   8
HETATM    8  C   UNL     1     -10.963   9.571  67.882  1.00  0.00    -0.172 C  
BRANCH   8   9
HETATM    9  C   UNL     1      -9.585   9.865  67.297  1.00  0.00    -0.195 C  
BRANCH   9  10
HETATM   10  C   UNL     1      -9.266   8.904  66.158  1.00  0.00    -0.273 C  
BRANCH  10  11
HETATM   11  C   UNL     1      -7.949   8.176  66.409  1.00  0.00    -0.104 C  
BRANCH  11  12
HETATM   12  C   UNL     1      -8.037   6.727  65.942  1.00  0.00    -0.123 C  
BRANCH  12  13
HETATM   13  C   UNL     1      -7.921   5.759  67.116  1.00  0.00    -0.102 C  
BRANCH  13  14
HETATM   14  C   UNL     1      -9.186   4.915  67.246  1.00  0.00    -0.133 C  
BRANCH  14  15
HETATM   15  C   UNL     1      -8.946   3.482  66.780  1.00  0.00    -0.162 C  
HETATM   16  C   UNL     1      -9.417   3.270  65.360  1.00  0.00    -0.119 C  
HETATM   17  O   UNL     1      -9.207   2.001  64.937  1.00  0.00    -0.132 OA 
HETATM   18  O   UNL     1      -9.931   4.118  64.649  1.00  0.00    -0.182 OA 
ENDBRANCH  14  15
ENDBRANCH  13  14
ENDBRANCH  12  13
ENDBRANCH  11  12
ENDBRANCH  10  11
ENDBRANCH   9  10
ENDBRANCH   8   9
ENDBRANCH   7   8
ENDBRANCH   6   7
ENDBRANCH   5   6
ENDBRANCH   4   5
ENDBRANCH   3   4
ENDBRANCH   2   3
TORSDOF 13
ENDMDL
MODEL      409
REMARK 921   NORMALIZED FREE ENERGY PREDICTED BY IDOCK:   -2.42 KCAL/MOL
REMARK 922        TOTAL FREE ENERGY PREDICTED BY IDOCK:   -5.67 KCAL/MOL
REMARK 923 INTER-LIGAND FREE ENERGY PREDICTED BY IDOCK:   -4.27 KCAL/MOL
REMARK 924 INTRA-LIGAND FREE ENERGY PREDICTED BY IDOCK:   -1.40 KCAL/MOL
REMARK 927      BINDING AFFINITY PREDICTED BY RF-SCORE:    0.00 PKD
ROOT
HETATM    1  C   UNL     1     -14.411   7.298  71.732  1.00  0.00    -0.560 C  
HETATM    2  C   UNL     1     -14.350   8.726  72.247  1.00  0.00    -0.468 C  
ENDROOT
BRANCH   2   3
HETATM    3  C   UNL     1     -12.923   9.266  72.206  1.00  0.00    -0.488 C  
BRANCH   3   4
HETATM    4  C   UNL     1     -12.891  10.696  71.676  1.00  0.00    -0.570 C  
BRANCH   4   5
HETATM    5  C   UNL     1     -11.822  10.852  70.597  1.00  0.00    -0.453 C  
BRANCH   5   6
HETATM    6  C   UNL     1     -10.897   9.640  70.568  1.00  0.00    -0.371 C  
BRANCH   6   7
HETATM    7  C   UNL     1     -10.990   8.922  69.225  1.00  0.00    -0.026 C  
BRANCH   7   8
HETATM    8  C   UNL     1     -10.868   7.414  69.407  1.00  0.00    -0.184 C  
BRANCH   8   9
HETATM    9  C   UNL     1      -9.918   6.820  68.372  1.00  0.00    -0.153 C  
BRANCH   9  10
HETATM   10  C   UNL     1      -8.533   7.446  68.488  1.00  0.00    -0.125 C  
BRANCH  10  11
HETATM   11  C   UNL     1      -7.944   7.730  67.109  1.00  0.00    -0.117 C  
BRANCH  11  12
HETATM   12  C   UNL     1      -6.674   8.566  67.228  1.00  0.00    -0.063 C  
BRANCH  12  13
HETATM   13  C   UNL     1      -6.858   9.943  66.595  1.00  0.00    -0.084 C  
BRANCH  13  14
HETATM   14  C   UNL     1      -7.298  10.964  67.642  1.00  0.00    -0.094 C  
BRANCH  14  15
HETATM   15  C   UNL     1      -8.769  11.331  67.473  1.00  0.00    -0.138 C  
HETATM   16  C   UNL     1      -8.937  12.747  66.973  1.00  0.00    -0.221 C  
HETATM   17  O   UNL     1     -10.240  13.083  66.819  1.00  0.00    -0.240 OA 
HETATM   18  O   UNL     1      -8.029  13.526  66.729  1.00  0.00     0.085 OA 
ENDBRANCH  14  15
ENDBRANCH  13  14
ENDBRANCH  12  13
ENDBRANCH  11  12
ENDBRANCH  10  11
ENDBRANCH   9  10
ENDBRANCH   8   9
ENDBRANCH   7   8
ENDBRANCH   6   7
ENDBRANCH   5   6
ENDBRANCH   4   5
ENDBRANCH   3   4
ENDBRANCH   2   3
TORSDOF 13
ENDMDL
MODEL      410
REMARK 921   NORMALIZED FREE ENERGY PREDICTED BY IDOCK:   -2.42 KCAL/MOL
REMARK 922        TOTAL FREE ENERGY PREDICTED BY IDOCK:   -5.66 KCAL/MOL
REMARK 923 INTER-LIGAND FREE ENERGY PREDICTED BY IDOCK:   -4.77 KCAL/MOL
REMARK 924 INTRA-LIGAND FREE ENERGY PREDICTED BY IDOCK:   -0.89 KCAL/MOL
REMARK 927      BINDING AFFINITY PREDICTED BY RF-SCORE:    0.00 PKD
ROOT
HETATM    1  C   UNL     1      -6.642   4.615  73.042  1.00  0.00    -0.055 C  
HETATM    2  C   UNL     1      -7.535   4.461  74.262  1.00  0.00    -0.077 C  
ENDROOT
BRANCH   2   3
HETATM    3  C   UNL     1      -8.963   4.907  73.958  1.00  0.00    -0.113 C  
BRANCH   3   4
HETATM    4  C   UNL     1      -9.192   6.354  74.388  1.00  0.00    -0.204 C  
BRANCH   4   5
HETATM    5  C   UNL     1     -10.457   6.917  73.746  1.00  0.00    -0.390 C  
BRANCH   5   6
HETATM    6  C   UNL     1     -10.786   6.180  72.453  1.00  0.00    -0.281 C  
BRANCH   6   7
HETATM    7  C   UNL     1     -10.795   7.143  71.270  1.00  0.00    -0.254 C  
BRANCH   7   8
HETATM    8  C   UNL     1     -11.634   8.377  71.582  1.00  0.00    -0.348 C  
BRANCH   8   9
HETATM    9  C   UNL     1     -10.885   9.649  71.199  1.00  0.00    -0.404 C  
BRANCH   9  10
HETATM   10  C   UNL     1     -11.325  10.141  69.825  1.00  0.00    -0.312 C  
BRANCH  10  11
HETATM   11  C   UNL     1     -11.584  11.644  69.838  1.00  0.00    -0.366 C  
BRANCH  11  12
HETATM   12  C   UNL     1     -10.936  12.313  68.631  1.00  0.00    -0.276 C  
BRANCH  12  13
HETATM   13  C   UNL     1     -10.484  11.280  67.602  1.00  0.00    -0.225 C  
BRANCH  13  14
HETATM   14  C   UNL     1     -10.981  11.653  66.208  1.00  0.00    -0.338 C  
BRANCH  14  15
HETATM   15  C   UNL     1     -12.341  12.342  66.271  1.00  0.00     0.183 C  
HETATM   16  C   UNL     1     -12.349  13.634  65.488  1.00  0.00    -0.482 C  
HETATM   17  O   UNL     1     -13.553  14.253  65.536  1.00  0.00    -0.497 OA 
HETATM   18  O   UNL     1     -11.402  14.098  64.874  1.00  0.00    -0.334 OA 
ENDBRANCH  14  15
ENDBRANCH  13  14
ENDBRANCH  12  13
ENDBRANCH  11  12
ENDBRANCH  10  11
ENDBRANCH   9  10
ENDBRANCH   8   9
ENDBRANCH   7   8
ENDBRANCH   6   7
ENDBRANCH   5   6
ENDBRANCH   4   5
ENDBRANCH   3   4
ENDBRANCH   2   3
TORSDOF 13
ENDMDL
MODEL      411
REMARK 921   NORMALIZED FREE ENERGY PREDICTED BY IDOCK:   -2.42 KCAL/MOL
REMARK 922        TOTAL FREE ENERGY PREDICTED BY IDOCK:   -5.66 KCAL/MOL
REMARK 923 INTER-LIGAND FREE ENERGY PREDICTED BY IDOCK:   -3.83 KCAL/MOL
REMARK 924 INTRA-LIGAND FREE ENERGY PREDICTED BY IDOCK:   -1.83 KCAL/MOL
REMARK 927      BINDING AFFINITY PREDICTED BY RF-SCORE:    0.00 PKD
ROOT
HETATM    1  C   UNL     1     -11.674   7.719  72.658  1.00  0.00    -0.364 C  
HETATM    2  C   UNL     1     -11.711   8.746  71.539  1.00  0.00    -0.377 C  
ENDROOT
BRANCH   2   3
HETATM    3  C   UNL     1     -10.314   9.001  70.979  1.00  0.00    -0.348 C  
BRANCH   3   4
HETATM    4  C   UNL     1      -9.238   8.469  71.921  1.00  0.00    -0.326 C  
BRANCH   4   5
HETATM    5  C   UNL     1      -8.274   7.548  71.179  1.00  0.00    -0.101 C  
BRANCH   5   6
HETATM    6  C   UNL     1      -8.758   6.102  71.221  1.00  0.00    -0.132 C  
BRANCH   6   7
HETATM    7  C   UNL     1      -8.376   5.367  69.941  1.00  0.00    -0.100 C  
BRANCH   7   8
HETATM    8  C   UNL     1      -9.608   4.772  69.269  1.00  0.00    -0.243 C  
BRANCH   8   9
HETATM    9  C   UNL     1     -10.773   5.756  69.309  1.00  0.00    -0.386 C  
BRANCH   9  10
HETATM   10  C   UNL     1     -10.967   6.419  67.951  1.00  0.00    -0.416 C  
BRANCH  10  11
HETATM   11  C   UNL     1     -10.238   5.647  66.856  1.00  0.00    -0.272 C  
BRANCH  11  12
HETATM   12  C   UNL     1      -9.424   6.594  65.980  1.00  0.00     0.014 C  
BRANCH  12  13
HETATM   13  C   UNL     1      -7.957   6.614  66.401  1.00  0.00    -0.106 C  
BRANCH  13  14
HETATM   14  C   UNL     1      -7.347   7.994  66.165  1.00  0.00    -0.074 C  
BRANCH  14  15
HETATM   15  C   UNL     1      -8.397   8.988  65.676  1.00  0.00    -0.137 C  
HETATM   16  C   UNL     1      -8.039  10.407  66.051  1.00  0.00    -0.143 C  
HETATM   17  O   UNL     1      -8.964  11.297  65.620  1.00  0.00    -0.207 OA 
HETATM   18  O   UNL     1      -7.044  10.748  66.669  1.00  0.00    -0.117 OA 
ENDBRANCH  14  15
ENDBRANCH  13  14
ENDBRANCH  12  13
ENDBRANCH  11  12
ENDBRANCH  10  11
ENDBRANCH   9  10
ENDBRANCH   8   9
ENDBRANCH   7   8
ENDBRANCH   6   7
ENDBRANCH   5   6
ENDBRANCH   4   5
ENDBRANCH   3   4
ENDBRANCH   2   3
TORSDOF 13
ENDMDL
MODEL      412
REMARK 921   NORMALIZED FREE ENERGY PREDICTED BY IDOCK:   -2.40 KCAL/MOL
REMARK 922        TOTAL FREE ENERGY PREDICTED BY IDOCK:   -5.64 KCAL/MOL
REMARK 923 INTER-LIGAND FREE ENERGY PREDICTED BY IDOCK:   -4.68 KCAL/MOL
REMARK 924 INTRA-LIGAND FREE ENERGY PREDICTED BY IDOCK:   -0.96 KCAL/MOL
REMARK 927      BINDING AFFINITY PREDICTED BY RF-SCORE:    0.00 PKD
ROOT
HETATM    1  C   UNL     1      -6.368  19.818  69.886  1.00  0.00    -0.377 C  
HETATM    2  C   UNL     1      -7.139  19.813  68.577  1.00  0.00    -0.353 C  
ENDROOT
BRANCH   2   3
HETATM    3  C   UNL     1      -8.078  18.613  68.496  1.00  0.00    -0.370 C  
BRANCH   3   4
HETATM    4  C   UNL     1      -7.463  17.488  67.668  1.00  0.00    -0.195 C  
BRANCH   4   5
HETATM    5  C   UNL     1      -8.403  16.288  67.599  1.00  0.00    -0.172 C  
BRANCH   5   6
HETATM    6  C   UNL     1      -9.836  16.699  67.924  1.00  0.00    -0.248 C  
BRANCH   6   7
HETATM    7  C   UNL     1     -10.294  16.067  69.235  1.00  0.00    -0.251 C  
BRANCH   7   8
HETATM    8  C   UNL     1     -10.196  14.548  69.167  1.00  0.00    -0.172 C  
BRANCH   8   9
HETATM    9  C   UNL     1     -11.517  13.941  68.703  1.00  0.00    -0.333 C  
BRANCH   9  10
HETATM   10  C   UNL     1     -11.381  13.364  67.299  1.00  0.00    -0.348 C  
BRANCH  10  11
HETATM   11  C   UNL     1      -9.927  13.025  66.985  1.00  0.00    -0.242 C  
BRANCH  11  12
HETATM   12  C   UNL     1      -9.828  11.674  66.283  1.00  0.00    -0.245 C  
BRANCH  12  13
HETATM   13  C   UNL     1     -10.037  10.524  67.264  1.00  0.00    -0.242 C  
BRANCH  13  14
HETATM   14  C   UNL     1      -9.334   9.261  66.773  1.00  0.00    -0.202 C  
BRANCH  14  15
HETATM   15  C   UNL     1     -10.298   8.080  66.708  1.00  0.00    -0.360 C  
HETATM   16  C   UNL     1      -9.973   7.037  67.753  1.00  0.00    -0.152 C  
HETATM   17  O   UNL     1     -10.824   5.985  67.704  1.00  0.00    -0.281 OA 
HETATM   18  O   UNL     1      -9.060   7.101  68.559  1.00  0.00    -0.133 OA 
ENDBRANCH  14  15
ENDBRANCH  13  14
ENDBRANCH  12  13
ENDBRANCH  11  12
ENDBRANCH  10  11
ENDBRANCH   9  10
ENDBRANCH   8   9
ENDBRANCH   7   8
ENDBRANCH   6   7
ENDBRANCH   5   6
ENDBRANCH   4   5
ENDBRANCH   3   4
ENDBRANCH   2   3
TORSDOF 13
ENDMDL
MODEL      413
REMARK 921   NORMALIZED FREE ENERGY PREDICTED BY IDOCK:   -2.40 KCAL/MOL
REMARK 922        TOTAL FREE ENERGY PREDICTED BY IDOCK:   -5.63 KCAL/MOL
REMARK 923 INTER-LIGAND FREE ENERGY PREDICTED BY IDOCK:   -4.25 KCAL/MOL
REMARK 924 INTRA-LIGAND FREE ENERGY PREDICTED BY IDOCK:   -1.37 KCAL/MOL
REMARK 927      BINDING AFFINITY PREDICTED BY RF-SCORE:    0.00 PKD
ROOT
HETATM    1  C   UNL     1      -8.799  19.439  68.726  1.00  0.00    -0.385 C  
HETATM    2  C   UNL     1      -7.716  19.559  67.667  1.00  0.00    -0.308 C  
ENDROOT
BRANCH   2   3
HETATM    3  C   UNL     1      -8.060  18.730  66.432  1.00  0.00    -0.296 C  
BRANCH   3   4
HETATM    4  C   UNL     1      -8.694  17.398  66.822  1.00  0.00    -0.278 C  
BRANCH   4   5
HETATM    5  C   UNL     1      -7.653  16.282  66.830  1.00  0.00    -0.285 C  
BRANCH   5   6
HETATM    6  C   UNL     1      -7.332  15.846  68.255  1.00  0.00    -0.124 C  
BRANCH   6   7
HETATM    7  C   UNL     1      -8.369  14.848  68.761  1.00  0.00    -0.170 C  
BRANCH   7   8
HETATM    8  C   UNL     1      -8.497  13.668  67.805  1.00  0.00    -0.183 C  
BRANCH   8   9
HETATM    9  C   UNL     1      -7.272  12.764  67.896  1.00  0.00    -0.120 C  
BRANCH   9  10
HETATM   10  C   UNL     1      -7.497  11.650  68.911  1.00  0.00    -0.092 C  
BRANCH  10  11
HETATM   11  C   UNL     1      -7.112  10.293  68.328  1.00  0.00    -0.079 C  
BRANCH  11  12
HETATM   12  C   UNL     1      -8.342   9.571  67.789  1.00  0.00    -0.118 C  
BRANCH  12  13
HETATM   13  C   UNL     1      -8.477   9.759  66.280  1.00  0.00    -0.129 C  
BRANCH  13  14
HETATM   14  C   UNL     1      -9.941   9.674  65.855  1.00  0.00    -0.351 C  
BRANCH  14  15
HETATM   15  C   UNL     1     -10.854  10.359  66.869  1.00  0.00    -0.229 C  
HETATM   16  C   UNL     1     -11.255  11.742  66.413  1.00  0.00    -0.323 C  
HETATM   17  O   UNL     1     -12.067  12.358  67.305  1.00  0.00    -0.516 OA 
HETATM   18  O   UNL     1     -10.908  12.274  65.371  1.00  0.00    -0.270 OA 
ENDBRANCH  14  15
ENDBRANCH  13  14
ENDBRANCH  12  13
ENDBRANCH  11  12
ENDBRANCH  10  11
ENDBRANCH   9  10
ENDBRANCH   8   9
ENDBRANCH   7   8
ENDBRANCH   6   7
ENDBRANCH   5   6
ENDBRANCH   4   5
ENDBRANCH   3   4
ENDBRANCH   2   3
TORSDOF 13
ENDMDL
MODEL      414
REMARK 921   NORMALIZED FREE ENERGY PREDICTED BY IDOCK:   -2.39 KCAL/MOL
REMARK 922        TOTAL FREE ENERGY PREDICTED BY IDOCK:   -5.61 KCAL/MOL
REMARK 923 INTER-LIGAND FREE ENERGY PREDICTED BY IDOCK:   -3.13 KCAL/MOL
REMARK 924 INTRA-LIGAND FREE ENERGY PREDICTED BY IDOCK:   -2.49 KCAL/MOL
REMARK 927      BINDING AFFINITY PREDICTED BY RF-SCORE:    0.00 PKD
ROOT
HETATM    1  C   UNL     1      -8.186   8.066  74.331  1.00  0.00    -0.284 C  
HETATM    2  C   UNL     1      -9.274   7.949  73.277  1.00  0.00    -0.346 C  
ENDROOT
BRANCH   2   3
HETATM    3  C   UNL     1      -8.732   8.278  71.888  1.00  0.00    -0.230 C  
BRANCH   3   4
HETATM    4  C   UNL     1      -7.262   8.681  71.952  1.00  0.00    -0.092 C  
BRANCH   4   5
HETATM    5  C   UNL     1      -6.440   7.897  70.932  1.00  0.00    -0.037 C  
BRANCH   5   6
HETATM    6  C   UNL     1      -6.802   6.416  70.962  1.00  0.00    -0.066 C  
BRANCH   6   7
HETATM    7  C   UNL     1      -6.903   5.856  69.547  1.00  0.00    -0.062 C  
BRANCH   7   8
HETATM    8  C   UNL     1      -8.028   4.832  69.448  1.00  0.00    -0.070 C  
BRANCH   8   9
HETATM    9  C   UNL     1      -8.837   4.792  70.740  1.00  0.00    -0.153 C  
BRANCH   9  10
HETATM   10  C   UNL     1     -10.264   5.272  70.498  1.00  0.00    -0.334 C  
BRANCH  10  11
HETATM   11  C   UNL     1     -10.513   5.522  69.014  1.00  0.00    -0.296 C  
BRANCH  11  12
HETATM   12  C   UNL     1     -10.990   6.951  68.781  1.00  0.00    -0.210 C  
BRANCH  12  13
HETATM   13  C   UNL     1     -10.520   7.479  67.429  1.00  0.00    -0.367 C  
BRANCH  13  14
HETATM   14  C   UNL     1      -9.107   8.048  67.533  1.00  0.00    -0.146 C  
BRANCH  14  15
HETATM   15  C   UNL     1      -9.037   9.171  68.564  1.00  0.00    -0.132 C  
HETATM   16  C   UNL     1      -7.830  10.054  68.346  1.00  0.00    -0.089 C  
HETATM   17  O   UNL     1      -7.760  11.056  69.255  1.00  0.00    -0.129 OA 
HETATM   18  O   UNL     1      -6.996   9.912  67.467  1.00  0.00    -0.081 OA 
ENDBRANCH  14  15
ENDBRANCH  13  14
ENDBRANCH  12  13
ENDBRANCH  11  12
ENDBRANCH  10  11
ENDBRANCH   9  10
ENDBRANCH   8   9
ENDBRANCH   7   8
ENDBRANCH   6   7
ENDBRANCH   5   6
ENDBRANCH   4   5
ENDBRANCH   3   4
ENDBRANCH   2   3
TORSDOF 13
ENDMDL
MODEL      415
REMARK 921   NORMALIZED FREE ENERGY PREDICTED BY IDOCK:   -2.37 KCAL/MOL
REMARK 922        TOTAL FREE ENERGY PREDICTED BY IDOCK:   -5.58 KCAL/MOL
REMARK 923 INTER-LIGAND FREE ENERGY PREDICTED BY IDOCK:   -4.45 KCAL/MOL
REMARK 924 INTRA-LIGAND FREE ENERGY PREDICTED BY IDOCK:   -1.13 KCAL/MOL
REMARK 927      BINDING AFFINITY PREDICTED BY RF-SCORE:    0.00 PKD
ROOT
HETATM    1  C   UNL     1      -5.367   6.839  62.987  1.00  0.00    -0.031 C  
HETATM    2  C   UNL     1      -5.796   8.296  62.967  1.00  0.00    -0.077 C  
ENDROOT
BRANCH   2   3
HETATM    3  C   UNL     1      -5.609   8.944  64.337  1.00  0.00    -0.063 C  
BRANCH   3   4
HETATM    4  C   UNL     1      -6.890   9.632  64.800  1.00  0.00    -0.111 C  
BRANCH   4   5
HETATM    5  C   UNL     1      -7.825   9.886  63.622  1.00  0.00    -0.145 C  
BRANCH   5   6
HETATM    6  C   UNL     1      -9.285   9.775  64.050  1.00  0.00    -0.267 C  
BRANCH   6   7
HETATM    7  C   UNL     1     -10.156  10.742  63.255  1.00  0.00    -0.314 C  
BRANCH   7   8
HETATM    8  C   UNL     1     -11.025  11.579  64.186  1.00  0.00    -0.434 C  
BRANCH   8   9
HETATM    9  C   UNL     1     -10.918  13.060  63.839  1.00  0.00    -0.375 C  
BRANCH   9  10
HETATM   10  C   UNL     1     -11.714  13.905  64.827  1.00  0.00    -0.399 C  
BRANCH  10  11
HETATM   11  C   UNL     1     -10.861  14.286  66.032  1.00  0.00    -0.303 C  
BRANCH  11  12
HETATM   12  C   UNL     1     -11.540  13.859  67.329  1.00  0.00    -0.393 C  
BRANCH  12  13
HETATM   13  C   UNL     1     -10.736  12.776  68.044  1.00  0.00    -0.246 C  
BRANCH  13  14
HETATM   14  C   UNL     1     -11.438  11.424  67.938  1.00  0.00    -0.361 C  
BRANCH  14  15
HETATM   15  C   UNL     1     -10.499  10.281  68.311  1.00  0.00    -0.230 C  
HETATM   16  C   UNL     1     -10.811   9.727  69.681  1.00  0.00    -0.250 C  
HETATM   17  O   UNL     1      -9.984   8.710  70.021  1.00  0.00    -0.180 OA 
HETATM   18  O   UNL     1     -11.695  10.123  70.423  1.00  0.00    -0.271 OA 
ENDBRANCH  14  15
ENDBRANCH  13  14
ENDBRANCH  12  13
ENDBRANCH  11  12
ENDBRANCH  10  11
ENDBRANCH   9  10
ENDBRANCH   8   9
ENDBRANCH   7   8
ENDBRANCH   6   7
ENDBRANCH   5   6
ENDBRANCH   4   5
ENDBRANCH   3   4
ENDBRANCH   2   3
TORSDOF 13
ENDMDL
MODEL      416
REMARK 921   NORMALIZED FREE ENERGY PREDICTED BY IDOCK:   -2.37 KCAL/MOL
REMARK 922        TOTAL FREE ENERGY PREDICTED BY IDOCK:   -5.58 KCAL/MOL
REMARK 923 INTER-LIGAND FREE ENERGY PREDICTED BY IDOCK:   -4.78 KCAL/MOL
REMARK 924 INTRA-LIGAND FREE ENERGY PREDICTED BY IDOCK:   -0.80 KCAL/MOL
REMARK 927      BINDING AFFINITY PREDICTED BY RF-SCORE:    0.00 PKD
ROOT
HETATM    1  C   UNL     1     -10.041  16.527  69.286  1.00  0.00    -0.270 C  
HETATM    2  C   UNL     1     -11.200  15.560  69.116  1.00  0.00    -0.300 C  
ENDROOT
BRANCH   2   3
HETATM    3  C   UNL     1     -12.221  15.722  70.239  1.00  0.00    -0.367 C  
BRANCH   3   4
HETATM    4  C   UNL     1     -11.718  15.094  71.535  1.00  0.00    -0.447 C  
BRANCH   4   5
HETATM    5  C   UNL     1     -12.397  13.750  71.787  1.00  0.00    -0.154 C  
BRANCH   5   6
HETATM    6  C   UNL     1     -12.715  13.046  70.472  1.00  0.00    -0.111 C  
BRANCH   6   7
HETATM    7  C   UNL     1     -11.896  11.766  70.334  1.00  0.00    -0.362 C  
BRANCH   7   8
HETATM    8  C   UNL     1     -11.354  11.621  68.916  1.00  0.00    -0.328 C  
BRANCH   8   9
HETATM    9  C   UNL     1     -10.888  10.191  68.661  1.00  0.00    -0.272 C  
BRANCH   9  10
HETATM   10  C   UNL     1      -9.739   9.823  69.592  1.00  0.00    -0.242 C  
BRANCH  10  11
HETATM   11  C   UNL     1      -9.486   8.319  69.581  1.00  0.00    -0.163 C  
BRANCH  11  12
HETATM   12  C   UNL     1      -9.714   7.724  70.966  1.00  0.00    -0.174 C  
BRANCH  12  13
HETATM   13  C   UNL     1     -11.008   8.246  71.586  1.00  0.00    -0.327 C  
BRANCH  13  14
HETATM   14  C   UNL     1     -11.343   7.476  72.862  1.00  0.00    -0.355 C  
BRANCH  14  15
HETATM   15  C   UNL     1     -11.470   5.980  72.589  1.00  0.00    -0.297 C  
HETATM   16  C   UNL     1     -10.583   5.169  73.505  1.00  0.00    -0.258 C  
HETATM   17  O   UNL     1     -10.689   3.839  73.272  1.00  0.00    -0.174 OA 
HETATM   18  O   UNL     1      -9.845   5.624  74.364  1.00  0.00    -0.176 OA 
ENDBRANCH  14  15
ENDBRANCH  13  14
ENDBRANCH  12  13
ENDBRANCH  11  12
ENDBRANCH  10  11
ENDBRANCH   9  10
ENDBRANCH   8   9
ENDBRANCH   7   8
ENDBRANCH   6   7
ENDBRANCH   5   6
ENDBRANCH   4   5
ENDBRANCH   3   4
ENDBRANCH   2   3
TORSDOF 13
ENDMDL
MODEL      417
REMARK 921   NORMALIZED FREE ENERGY PREDICTED BY IDOCK:   -2.36 KCAL/MOL
REMARK 922        TOTAL FREE ENERGY PREDICTED BY IDOCK:   -5.56 KCAL/MOL
REMARK 923 INTER-LIGAND FREE ENERGY PREDICTED BY IDOCK:   -4.66 KCAL/MOL
REMARK 924 INTRA-LIGAND FREE ENERGY PREDICTED BY IDOCK:   -0.90 KCAL/MOL
REMARK 927      BINDING AFFINITY PREDICTED BY RF-SCORE:    0.00 PKD
ROOT
HETATM    1  C   UNL     1     -10.385  18.810  67.306  1.00  0.00    -0.469 C  
HETATM    2  C   UNL     1      -9.588  17.704  67.976  1.00  0.00    -0.289 C  
ENDROOT
BRANCH   2   3
HETATM    3  C   UNL     1     -10.507  16.607  68.508  1.00  0.00    -0.319 C  
BRANCH   3   4
HETATM    4  C   UNL     1      -9.780  15.721  69.516  1.00  0.00    -0.276 C  
BRANCH   4   5
HETATM    5  C   UNL     1     -10.749  15.184  70.565  1.00  0.00    -0.184 C  
BRANCH   5   6
HETATM    6  C   UNL     1     -11.834  14.329  69.918  1.00  0.00    -0.382 C  
BRANCH   6   7
HETATM    7  C   UNL     1     -11.217  13.272  69.009  1.00  0.00    -0.320 C  
BRANCH   7   8
HETATM    8  C   UNL     1     -11.888  13.276  67.640  1.00  0.00    -0.400 C  
BRANCH   8   9
HETATM    9  C   UNL     1     -11.414  12.093  66.802  1.00  0.00    -0.418 C  
BRANCH   9  10
HETATM   10  C   UNL     1     -10.095  11.547  67.337  1.00  0.00    -0.213 C  
BRANCH  10  11
HETATM   11  C   UNL     1      -9.278  10.900  66.223  1.00  0.00    -0.197 C  
BRANCH  11  12
HETATM   12  C   UNL     1      -7.926  10.432  66.750  1.00  0.00    -0.117 C  
BRANCH  12  13
HETATM   13  C   UNL     1      -7.948   8.944  67.087  1.00  0.00    -0.096 C  
BRANCH  13  14
HETATM   14  C   UNL     1      -7.206   8.676  68.394  1.00  0.00    -0.085 C  
BRANCH  14  15
HETATM   15  C   UNL     1      -8.175   8.550  69.566  1.00  0.00    -0.116 C  
HETATM   16  C   UNL     1      -7.693   9.320  70.774  1.00  0.00    -0.139 C  
HETATM   17  O   UNL     1      -8.548   9.216  71.819  1.00  0.00    -0.340 OA 
HETATM   18  O   UNL     1      -6.662   9.968  70.837  1.00  0.00    -0.301 OA 
ENDBRANCH  14  15
ENDBRANCH  13  14
ENDBRANCH  12  13
ENDBRANCH  11  12
ENDBRANCH  10  11
ENDBRANCH   9  10
ENDBRANCH   8   9
ENDBRANCH   7   8
ENDBRANCH   6   7
ENDBRANCH   5   6
ENDBRANCH   4   5
ENDBRANCH   3   4
ENDBRANCH   2   3
TORSDOF 13
ENDMDL
MODEL      418
REMARK 921   NORMALIZED FREE ENERGY PREDICTED BY IDOCK:   -2.35 KCAL/MOL
REMARK 922        TOTAL FREE ENERGY PREDICTED BY IDOCK:   -5.54 KCAL/MOL
REMARK 923 INTER-LIGAND FREE ENERGY PREDICTED BY IDOCK:   -3.14 KCAL/MOL
REMARK 924 INTRA-LIGAND FREE ENERGY PREDICTED BY IDOCK:   -2.39 KCAL/MOL
REMARK 927      BINDING AFFINITY PREDICTED BY RF-SCORE:    0.00 PKD
ROOT
HETATM    1  C   UNL     1     -11.777   6.622  70.257  1.00  0.00    -0.432 C  
HETATM    2  C   UNL     1     -12.433   6.874  71.603  1.00  0.00    -0.418 C  
ENDROOT
BRANCH   2   3
HETATM    3  C   UNL     1     -11.388   7.008  72.708  1.00  0.00    -0.256 C  
BRANCH   3   4
HETATM    4  C   UNL     1     -10.657   5.689  72.938  1.00  0.00    -0.268 C  
BRANCH   4   5
HETATM    5  C   UNL     1      -9.270   5.932  73.525  1.00  0.00    -0.131 C  
BRANCH   5   6
HETATM    6  C   UNL     1      -9.200   7.290  74.216  1.00  0.00    -0.232 C  
BRANCH   6   7
HETATM    7  C   UNL     1      -7.871   7.977  73.923  1.00  0.00    -0.252 C  
BRANCH   7   8
HETATM    8  C   UNL     1      -6.701   7.050  74.233  1.00  0.00    -0.082 C  
BRANCH   8   9
HETATM    9  C   UNL     1      -5.758   6.952  73.039  1.00  0.00    -0.042 C  
BRANCH   9  10
HETATM   10  C   UNL     1      -5.657   5.513  72.546  1.00  0.00    -0.022 C  
BRANCH  10  11
HETATM   11  C   UNL     1      -6.470   5.313  71.271  1.00  0.00    -0.035 C  
BRANCH  11  12
HETATM   12  C   UNL     1      -6.719   6.648  70.576  1.00  0.00    -0.057 C  
BRANCH  12  13
HETATM   13  C   UNL     1      -8.173   6.778  70.131  1.00  0.00    -0.133 C  
BRANCH  13  14
HETATM   14  C   UNL     1      -8.531   8.241  69.880  1.00  0.00    -0.127 C  
BRANCH  14  15
HETATM   15  C   UNL     1      -7.542   9.179  70.564  1.00  0.00    -0.130 C  
HETATM   16  C   UNL     1      -7.324  10.441  69.763  1.00  0.00    -0.154 C  
HETATM   17  O   UNL     1      -6.448  11.282  70.363  1.00  0.00    -0.266 OA 
HETATM   18  O   UNL     1      -7.856  10.706  68.697  1.00  0.00    -0.105 OA 
ENDBRANCH  14  15
ENDBRANCH  13  14
ENDBRANCH  12  13
ENDBRANCH  11  12
ENDBRANCH  10  11
ENDBRANCH   9  10
ENDBRANCH   8   9
ENDBRANCH   7   8
ENDBRANCH   6   7
ENDBRANCH   5   6
ENDBRANCH   4   5
ENDBRANCH   3   4
ENDBRANCH   2   3
TORSDOF 13
ENDMDL
MODEL      419
REMARK 921   NORMALIZED FREE ENERGY PREDICTED BY IDOCK:   -2.34 KCAL/MOL
REMARK 922        TOTAL FREE ENERGY PREDICTED BY IDOCK:   -5.53 KCAL/MOL
REMARK 923 INTER-LIGAND FREE ENERGY PREDICTED BY IDOCK:   -4.42 KCAL/MOL
REMARK 924 INTRA-LIGAND FREE ENERGY PREDICTED BY IDOCK:   -1.11 KCAL/MOL
REMARK 927      BINDING AFFINITY PREDICTED BY RF-SCORE:    0.00 PKD
ROOT
HETATM    1  C   UNL     1     -14.287  15.466  71.872  1.00  0.00    -0.649 C  
HETATM    2  C   UNL     1     -13.077  14.768  71.277  1.00  0.00    -0.433 C  
ENDROOT
BRANCH   2   3
HETATM    3  C   UNL     1     -11.790  15.522  71.605  1.00  0.00    -0.486 C  
BRANCH   3   4
HETATM    4  C   UNL     1     -10.757  15.358  70.493  1.00  0.00    -0.290 C  
BRANCH   4   5
HETATM    5  C   UNL     1     -11.262  15.971  69.190  1.00  0.00    -0.342 C  
BRANCH   5   6
HETATM    6  C   UNL     1     -10.553  15.356  67.988  1.00  0.00    -0.263 C  
BRANCH   6   7
HETATM    7  C   UNL     1     -10.963  13.898  67.808  1.00  0.00    -0.271 C  
BRANCH   7   8
HETATM    8  C   UNL     1     -10.243  13.276  66.618  1.00  0.00    -0.265 C  
BRANCH   8   9
HETATM    9  C   UNL     1      -9.366  12.111  67.065  1.00  0.00    -0.201 C  
BRANCH   9  10
HETATM   10  C   UNL     1      -9.763  10.828  66.344  1.00  0.00    -0.241 C  
BRANCH  10  11
HETATM   11  C   UNL     1      -8.562   9.902  66.173  1.00  0.00    -0.138 C  
BRANCH  11  12
HETATM   12  C   UNL     1      -7.293  10.564  66.700  1.00  0.00    -0.120 C  
BRANCH  12  13
HETATM   13  C   UNL     1      -6.561   9.654  67.682  1.00  0.00    -0.066 C  
BRANCH  13  14
HETATM   14  C   UNL     1      -6.475  10.306  69.060  1.00  0.00    -0.045 C  
BRANCH  14  15
HETATM   15  C   UNL     1      -7.808  10.221  69.798  1.00  0.00    -0.151 C  
HETATM   16  C   UNL     1      -7.728   9.295  70.990  1.00  0.00    -0.063 C  
HETATM   17  O   UNL     1      -8.906   9.214  71.652  1.00  0.00    -0.339 OA 
HETATM   18  O   UNL     1      -6.737   8.677  71.343  1.00  0.00    -0.062 OA 
ENDBRANCH  14  15
ENDBRANCH  13  14
ENDBRANCH  12  13
ENDBRANCH  11  12
ENDBRANCH  10  11
ENDBRANCH   9  10
ENDBRANCH   8   9
ENDBRANCH   7   8
ENDBRANCH   6   7
ENDBRANCH   5   6
ENDBRANCH   4   5
ENDBRANCH   3   4
ENDBRANCH   2   3
TORSDOF 13
ENDMDL
MODEL      420
REMARK 921   NORMALIZED FREE ENERGY PREDICTED BY IDOCK:   -2.34 KCAL/MOL
REMARK 922        TOTAL FREE ENERGY PREDICTED BY IDOCK:   -5.53 KCAL/MOL
REMARK 923 INTER-LIGAND FREE ENERGY PREDICTED BY IDOCK:   -3.51 KCAL/MOL
REMARK 924 INTRA-LIGAND FREE ENERGY PREDICTED BY IDOCK:   -2.02 KCAL/MOL
REMARK 927      BINDING AFFINITY PREDICTED BY RF-SCORE:    0.00 PKD
ROOT
HETATM    1  C   UNL     1     -11.574   6.571  70.937  1.00  0.00    -0.417 C  
HETATM    2  C   UNL     1     -10.969   7.110  72.223  1.00  0.00    -0.277 C  
ENDROOT
BRANCH   2   3
HETATM    3  C   UNL     1      -9.473   6.814  72.294  1.00  0.00    -0.149 C  
BRANCH   3   4
HETATM    4  C   UNL     1      -9.198   5.323  72.118  1.00  0.00    -0.156 C  
BRANCH   4   5
HETATM    5  C   UNL     1      -8.232   5.082  70.962  1.00  0.00    -0.109 C  
BRANCH   5   6
HETATM    6  C   UNL     1      -7.586   6.388  70.510  1.00  0.00    -0.096 C  
BRANCH   6   7
HETATM    7  C   UNL     1      -7.674   6.537  68.994  1.00  0.00    -0.109 C  
BRANCH   7   8
HETATM    8  C   UNL     1      -8.233   5.270  68.357  1.00  0.00    -0.090 C  
BRANCH   8   9
HETATM    9  C   UNL     1      -8.888   5.584  67.015  1.00  0.00    -0.110 C  
BRANCH   9  10
HETATM   10  C   UNL     1     -10.348   5.149  67.013  1.00  0.00    -0.267 C  
BRANCH  10  11
HETATM   11  C   UNL     1     -11.278   6.354  67.120  1.00  0.00    -0.298 C  
BRANCH  11  12
HETATM   12  C   UNL     1     -10.530   7.642  66.795  1.00  0.00    -0.319 C  
BRANCH  12  13
HETATM   13  C   UNL     1     -10.495   8.580  67.998  1.00  0.00    -0.249 C  
BRANCH  13  14
HETATM   14  C   UNL     1      -9.338   9.570  67.876  1.00  0.00    -0.145 C  
BRANCH  14  15
HETATM   15  C   UNL     1      -8.712   9.522  66.486  1.00  0.00    -0.147 C  
HETATM   16  C   UNL     1      -9.128  10.706  65.644  1.00  0.00    -0.183 C  
HETATM   17  O   UNL     1      -8.576  10.673  64.409  1.00  0.00    -0.173 OA 
HETATM   18  O   UNL     1      -9.873  11.604  66.003  1.00  0.00    -0.216 OA 
ENDBRANCH  14  15
ENDBRANCH  13  14
ENDBRANCH  12  13
ENDBRANCH  11  12
ENDBRANCH  10  11
ENDBRANCH   9  10
ENDBRANCH   8   9
ENDBRANCH   7   8
ENDBRANCH   6   7
ENDBRANCH   5   6
ENDBRANCH   4   5
ENDBRANCH   3   4
ENDBRANCH   2   3
TORSDOF 13
ENDMDL
MODEL      421
REMARK 921   NORMALIZED FREE ENERGY PREDICTED BY IDOCK:   -2.34 KCAL/MOL
REMARK 922        TOTAL FREE ENERGY PREDICTED BY IDOCK:   -5.52 KCAL/MOL
REMARK 923 INTER-LIGAND FREE ENERGY PREDICTED BY IDOCK:   -4.52 KCAL/MOL
REMARK 924 INTRA-LIGAND FREE ENERGY PREDICTED BY IDOCK:   -1.00 KCAL/MOL
REMARK 927      BINDING AFFINITY PREDICTED BY RF-SCORE:    0.00 PKD
ROOT
HETATM    1  C   UNL     1     -11.981  16.431  73.164  1.00  0.00    -0.536 C  
HETATM    2  C   UNL     1     -12.755  15.130  73.288  1.00  0.00    -0.628 C  
ENDROOT
BRANCH   2   3
HETATM    3  C   UNL     1     -14.112  15.229  72.595  1.00  0.00    -0.476 C  
BRANCH   3   4
HETATM    4  C   UNL     1     -14.091  14.522  71.242  1.00  0.00    -0.327 C  
BRANCH   4   5
HETATM    5  C   UNL     1     -12.763  13.802  71.027  1.00  0.00    -0.416 C  
BRANCH   5   6
HETATM    6  C   UNL     1     -12.217  14.072  69.629  1.00  0.00    -0.383 C  
BRANCH   6   7
HETATM    7  C   UNL     1     -11.360  15.335  69.620  1.00  0.00    -0.304 C  
BRANCH   7   8
HETATM    8  C   UNL     1     -11.055  15.772  68.192  1.00  0.00    -0.341 C  
BRANCH   8   9
HETATM    9  C   UNL     1     -10.068  14.814  67.533  1.00  0.00    -0.224 C  
BRANCH   9  10
HETATM   10  C   UNL     1      -8.636  15.302  67.720  1.00  0.00    -0.163 C  
BRANCH  10  11
HETATM   11  C   UNL     1      -7.796  14.265  68.459  1.00  0.00    -0.143 C  
BRANCH  11  12
HETATM   12  C   UNL     1      -7.964  12.887  67.827  1.00  0.00    -0.162 C  
BRANCH  12  13
HETATM   13  C   UNL     1      -6.629  12.153  67.735  1.00  0.00    -0.100 C  
BRANCH  13  14
HETATM   14  C   UNL     1      -6.344  11.388  69.025  1.00  0.00    -0.063 C  
BRANCH  14  15
HETATM   15  C   UNL     1      -7.296  10.207  69.191  1.00  0.00    -0.089 C  
HETATM   16  C   UNL     1      -6.548   8.900  69.317  1.00  0.00    -0.049 C  
HETATM   17  O   UNL     1      -7.384   7.846  69.466  1.00  0.00    -0.082 OA 
HETATM   18  O   UNL     1      -5.334   8.772  69.290  1.00  0.00    -0.034 OA 
ENDBRANCH  14  15
ENDBRANCH  13  14
ENDBRANCH  12  13
ENDBRANCH  11  12
ENDBRANCH  10  11
ENDBRANCH   9  10
ENDBRANCH   8   9
ENDBRANCH   7   8
ENDBRANCH   6   7
ENDBRANCH   5   6
ENDBRANCH   4   5
ENDBRANCH   3   4
ENDBRANCH   2   3
TORSDOF 13
ENDMDL
MODEL      422
REMARK 921   NORMALIZED FREE ENERGY PREDICTED BY IDOCK:   -2.33 KCAL/MOL
REMARK 922        TOTAL FREE ENERGY PREDICTED BY IDOCK:   -5.51 KCAL/MOL
REMARK 923 INTER-LIGAND FREE ENERGY PREDICTED BY IDOCK:   -4.92 KCAL/MOL
REMARK 924 INTRA-LIGAND FREE ENERGY PREDICTED BY IDOCK:   -0.59 KCAL/MOL
REMARK 927      BINDING AFFINITY PREDICTED BY RF-SCORE:    0.00 PKD
ROOT
HETATM    1  C   UNL     1     -10.662  15.251  69.392  1.00  0.00    -0.266 C  
HETATM    2  C   UNL     1     -11.820  14.271  69.456  1.00  0.00    -0.378 C  
ENDROOT
BRANCH   2   3
HETATM    3  C   UNL     1     -12.835  14.686  70.519  1.00  0.00    -0.371 C  
BRANCH   3   4
HETATM    4  C   UNL     1     -13.036  13.578  71.549  1.00  0.00    -0.427 C  
BRANCH   4   5
HETATM    5  C   UNL     1     -12.569  12.234  70.999  1.00  0.00    -0.352 C  
BRANCH   5   6
HETATM    6  C   UNL     1     -13.050  11.087  71.881  1.00  0.00    -0.525 C  
BRANCH   6   7
HETATM    7  C   UNL     1     -12.758   9.742  71.224  1.00  0.00    -0.464 C  
BRANCH   7   8
HETATM    8  C   UNL     1     -12.230   8.742  72.246  1.00  0.00    -0.429 C  
BRANCH   8   9
HETATM    9  C   UNL     1     -10.709   8.653  72.180  1.00  0.00    -0.417 C  
BRANCH   9  10
HETATM   10  C   UNL     1     -10.268   7.853  70.959  1.00  0.00    -0.217 C  
BRANCH  10  11
HETATM   11  C   UNL     1      -9.165   8.581  70.198  1.00  0.00    -0.159 C  
BRANCH  11  12
HETATM   12  C   UNL     1      -9.760   9.543  69.176  1.00  0.00    -0.178 C  
BRANCH  12  13
HETATM   13  C   UNL     1     -10.832   8.859  68.331  1.00  0.00    -0.043 C  
BRANCH  13  14
HETATM   14  C   UNL     1     -10.242   7.678  67.564  1.00  0.00    -0.294 C  
BRANCH  14  15
HETATM   15  C   UNL     1      -8.743   7.857  67.339  1.00  0.00    -0.128 C  
HETATM   16  C   UNL     1      -8.004   6.542  67.434  1.00  0.00    -0.113 C  
HETATM   17  O   UNL     1      -6.673   6.690  67.235  1.00  0.00    -0.058 OA 
HETATM   18  O   UNL     1      -8.513   5.457  67.663  1.00  0.00    -0.107 OA 
ENDBRANCH  14  15
ENDBRANCH  13  14
ENDBRANCH  12  13
ENDBRANCH  11  12
ENDBRANCH  10  11
ENDBRANCH   9  10
ENDBRANCH   8   9
ENDBRANCH   7   8
ENDBRANCH   6   7
ENDBRANCH   5   6
ENDBRANCH   4   5
ENDBRANCH   3   4
ENDBRANCH   2   3
TORSDOF 13
ENDMDL
MODEL      423
REMARK 921   NORMALIZED FREE ENERGY PREDICTED BY IDOCK:   -2.33 KCAL/MOL
REMARK 922        TOTAL FREE ENERGY PREDICTED BY IDOCK:   -5.51 KCAL/MOL
REMARK 923 INTER-LIGAND FREE ENERGY PREDICTED BY IDOCK:   -4.42 KCAL/MOL
REMARK 924 INTRA-LIGAND FREE ENERGY PREDICTED BY IDOCK:   -1.09 KCAL/MOL
REMARK 927      BINDING AFFINITY PREDICTED BY RF-SCORE:    0.00 PKD
ROOT
HETATM    1  C   UNL     1     -13.792  14.297  71.941  1.00  0.00    -0.545 C  
HETATM    2  C   UNL     1     -13.052  15.094  70.881  1.00  0.00    -0.498 C  
ENDROOT
BRANCH   2   3
HETATM    3  C   UNL     1     -11.805  14.352  70.404  1.00  0.00    -0.381 C  
BRANCH   3   4
HETATM    4  C   UNL     1     -11.617  14.504  68.898  1.00  0.00    -0.341 C  
BRANCH   4   5
HETATM    5  C   UNL     1     -11.986  13.213  68.172  1.00  0.00    -0.333 C  
BRANCH   5   6
HETATM    6  C   UNL     1     -11.137  13.031  66.918  1.00  0.00    -0.306 C  
BRANCH   6   7
HETATM    7  C   UNL     1     -10.539  11.628  66.871  1.00  0.00    -0.276 C  
BRANCH   7   8
HETATM    8  C   UNL     1     -10.315  11.183  65.430  1.00  0.00    -0.331 C  
BRANCH   8   9
HETATM    9  C   UNL     1      -8.852  10.818  65.200  1.00  0.00    -0.199 C  
BRANCH   9  10
HETATM   10  C   UNL     1      -8.135  10.596  66.526  1.00  0.00    -0.140 C  
BRANCH  10  11
HETATM   11  C   UNL     1      -7.211   9.384  66.452  1.00  0.00    -0.089 C  
BRANCH  11  12
HETATM   12  C   UNL     1      -7.574   8.365  67.527  1.00  0.00    -0.098 C  
BRANCH  12  13
HETATM   13  C   UNL     1      -8.986   8.599  68.058  1.00  0.00    -0.141 C  
BRANCH  13  14
HETATM   14  C   UNL     1      -9.825   7.330  67.935  1.00  0.00    -0.172 C  
BRANCH  14  15
HETATM   15  C   UNL     1      -9.638   6.670  66.572  1.00  0.00    -0.187 C  
HETATM   16  C   UNL     1      -9.287   5.207  66.703  1.00  0.00    -0.137 C  
HETATM   17  O   UNL     1      -9.121   4.612  65.497  1.00  0.00    -0.135 OA 
HETATM   18  O   UNL     1      -9.160   4.599  67.753  1.00  0.00    -0.110 OA 
ENDBRANCH  14  15
ENDBRANCH  13  14
ENDBRANCH  12  13
ENDBRANCH  11  12
ENDBRANCH  10  11
ENDBRANCH   9  10
ENDBRANCH   8   9
ENDBRANCH   7   8
ENDBRANCH   6   7
ENDBRANCH   5   6
ENDBRANCH   4   5
ENDBRANCH   3   4
ENDBRANCH   2   3
TORSDOF 13
ENDMDL
MODEL      424
REMARK 921   NORMALIZED FREE ENERGY PREDICTED BY IDOCK:   -2.33 KCAL/MOL
REMARK 922        TOTAL FREE ENERGY PREDICTED BY IDOCK:   -5.50 KCAL/MOL
REMARK 923 INTER-LIGAND FREE ENERGY PREDICTED BY IDOCK:   -4.67 KCAL/MOL
REMARK 924 INTRA-LIGAND FREE ENERGY PREDICTED BY IDOCK:   -0.83 KCAL/MOL
REMARK 927      BINDING AFFINITY PREDICTED BY RF-SCORE:    0.00 PKD
ROOT
HETATM    1  C   UNL     1      -5.623   6.709  62.834  1.00  0.00    -0.031 C  
HETATM    2  C   UNL     1      -5.781   8.161  62.416  1.00  0.00    -0.074 C  
ENDROOT
BRANCH   2   3
HETATM    3  C   UNL     1      -5.336   9.106  63.530  1.00  0.00    -0.066 C  
BRANCH   3   4
HETATM    4  C   UNL     1      -6.392  10.174  63.800  1.00  0.00    -0.131 C  
BRANCH   4   5
HETATM    5  C   UNL     1      -7.757   9.538  64.046  1.00  0.00    -0.124 C  
BRANCH   5   6
HETATM    6  C   UNL     1      -8.368  10.046  65.348  1.00  0.00    -0.154 C  
BRANCH   6   7
HETATM    7  C   UNL     1      -9.887   9.908  65.322  1.00  0.00    -0.373 C  
BRANCH   7   8
HETATM    8  C   UNL     1     -10.558  11.254  65.572  1.00  0.00    -0.306 C  
BRANCH   8   9
HETATM    9  C   UNL     1     -11.283  11.737  64.321  1.00  0.00    -0.414 C  
BRANCH   9  10
HETATM   10  C   UNL     1     -12.371  12.742  64.682  1.00  0.00    -0.524 C  
BRANCH  10  11
HETATM   11  C   UNL     1     -11.995  14.145  64.217  1.00  0.00    -0.460 C  
BRANCH  11  12
HETATM   12  C   UNL     1     -11.415  14.957  65.370  1.00  0.00    -0.320 C  
BRANCH  12  13
HETATM   13  C   UNL     1      -9.894  14.848  65.414  1.00  0.00    -0.303 C  
BRANCH  13  14
HETATM   14  C   UNL     1      -9.314  15.810  66.448  1.00  0.00    -0.333 C  
BRANCH  14  15
HETATM   15  C   UNL     1      -9.365  15.211  67.851  1.00  0.00    -0.185 C  
HETATM   16  C   UNL     1     -10.416  15.882  68.706  1.00  0.00    -0.237 C  
HETATM   17  O   UNL     1     -10.470  15.356  69.953  1.00  0.00    -0.276 OA 
HETATM   18  O   UNL     1     -11.145  16.792  68.349  1.00  0.00    -0.357 OA 
ENDBRANCH  14  15
ENDBRANCH  13  14
ENDBRANCH  12  13
ENDBRANCH  11  12
ENDBRANCH  10  11
ENDBRANCH   9  10
ENDBRANCH   8   9
ENDBRANCH   7   8
ENDBRANCH   6   7
ENDBRANCH   5   6
ENDBRANCH   4   5
ENDBRANCH   3   4
ENDBRANCH   2   3
TORSDOF 13
ENDMDL
MODEL      425
REMARK 921   NORMALIZED FREE ENERGY PREDICTED BY IDOCK:   -2.31 KCAL/MOL
REMARK 922        TOTAL FREE ENERGY PREDICTED BY IDOCK:   -5.46 KCAL/MOL
REMARK 923 INTER-LIGAND FREE ENERGY PREDICTED BY IDOCK:   -4.39 KCAL/MOL
REMARK 924 INTRA-LIGAND FREE ENERGY PREDICTED BY IDOCK:   -1.07 KCAL/MOL
REMARK 927      BINDING AFFINITY PREDICTED BY RF-SCORE:    0.00 PKD
ROOT
HETATM    1  C   UNL     1      -7.167  14.726  69.086  1.00  0.00    -0.148 C  
HETATM    2  C   UNL     1      -6.385  14.191  70.273  1.00  0.00    -0.121 C  
ENDROOT
BRANCH   2   3
HETATM    3  C   UNL     1      -5.886  12.772  70.010  1.00  0.00    -0.149 C  
BRANCH   3   4
HETATM    4  C   UNL     1      -6.522  12.190  68.750  1.00  0.00    -0.078 C  
BRANCH   4   5
HETATM    5  C   UNL     1      -7.096  10.803  69.023  1.00  0.00    -0.091 C  
BRANCH   5   6
HETATM    6  C   UNL     1      -8.499  10.669  68.440  1.00  0.00    -0.132 C  
BRANCH   6   7
HETATM    7  C   UNL     1      -8.737   9.253  67.926  1.00  0.00    -0.124 C  
BRANCH   7   8
HETATM    8  C   UNL     1      -8.098   9.061  66.555  1.00  0.00    -0.111 C  
BRANCH   8   9
HETATM    9  C   UNL     1      -8.394  10.251  65.649  1.00  0.00    -0.159 C  
BRANCH   9  10
HETATM   10  C   UNL     1      -9.770  10.114  65.009  1.00  0.00    -0.384 C  
BRANCH  10  11
HETATM   11  C   UNL     1     -10.702  11.231  65.467  1.00  0.00    -0.283 C  
BRANCH  11  12
HETATM   12  C   UNL     1     -11.357  11.911  64.270  1.00  0.00    -0.425 C  
BRANCH  12  13
HETATM   13  C   UNL     1     -12.496  12.827  64.708  1.00  0.00    -0.539 C  
BRANCH  13  14
HETATM   14  C   UNL     1     -12.029  13.784  65.802  1.00  0.00    -0.423 C  
BRANCH  14  15
HETATM   15  C   UNL     1     -10.899  14.682  65.306  1.00  0.00    -0.387 C  
HETATM   16  C   UNL     1     -10.058  15.203  66.448  1.00  0.00    -0.273 C  
HETATM   17  O   UNL     1      -9.051  16.000  66.018  1.00  0.00    -0.331 OA 
HETATM   18  O   UNL     1     -10.235  14.956  67.630  1.00  0.00    -0.234 OA 
ENDBRANCH  14  15
ENDBRANCH  13  14
ENDBRANCH  12  13
ENDBRANCH  11  12
ENDBRANCH  10  11
ENDBRANCH   9  10
ENDBRANCH   8   9
ENDBRANCH   7   8
ENDBRANCH   6   7
ENDBRANCH   5   6
ENDBRANCH   4   5
ENDBRANCH   3   4
ENDBRANCH   2   3
TORSDOF 13
ENDMDL
MODEL      426
REMARK 921   NORMALIZED FREE ENERGY PREDICTED BY IDOCK:   -2.30 KCAL/MOL
REMARK 922        TOTAL FREE ENERGY PREDICTED BY IDOCK:   -5.46 KCAL/MOL
REMARK 923 INTER-LIGAND FREE ENERGY PREDICTED BY IDOCK:   -4.27 KCAL/MOL
REMARK 924 INTRA-LIGAND FREE ENERGY PREDICTED BY IDOCK:   -1.19 KCAL/MOL
REMARK 927      BINDING AFFINITY PREDICTED BY RF-SCORE:    0.00 PKD
ROOT
HETATM    1  C   UNL     1     -12.080   6.640  71.751  1.00  0.00    -0.400 C  
HETATM    2  C   UNL     1     -10.633   7.097  71.671  1.00  0.00    -0.229 C  
ENDROOT
BRANCH   2   3
HETATM    3  C   UNL     1      -9.906   6.422  70.510  1.00  0.00    -0.207 C  
BRANCH   3   4
HETATM    4  C   UNL     1     -10.891   5.946  69.446  1.00  0.00    -0.422 C  
BRANCH   4   5
HETATM    5  C   UNL     1     -10.829   6.840  68.210  1.00  0.00    -0.290 C  
BRANCH   5   6
HETATM    6  C   UNL     1      -9.517   7.617  68.165  1.00  0.00    -0.150 C  
BRANCH   6   7
HETATM    7  C   UNL     1      -8.498   6.902  67.283  1.00  0.00    -0.121 C  
BRANCH   7   8
HETATM    8  C   UNL     1      -8.934   6.924  65.823  1.00  0.00    -0.038 C  
BRANCH   8   9
HETATM    9  C   UNL     1      -7.756   7.251  64.912  1.00  0.00    -0.117 C  
BRANCH   9  10
HETATM   10  C   UNL     1      -7.096   8.560  65.332  1.00  0.00    -0.082 C  
BRANCH  10  11
HETATM   11  C   UNL     1      -8.050   9.736  65.150  1.00  0.00    -0.132 C  
BRANCH  11  12
HETATM   12  C   UNL     1      -7.801  10.429  63.814  1.00  0.00    -0.065 C  
BRANCH  12  13
HETATM   13  C   UNL     1      -9.063  11.121  63.306  1.00  0.00    -0.196 C  
BRANCH  13  14
HETATM   14  C   UNL     1     -10.284  10.669  64.103  1.00  0.00    -0.365 C  
BRANCH  14  15
HETATM   15  C   UNL     1     -11.201  11.845  64.427  1.00  0.00    -0.401 C  
HETATM   16  C   UNL     1     -11.512  11.920  65.904  1.00  0.00    -0.278 C  
HETATM   17  O   UNL     1     -12.324  12.962  66.202  1.00  0.00    -0.495 OA 
HETATM   18  O   UNL     1     -11.100  11.149  66.755  1.00  0.00    -0.278 OA 
ENDBRANCH  14  15
ENDBRANCH  13  14
ENDBRANCH  12  13
ENDBRANCH  11  12
ENDBRANCH  10  11
ENDBRANCH   9  10
ENDBRANCH   8   9
ENDBRANCH   7   8
ENDBRANCH   6   7
ENDBRANCH   5   6
ENDBRANCH   4   5
ENDBRANCH   3   4
ENDBRANCH   2   3
TORSDOF 13
ENDMDL
MODEL      427
REMARK 921   NORMALIZED FREE ENERGY PREDICTED BY IDOCK:   -2.30 KCAL/MOL
REMARK 922        TOTAL FREE ENERGY PREDICTED BY IDOCK:   -5.46 KCAL/MOL
REMARK 923 INTER-LIGAND FREE ENERGY PREDICTED BY IDOCK:   -4.09 KCAL/MOL
REMARK 924 INTRA-LIGAND FREE ENERGY PREDICTED BY IDOCK:   -1.37 KCAL/MOL
REMARK 927      BINDING AFFINITY PREDICTED BY RF-SCORE:    0.00 PKD
ROOT
HETATM    1  C   UNL     1      -6.597  14.724  69.150  1.00  0.00    -0.114 C  
HETATM    2  C   UNL     1      -5.905  14.434  70.471  1.00  0.00    -0.170 C  
ENDROOT
BRANCH   2   3
HETATM    3  C   UNL     1      -5.750  12.932  70.693  1.00  0.00    -0.163 C  
BRANCH   3   4
HETATM    4  C   UNL     1      -6.218  12.144  69.473  1.00  0.00    -0.124 C  
BRANCH   4   5
HETATM    5  C   UNL     1      -6.865  10.827  69.894  1.00  0.00    -0.146 C  
BRANCH   5   6
HETATM    6  C   UNL     1      -7.900  10.376  68.868  1.00  0.00    -0.115 C  
BRANCH   6   7
HETATM    7  C   UNL     1      -7.831  11.243  67.615  1.00  0.00    -0.116 C  
BRANCH   7   8
HETATM    8  C   UNL     1      -9.200  11.350  66.953  1.00  0.00    -0.183 C  
BRANCH   8   9
HETATM    9  C   UNL     1     -10.124  10.240  67.444  1.00  0.00    -0.246 C  
BRANCH   9  10
HETATM   10  C   UNL     1     -10.286   9.162  66.378  1.00  0.00    -0.235 C  
BRANCH  10  11
HETATM   11  C   UNL     1      -9.741   7.824  66.867  1.00  0.00    -0.282 C  
BRANCH  11  12
HETATM   12  C   UNL     1     -10.868   6.809  67.024  1.00  0.00    -0.453 C  
BRANCH  12  13
HETATM   13  C   UNL     1     -10.974   6.319  68.466  1.00  0.00    -0.421 C  
BRANCH  13  14
HETATM   14  C   UNL     1     -10.045   7.119  69.377  1.00  0.00    -0.178 C  
BRANCH  14  15
HETATM   15  C   UNL     1     -10.428   6.950  70.844  1.00  0.00    -0.233 C  
HETATM   16  C   UNL     1     -11.348   8.054  71.312  1.00  0.00    -0.264 C  
HETATM   17  O   UNL     1     -11.695   7.913  72.613  1.00  0.00    -0.370 OA 
HETATM   18  O   UNL     1     -11.750   8.981  70.627  1.00  0.00    -0.272 OA 
ENDBRANCH  14  15
ENDBRANCH  13  14
ENDBRANCH  12  13
ENDBRANCH  11  12
ENDBRANCH  10  11
ENDBRANCH   9  10
ENDBRANCH   8   9
ENDBRANCH   7   8
ENDBRANCH   6   7
ENDBRANCH   5   6
ENDBRANCH   4   5
ENDBRANCH   3   4
ENDBRANCH   2   3
TORSDOF 13
ENDMDL
MODEL      428
REMARK 921   NORMALIZED FREE ENERGY PREDICTED BY IDOCK:   -2.30 KCAL/MOL
REMARK 922        TOTAL FREE ENERGY PREDICTED BY IDOCK:   -5.45 KCAL/MOL
REMARK 923 INTER-LIGAND FREE ENERGY PREDICTED BY IDOCK:   -4.41 KCAL/MOL
REMARK 924 INTRA-LIGAND FREE ENERGY PREDICTED BY IDOCK:   -1.04 KCAL/MOL
REMARK 927      BINDING AFFINITY PREDICTED BY RF-SCORE:    0.00 PKD
ROOT
HETATM    1  C   UNL     1     -11.906  14.383  69.312  1.00  0.00    -0.365 C  
HETATM    2  C   UNL     1     -11.009  13.703  68.292  1.00  0.00    -0.275 C  
ENDROOT
BRANCH   2   3
HETATM    3  C   UNL     1     -11.813  13.215  67.090  1.00  0.00    -0.424 C  
BRANCH   3   4
HETATM    4  C   UNL     1     -11.614  11.719  66.864  1.00  0.00    -0.310 C  
BRANCH   4   5
HETATM    5  C   UNL     1     -10.186  11.304  67.208  1.00  0.00    -0.226 C  
BRANCH   5   6
HETATM    6  C   UNL     1      -9.692  10.216  66.261  1.00  0.00    -0.274 C  
BRANCH   6   7
HETATM    7  C   UNL     1      -8.168  10.223  66.178  1.00  0.00    -0.138 C  
BRANCH   7   8
HETATM    8  C   UNL     1      -7.556   9.535  67.392  1.00  0.00    -0.095 C  
BRANCH   8   9
HETATM    9  C   UNL     1      -6.866  10.549  68.297  1.00  0.00    -0.068 C  
BRANCH   9  10
HETATM   10  C   UNL     1      -7.331  10.390  69.740  1.00  0.00    -0.157 C  
BRANCH  10  11
HETATM   11  C   UNL     1      -7.110   8.963  70.232  1.00  0.00    -0.049 C  
BRANCH  11  12
HETATM   12  C   UNL     1      -8.028   8.650  71.408  1.00  0.00    -0.174 C  
BRANCH  12  13
HETATM   13  C   UNL     1      -9.396   8.170  70.931  1.00  0.00    -0.173 C  
BRANCH  13  14
HETATM   14  C   UNL     1     -10.460   8.430  71.995  1.00  0.00    -0.384 C  
BRANCH  14  15
HETATM   15  C   UNL     1     -11.764   7.709  71.662  1.00  0.00    -0.313 C  
HETATM   16  C   UNL     1     -12.916   8.676  71.519  1.00  0.00    -0.312 C  
HETATM   17  O   UNL     1     -14.077   8.046  71.222  1.00  0.00    -0.311 OA 
HETATM   18  O   UNL     1     -12.845   9.887  71.650  1.00  0.00    -0.367 OA 
ENDBRANCH  14  15
ENDBRANCH  13  14
ENDBRANCH  12  13
ENDBRANCH  11  12
ENDBRANCH  10  11
ENDBRANCH   9  10
ENDBRANCH   8   9
ENDBRANCH   7   8
ENDBRANCH   6   7
ENDBRANCH   5   6
ENDBRANCH   4   5
ENDBRANCH   3   4
ENDBRANCH   2   3
TORSDOF 13
ENDMDL
MODEL      429
REMARK 921   NORMALIZED FREE ENERGY PREDICTED BY IDOCK:   -2.30 KCAL/MOL
REMARK 922        TOTAL FREE ENERGY PREDICTED BY IDOCK:   -5.45 KCAL/MOL
REMARK 923 INTER-LIGAND FREE ENERGY PREDICTED BY IDOCK:   -4.75 KCAL/MOL
REMARK 924 INTRA-LIGAND FREE ENERGY PREDICTED BY IDOCK:   -0.70 KCAL/MOL
REMARK 927      BINDING AFFINITY PREDICTED BY RF-SCORE:    0.00 PKD
ROOT
HETATM    1  C   UNL     1      -7.028   4.788  72.874  1.00  0.00    -0.076 C  
HETATM    2  C   UNL     1      -8.189   4.655  73.844  1.00  0.00    -0.105 C  
ENDROOT
BRANCH   2   3
HETATM    3  C   UNL     1      -9.455   5.295  73.279  1.00  0.00    -0.148 C  
BRANCH   3   4
HETATM    4  C   UNL     1      -9.527   6.778  73.631  1.00  0.00    -0.204 C  
BRANCH   4   5
HETATM    5  C   UNL     1     -10.751   7.428  72.993  1.00  0.00    -0.413 C  
BRANCH   5   6
HETATM    6  C   UNL     1     -11.149   6.702  71.712  1.00  0.00    -0.287 C  
BRANCH   6   7
HETATM    7  C   UNL     1     -11.289   7.686  70.555  1.00  0.00    -0.266 C  
BRANCH   7   8
HETATM    8  C   UNL     1     -11.762   9.046  71.054  1.00  0.00    -0.353 C  
BRANCH   8   9
HETATM    9  C   UNL     1     -11.016  10.171  70.345  1.00  0.00    -0.386 C  
BRANCH   9  10
HETATM   10  C   UNL     1     -11.983  11.045  69.554  1.00  0.00    -0.413 C  
BRANCH  10  11
HETATM   11  C   UNL     1     -11.834  12.514  69.940  1.00  0.00    -0.373 C  
BRANCH  11  12
HETATM   12  C   UNL     1     -11.685  13.385  68.698  1.00  0.00    -0.384 C  
BRANCH  12  13
HETATM   13  C   UNL     1     -11.886  12.569  67.423  1.00  0.00    -0.381 C  
BRANCH  13  14
HETATM   14  C   UNL     1     -10.542  12.219  66.789  1.00  0.00    -0.251 C  
BRANCH  14  15
HETATM   15  C   UNL     1      -9.589  13.410  66.816  1.00  0.00    -0.262 C  
HETATM   16  C   UNL     1      -8.490  13.224  67.836  1.00  0.00    -0.177 C  
HETATM   17  O   UNL     1      -7.639  14.276  67.866  1.00  0.00    -0.122 OA 
HETATM   18  O   UNL     1      -8.356  12.255  68.565  1.00  0.00    -0.151 OA 
ENDBRANCH  14  15
ENDBRANCH  13  14
ENDBRANCH  12  13
ENDBRANCH  11  12
ENDBRANCH  10  11
ENDBRANCH   9  10
ENDBRANCH   8   9
ENDBRANCH   7   8
ENDBRANCH   6   7
ENDBRANCH   5   6
ENDBRANCH   4   5
ENDBRANCH   3   4
ENDBRANCH   2   3
TORSDOF 13
ENDMDL
MODEL      430
REMARK 921   NORMALIZED FREE ENERGY PREDICTED BY IDOCK:   -2.30 KCAL/MOL
REMARK 922        TOTAL FREE ENERGY PREDICTED BY IDOCK:   -5.45 KCAL/MOL
REMARK 923 INTER-LIGAND FREE ENERGY PREDICTED BY IDOCK:   -4.45 KCAL/MOL
REMARK 924 INTRA-LIGAND FREE ENERGY PREDICTED BY IDOCK:   -1.00 KCAL/MOL
REMARK 927      BINDING AFFINITY PREDICTED BY RF-SCORE:    0.00 PKD
ROOT
HETATM    1  C   UNL     1     -11.906  15.924  71.641  1.00  0.00    -0.565 C  
HETATM    2  C   UNL     1     -10.986  15.434  70.535  1.00  0.00    -0.350 C  
ENDROOT
BRANCH   2   3
HETATM    3  C   UNL     1     -11.334  16.089  69.200  1.00  0.00    -0.352 C  
BRANCH   3   4
HETATM    4  C   UNL     1     -11.007  15.163  68.032  1.00  0.00    -0.295 C  
BRANCH   4   5
HETATM    5  C   UNL     1     -12.000  14.006  67.963  1.00  0.00    -0.386 C  
BRANCH   5   6
HETATM    6  C   UNL     1     -11.281  12.664  68.055  1.00  0.00    -0.308 C  
BRANCH   6   7
HETATM    7  C   UNL     1      -9.774  12.866  68.172  1.00  0.00    -0.227 C  
BRANCH   7   8
HETATM    8  C   UNL     1      -9.105  11.629  68.759  1.00  0.00    -0.029 C  
BRANCH   8   9
HETATM    9  C   UNL     1     -10.083  10.460  68.812  1.00  0.00    -0.198 C  
BRANCH   9  10
HETATM   10  C   UNL     1      -9.938   9.694  70.121  1.00  0.00    -0.309 C  
BRANCH  10  11
HETATM   11  C   UNL     1     -10.078   8.191  69.894  1.00  0.00    -0.195 C  
BRANCH  11  12
HETATM   12  C   UNL     1     -10.375   7.894  68.429  1.00  0.00    -0.235 C  
BRANCH  12  13
HETATM   13  C   UNL     1     -11.117   6.569  68.272  1.00  0.00    -0.332 C  
BRANCH  13  14
HETATM   14  C   UNL     1     -10.291   5.581  67.453  1.00  0.00    -0.279 C  
BRANCH  14  15
HETATM   15  C   UNL     1      -8.803   5.709  67.767  1.00  0.00    -0.105 C  
HETATM   16  C   UNL     1      -7.958   5.608  66.518  1.00  0.00    -0.101 C  
HETATM   17  O   UNL     1      -6.636   5.722  66.786  1.00  0.00    -0.052 OA 
HETATM   18  O   UNL     1      -8.383   5.443  65.386  1.00  0.00    -0.126 OA 
ENDBRANCH  14  15
ENDBRANCH  13  14
ENDBRANCH  12  13
ENDBRANCH  11  12
ENDBRANCH  10  11
ENDBRANCH   9  10
ENDBRANCH   8   9
ENDBRANCH   7   8
ENDBRANCH   6   7
ENDBRANCH   5   6
ENDBRANCH   4   5
ENDBRANCH   3   4
ENDBRANCH   2   3
TORSDOF 13
ENDMDL
MODEL      431
REMARK 921   NORMALIZED FREE ENERGY PREDICTED BY IDOCK:   -2.29 KCAL/MOL
REMARK 922        TOTAL FREE ENERGY PREDICTED BY IDOCK:   -5.44 KCAL/MOL
REMARK 923 INTER-LIGAND FREE ENERGY PREDICTED BY IDOCK:   -4.52 KCAL/MOL
REMARK 924 INTRA-LIGAND FREE ENERGY PREDICTED BY IDOCK:   -0.92 KCAL/MOL
REMARK 927      BINDING AFFINITY PREDICTED BY RF-SCORE:    0.00 PKD
ROOT
HETATM    1  C   UNL     1     -10.184  10.762  63.985  1.00  0.00    -0.390 C  
HETATM    2  C   UNL     1     -10.572  12.027  64.733  1.00  0.00    -0.340 C  
ENDROOT
BRANCH   2   3
HETATM    3  C   UNL     1      -9.921  12.072  66.113  1.00  0.00    -0.254 C  
BRANCH   3   4
HETATM    4  C   UNL     1     -10.968  12.241  67.210  1.00  0.00    -0.301 C  
BRANCH   4   5
HETATM    5  C   UNL     1     -10.610  13.408  68.127  1.00  0.00    -0.255 C  
BRANCH   5   6
HETATM    6  C   UNL     1      -9.146  13.341  68.548  1.00  0.00    -0.064 C  
BRANCH   6   7
HETATM    7  C   UNL     1      -8.600  14.738  68.825  1.00  0.00    -0.170 C  
BRANCH   7   8
HETATM    8  C   UNL     1      -9.586  15.549  69.658  1.00  0.00    -0.264 C  
BRANCH   8   9
HETATM    9  C   UNL     1      -9.760  16.948  69.077  1.00  0.00    -0.231 C  
BRANCH   9  10
HETATM   10  C   UNL     1      -8.510  17.378  68.319  1.00  0.00    -0.249 C  
BRANCH  10  11
HETATM   11  C   UNL     1      -8.874  18.184  67.075  1.00  0.00    -0.265 C  
BRANCH  11  12
HETATM   12  C   UNL     1      -7.862  17.940  65.961  1.00  0.00    -0.189 C  
BRANCH  12  13
HETATM   13  C   UNL     1      -6.543  17.412  66.517  1.00  0.00    -0.282 C  
BRANCH  13  14
HETATM   14  C   UNL     1      -5.374  18.273  66.042  1.00  0.00    -0.206 C  
BRANCH  14  15
HETATM   15  C   UNL     1      -5.740  19.058  64.786  1.00  0.00    -0.304 C  
HETATM   16  C   UNL     1      -6.016  20.511  65.096  1.00  0.00    -0.239 C  
HETATM   17  O   UNL     1      -6.339  21.217  63.987  1.00  0.00    -0.293 OA 
HETATM   18  O   UNL     1      -5.963  21.022  66.203  1.00  0.00    -0.229 OA 
ENDBRANCH  14  15
ENDBRANCH  13  14
ENDBRANCH  12  13
ENDBRANCH  11  12
ENDBRANCH  10  11
ENDBRANCH   9  10
ENDBRANCH   8   9
ENDBRANCH   7   8
ENDBRANCH   6   7
ENDBRANCH   5   6
ENDBRANCH   4   5
ENDBRANCH   3   4
ENDBRANCH   2   3
TORSDOF 13
ENDMDL
MODEL      432
REMARK 921   NORMALIZED FREE ENERGY PREDICTED BY IDOCK:   -2.29 KCAL/MOL
REMARK 922        TOTAL FREE ENERGY PREDICTED BY IDOCK:   -5.44 KCAL/MOL
REMARK 923 INTER-LIGAND FREE ENERGY PREDICTED BY IDOCK:   -4.51 KCAL/MOL
REMARK 924 INTRA-LIGAND FREE ENERGY PREDICTED BY IDOCK:   -0.93 KCAL/MOL
REMARK 927      BINDING AFFINITY PREDICTED BY RF-SCORE:    0.00 PKD
ROOT
HETATM    1  C   UNL     1     -14.411   7.330  71.456  1.00  0.00    -0.558 C  
HETATM    2  C   UNL     1     -14.300   8.682  72.139  1.00  0.00    -0.518 C  
ENDROOT
BRANCH   2   3
HETATM    3  C   UNL     1     -12.976   9.363  71.800  1.00  0.00    -0.484 C  
BRANCH   3   4
HETATM    4  C   UNL     1     -13.129  10.881  71.772  1.00  0.00    -0.564 C  
BRANCH   4   5
HETATM    5  C   UNL     1     -12.234  11.497  70.700  1.00  0.00    -0.473 C  
BRANCH   5   6
HETATM    6  C   UNL     1     -11.337  10.439  70.066  1.00  0.00    -0.384 C  
BRANCH   6   7
HETATM    7  C   UNL     1     -11.260  10.634  68.555  1.00  0.00    -0.342 C  
BRANCH   7   8
HETATM    8  C   UNL     1     -10.732   9.377  67.873  1.00  0.00    -0.269 C  
BRANCH   8   9
HETATM    9  C   UNL     1      -9.262   9.540  67.502  1.00  0.00    -0.142 C  
BRANCH   9  10
HETATM   10  C   UNL     1      -8.492   8.252  67.768  1.00  0.00    -0.131 C  
BRANCH  10  11
HETATM   11  C   UNL     1      -7.347   8.490  68.748  1.00  0.00    -0.090 C  
BRANCH  11  12
HETATM   12  C   UNL     1      -7.241   7.339  69.743  1.00  0.00    -0.082 C  
BRANCH  12  13
HETATM   13  C   UNL     1      -6.287   7.680  70.884  1.00  0.00    -0.038 C  
BRANCH  13  14
HETATM   14  C   UNL     1      -7.029   7.707  72.218  1.00  0.00    -0.066 C  
BRANCH  14  15
HETATM   15  C   UNL     1      -6.700   6.479  73.061  1.00  0.00    -0.069 C  
HETATM   16  C   UNL     1      -7.787   5.434  72.975  1.00  0.00    -0.098 C  
HETATM   17  O   UNL     1      -7.503   4.339  73.718  1.00  0.00    -0.074 OA 
HETATM   18  O   UNL     1      -8.814   5.531  72.323  1.00  0.00    -0.132 OA 
ENDBRANCH  14  15
ENDBRANCH  13  14
ENDBRANCH  12  13
ENDBRANCH  11  12
ENDBRANCH  10  11
ENDBRANCH   9  10
ENDBRANCH   8   9
ENDBRANCH   7   8
ENDBRANCH   6   7
ENDBRANCH   5   6
ENDBRANCH   4   5
ENDBRANCH   3   4
ENDBRANCH   2   3
TORSDOF 13
ENDMDL
MODEL      433
REMARK 921   NORMALIZED FREE ENERGY PREDICTED BY IDOCK:   -2.29 KCAL/MOL
REMARK 922        TOTAL FREE ENERGY PREDICTED BY IDOCK:   -5.44 KCAL/MOL
REMARK 923 INTER-LIGAND FREE ENERGY PREDICTED BY IDOCK:   -4.11 KCAL/MOL
REMARK 924 INTRA-LIGAND FREE ENERGY PREDICTED BY IDOCK:   -1.33 KCAL/MOL
REMARK 927      BINDING AFFINITY PREDICTED BY RF-SCORE:    0.00 PKD
ROOT
HETATM    1  C   UNL     1      -9.043   4.543  67.346  1.00  0.00    -0.141 C  
HETATM    2  C   UNL     1     -10.214   4.998  66.491  1.00  0.00    -0.307 C  
ENDROOT
BRANCH   2   3
HETATM    3  C   UNL     1     -11.050   6.050  67.216  1.00  0.00    -0.247 C  
BRANCH   3   4
HETATM    4  C   UNL     1     -10.206   7.267  67.583  1.00  0.00    -0.257 C  
BRANCH   4   5
HETATM    5  C   UNL     1      -9.861   8.082  66.340  1.00  0.00    -0.237 C  
BRANCH   5   6
HETATM    6  C   UNL     1      -8.506   8.765  66.494  1.00  0.00    -0.120 C  
BRANCH   6   7
HETATM    7  C   UNL     1      -8.603  10.244  66.134  1.00  0.00    -0.146 C  
BRANCH   7   8
HETATM    8  C   UNL     1      -8.315  11.118  67.350  1.00  0.00    -0.135 C  
BRANCH   8   9
HETATM    9  C   UNL     1      -9.237  10.751  68.508  1.00  0.00    -0.174 C  
BRANCH   9  10
HETATM   10  C   UNL     1     -10.491  11.618  68.496  1.00  0.00    -0.236 C  
BRANCH  10  11
HETATM   11  C   UNL     1     -11.747  10.762  68.365  1.00  0.00    -0.232 C  
BRANCH  11  12
HETATM   12  C   UNL     1     -12.500  10.706  69.690  1.00  0.00    -0.121 C  
BRANCH  12  13
HETATM   13  C   UNL     1     -11.579  10.288  70.833  1.00  0.00    -0.454 C  
BRANCH  13  14
HETATM   14  C   UNL     1     -12.186   9.128  71.618  1.00  0.00    -0.433 C  
BRANCH  14  15
HETATM   15  C   UNL     1     -11.754   7.782  71.042  1.00  0.00    -0.299 C  
HETATM   16  C   UNL     1     -10.342   7.428  71.450  1.00  0.00    -0.194 C  
HETATM   17  O   UNL     1      -9.950   6.235  70.945  1.00  0.00    -0.183 OA 
HETATM   18  O   UNL     1      -9.613   8.112  72.149  1.00  0.00    -0.195 OA 
ENDBRANCH  14  15
ENDBRANCH  13  14
ENDBRANCH  12  13
ENDBRANCH  11  12
ENDBRANCH  10  11
ENDBRANCH   9  10
ENDBRANCH   8   9
ENDBRANCH   7   8
ENDBRANCH   6   7
ENDBRANCH   5   6
ENDBRANCH   4   5
ENDBRANCH   3   4
ENDBRANCH   2   3
TORSDOF 13
ENDMDL
MODEL      434
REMARK 921   NORMALIZED FREE ENERGY PREDICTED BY IDOCK:   -2.28 KCAL/MOL
REMARK 922        TOTAL FREE ENERGY PREDICTED BY IDOCK:   -5.43 KCAL/MOL
REMARK 923 INTER-LIGAND FREE ENERGY PREDICTED BY IDOCK:   -4.50 KCAL/MOL
REMARK 924 INTRA-LIGAND FREE ENERGY PREDICTED BY IDOCK:   -0.92 KCAL/MOL
REMARK 927      BINDING AFFINITY PREDICTED BY RF-SCORE:    0.00 PKD
ROOT
HETATM    1  C   UNL     1      -7.220   6.582  74.125  1.00  0.00    -0.088 C  
HETATM    2  C   UNL     1      -7.363   7.584  72.992  1.00  0.00    -0.090 C  
ENDROOT
BRANCH   2   3
HETATM    3  C   UNL     1      -8.788   7.597  72.445  1.00  0.00    -0.176 C  
BRANCH   3   4
HETATM    4  C   UNL     1      -9.022   8.810  71.548  1.00  0.00    -0.306 C  
BRANCH   4   5
HETATM    5  C   UNL     1      -8.890   8.430  70.076  1.00  0.00    -0.137 C  
BRANCH   5   6
HETATM    6  C   UNL     1      -7.907   9.352  69.362  1.00  0.00    -0.087 C  
BRANCH   6   7
HETATM    7  C   UNL     1      -7.811   8.995  67.882  1.00  0.00    -0.101 C  
BRANCH   7   8
HETATM    8  C   UNL     1      -9.195   8.735  67.297  1.00  0.00    -0.165 C  
BRANCH   8   9
HETATM    9  C   UNL     1      -9.314   9.339  65.902  1.00  0.00    -0.297 C  
BRANCH   9  10
HETATM   10  C   UNL     1     -10.425  10.382  65.859  1.00  0.00    -0.196 C  
BRANCH  10  11
HETATM   11  C   UNL     1     -10.022  11.576  65.000  1.00  0.00    -0.305 C  
BRANCH  11  12
HETATM   12  C   UNL     1     -11.097  11.881  63.962  1.00  0.00    -0.459 C  
BRANCH  12  13
HETATM   13  C   UNL     1     -12.255  12.662  64.578  1.00  0.00    -0.514 C  
BRANCH  13  14
HETATM   14  C   UNL     1     -11.733  13.824  65.421  1.00  0.00    -0.346 C  
BRANCH  14  15
HETATM   15  C   UNL     1     -12.405  13.860  66.790  1.00  0.00    -0.370 C  
HETATM   16  C   UNL     1     -11.397  13.756  67.910  1.00  0.00    -0.299 C  
HETATM   17  O   UNL     1     -11.983  13.789  69.130  1.00  0.00    -0.331 OA 
HETATM   18  O   UNL     1     -10.189  13.652  67.770  1.00  0.00    -0.234 OA 
ENDBRANCH  14  15
ENDBRANCH  13  14
ENDBRANCH  12  13
ENDBRANCH  11  12
ENDBRANCH  10  11
ENDBRANCH   9  10
ENDBRANCH   8   9
ENDBRANCH   7   8
ENDBRANCH   6   7
ENDBRANCH   5   6
ENDBRANCH   4   5
ENDBRANCH   3   4
ENDBRANCH   2   3
TORSDOF 13
ENDMDL
MODEL      435
REMARK 921   NORMALIZED FREE ENERGY PREDICTED BY IDOCK:   -2.28 KCAL/MOL
REMARK 922        TOTAL FREE ENERGY PREDICTED BY IDOCK:   -5.42 KCAL/MOL
REMARK 923 INTER-LIGAND FREE ENERGY PREDICTED BY IDOCK:   -3.65 KCAL/MOL
REMARK 924 INTRA-LIGAND FREE ENERGY PREDICTED BY IDOCK:   -1.77 KCAL/MOL
REMARK 927      BINDING AFFINITY PREDICTED BY RF-SCORE:    0.00 PKD
ROOT
HETATM    1  C   UNL     1     -12.144  13.836  70.395  1.00  0.00    -0.421 C  
HETATM    2  C   UNL     1     -11.920  13.082  69.096  1.00  0.00    -0.320 C  
ENDROOT
BRANCH   2   3
HETATM    3  C   UNL     1     -11.926  11.573  69.327  1.00  0.00    -0.397 C  
BRANCH   3   4
HETATM    4  C   UNL     1     -11.470  10.822  68.079  1.00  0.00    -0.333 C  
BRANCH   4   5
HETATM    5  C   UNL     1     -11.048  11.798  66.984  1.00  0.00    -0.358 C  
BRANCH   5   6
HETATM    6  C   UNL     1      -9.565  11.645  66.660  1.00  0.00    -0.220 C  
BRANCH   6   7
HETATM    7  C   UNL     1      -8.897  13.010  66.532  1.00  0.00    -0.009 C  
BRANCH   7   8
HETATM    8  C   UNL     1      -7.766  13.156  67.544  1.00  0.00    -0.168 C  
BRANCH   8   9
HETATM    9  C   UNL     1      -8.002  12.256  68.752  1.00  0.00     0.025 C  
BRANCH   9  10
HETATM   10  C   UNL     1      -6.707  11.579  69.183  1.00  0.00    -0.108 C  
BRANCH  10  11
HETATM   11  C   UNL     1      -6.988  10.381  70.084  1.00  0.00    -0.146 C  
BRANCH  11  12
HETATM   12  C   UNL     1      -8.427   9.906  69.913  1.00  0.00    -0.210 C  
BRANCH  12  13
HETATM   13  C   UNL     1      -8.597   8.468  70.396  1.00  0.00    -0.146 C  
BRANCH  13  14
HETATM   14  C   UNL     1      -8.509   7.492  69.225  1.00  0.00    -0.136 C  
BRANCH  14  15
HETATM   15  C   UNL     1      -9.859   7.334  68.533  1.00  0.00    -0.159 C  
HETATM   16  C   UNL     1      -9.735   6.572  67.234  1.00  0.00    -0.132 C  
HETATM   17  O   UNL     1     -10.929   6.425  66.613  1.00  0.00    -0.304 OA 
HETATM   18  O   UNL     1      -8.699   6.127  66.769  1.00  0.00    -0.113 OA 
ENDBRANCH  14  15
ENDBRANCH  13  14
ENDBRANCH  12  13
ENDBRANCH  11  12
ENDBRANCH  10  11
ENDBRANCH   9  10
ENDBRANCH   8   9
ENDBRANCH   7   8
ENDBRANCH   6   7
ENDBRANCH   5   6
ENDBRANCH   4   5
ENDBRANCH   3   4
ENDBRANCH   2   3
TORSDOF 13
ENDMDL
MODEL      436
REMARK 921   NORMALIZED FREE ENERGY PREDICTED BY IDOCK:   -2.28 KCAL/MOL
REMARK 922        TOTAL FREE ENERGY PREDICTED BY IDOCK:   -5.41 KCAL/MOL
REMARK 923 INTER-LIGAND FREE ENERGY PREDICTED BY IDOCK:   -4.28 KCAL/MOL
REMARK 924 INTRA-LIGAND FREE ENERGY PREDICTED BY IDOCK:   -1.13 KCAL/MOL
REMARK 927      BINDING AFFINITY PREDICTED BY RF-SCORE:    0.00 PKD
ROOT
HETATM    1  C   UNL     1     -11.249  13.857  68.425  1.00  0.00    -0.291 C  
HETATM    2  C   UNL     1     -10.278  13.300  67.398  1.00  0.00    -0.229 C  
ENDROOT
BRANCH   2   3
HETATM    3  C   UNL     1      -9.227  12.411  68.059  1.00  0.00    -0.203 C  
BRANCH   3   4
HETATM    4  C   UNL     1      -8.424  11.639  67.016  1.00  0.00    -0.168 C  
BRANCH   4   5
HETATM    5  C   UNL     1      -8.014  10.270  67.551  1.00  0.00    -0.106 C  
BRANCH   5   6
HETATM    6  C   UNL     1      -8.337   9.172  66.542  1.00  0.00    -0.119 C  
BRANCH   6   7
HETATM    7  C   UNL     1      -9.836   9.113  66.270  1.00  0.00    -0.359 C  
BRANCH   7   8
HETATM    8  C   UNL     1     -10.600   8.723  67.530  1.00  0.00    -0.298 C  
BRANCH   8   9
HETATM    9  C   UNL     1     -10.539   7.216  67.755  1.00  0.00    -0.293 C  
BRANCH   9  10
HETATM   10  C   UNL     1     -10.252   6.900  69.218  1.00  0.00    -0.197 C  
BRANCH  10  11
HETATM   11  C   UNL     1     -11.547   6.677  69.994  1.00  0.00    -0.423 C  
BRANCH  11  12
HETATM   12  C   UNL     1     -11.631   7.626  71.185  1.00  0.00    -0.301 C  
BRANCH  12  13
HETATM   13  C   UNL     1     -10.987   7.015  72.426  1.00  0.00    -0.282 C  
BRANCH  13  14
HETATM   14  C   UNL     1     -11.531   5.612  72.681  1.00  0.00    -0.339 C  
BRANCH  14  15
HETATM   15  C   UNL     1     -10.477   4.717  73.325  1.00  0.00    -0.260 C  
HETATM   16  C   UNL     1      -9.755   3.875  72.298  1.00  0.00    -0.154 C  
HETATM   17  O   UNL     1      -8.816   3.079  72.860  1.00  0.00    -0.082 OA 
HETATM   18  O   UNL     1      -9.968   3.886  71.097  1.00  0.00    -0.177 OA 
ENDBRANCH  14  15
ENDBRANCH  13  14
ENDBRANCH  12  13
ENDBRANCH  11  12
ENDBRANCH  10  11
ENDBRANCH   9  10
ENDBRANCH   8   9
ENDBRANCH   7   8
ENDBRANCH   6   7
ENDBRANCH   5   6
ENDBRANCH   4   5
ENDBRANCH   3   4
ENDBRANCH   2   3
TORSDOF 13
ENDMDL
MODEL      437
REMARK 921   NORMALIZED FREE ENERGY PREDICTED BY IDOCK:   -2.24 KCAL/MOL
REMARK 922        TOTAL FREE ENERGY PREDICTED BY IDOCK:   -5.35 KCAL/MOL
REMARK 923 INTER-LIGAND FREE ENERGY PREDICTED BY IDOCK:   -3.95 KCAL/MOL
REMARK 924 INTRA-LIGAND FREE ENERGY PREDICTED BY IDOCK:   -1.41 KCAL/MOL
REMARK 927      BINDING AFFINITY PREDICTED BY RF-SCORE:    0.00 PKD
ROOT
HETATM    1  C   UNL     1      -5.793  16.911  69.119  1.00  0.00    -0.164 C  
HETATM    2  C   UNL     1      -7.299  17.107  69.129  1.00  0.00    -0.172 C  
ENDROOT
BRANCH   2   3
HETATM    3  C   UNL     1      -7.918  16.688  67.797  1.00  0.00    -0.182 C  
BRANCH   3   4
HETATM    4  C   UNL     1      -7.224  15.452  67.233  1.00  0.00    -0.229 C  
BRANCH   4   5
HETATM    5  C   UNL     1      -8.060  14.199  67.480  1.00  0.00    -0.199 C  
BRANCH   5   6
HETATM    6  C   UNL     1      -7.606  13.484  68.749  1.00  0.00    -0.066 C  
BRANCH   6   7
HETATM    7  C   UNL     1      -7.309  12.015  68.463  1.00  0.00    -0.111 C  
BRANCH   7   8
HETATM    8  C   UNL     1      -7.475  11.708  66.979  1.00  0.00    -0.150 C  
BRANCH   8   9
HETATM    9  C   UNL     1      -8.447  10.551  66.772  1.00  0.00    -0.127 C  
BRANCH   9  10
HETATM   10  C   UNL     1      -9.326  10.358  68.002  1.00  0.00    -0.145 C  
BRANCH  10  11
HETATM   11  C   UNL     1     -10.769  10.763  67.713  1.00  0.00    -0.296 C  
BRANCH  11  12
HETATM   12  C   UNL     1     -11.601  10.737  68.991  1.00  0.00    -0.370 C  
BRANCH  12  13
HETATM   13  C   UNL     1     -12.259  12.089  69.250  1.00  0.00    -0.135 C  
BRANCH  13  14
HETATM   14  C   UNL     1     -11.202  13.176  69.436  1.00  0.00    -0.210 C  
BRANCH  14  15
HETATM   15  C   UNL     1     -11.830  14.567  69.426  1.00  0.00    -0.367 C  
HETATM   16  C   UNL     1     -12.591  14.844  70.701  1.00  0.00    -0.363 C  
HETATM   17  O   UNL     1     -13.151  16.077  70.703  1.00  0.00    -0.338 OA 
HETATM   18  O   UNL     1     -12.710  14.072  71.639  1.00  0.00    -0.324 OA 
ENDBRANCH  14  15
ENDBRANCH  13  14
ENDBRANCH  12  13
ENDBRANCH  11  12
ENDBRANCH  10  11
ENDBRANCH   9  10
ENDBRANCH   8   9
ENDBRANCH   7   8
ENDBRANCH   6   7
ENDBRANCH   5   6
ENDBRANCH   4   5
ENDBRANCH   3   4
ENDBRANCH   2   3
TORSDOF 13
ENDMDL
MODEL      438
REMARK 921   NORMALIZED FREE ENERGY PREDICTED BY IDOCK:   -2.23 KCAL/MOL
REMARK 922        TOTAL FREE ENERGY PREDICTED BY IDOCK:   -5.33 KCAL/MOL
REMARK 923 INTER-LIGAND FREE ENERGY PREDICTED BY IDOCK:   -4.41 KCAL/MOL
REMARK 924 INTRA-LIGAND FREE ENERGY PREDICTED BY IDOCK:   -0.91 KCAL/MOL
REMARK 927      BINDING AFFINITY PREDICTED BY RF-SCORE:    0.00 PKD
ROOT
HETATM    1  C   UNL     1      -7.740   4.685  69.874  1.00  0.00    -0.058 C  
HETATM    2  C   UNL     1      -9.038   5.055  70.570  1.00  0.00    -0.180 C  
ENDROOT
BRANCH   2   3
HETATM    3  C   UNL     1     -10.221   4.974  69.608  1.00  0.00    -0.306 C  
BRANCH   3   4
HETATM    4  C   UNL     1      -9.892   5.639  68.274  1.00  0.00    -0.177 C  
BRANCH   4   5
HETATM    5  C   UNL     1     -11.052   6.512  67.803  1.00  0.00    -0.366 C  
BRANCH   5   6
HETATM    6  C   UNL     1     -10.551   7.866  67.311  1.00  0.00    -0.365 C  
BRANCH   6   7
HETATM    7  C   UNL     1      -9.113   7.760  66.813  1.00  0.00    -0.185 C  
BRANCH   7   8
HETATM    8  C   UNL     1      -8.883   8.683  65.622  1.00  0.00    -0.227 C  
BRANCH   8   9
HETATM    9  C   UNL     1      -9.803   9.897  65.694  1.00  0.00    -0.368 C  
BRANCH   9  10
HETATM   10  C   UNL     1     -10.081  10.447  64.300  1.00  0.00    -0.306 C  
BRANCH  10  11
HETATM   11  C   UNL     1      -9.996  11.970  64.286  1.00  0.00    -0.266 C  
BRANCH  11  12
HETATM   12  C   UNL     1     -10.224  12.535  65.684  1.00  0.00    -0.287 C  
BRANCH  12  13
HETATM   13  C   UNL     1     -10.843  13.929  65.624  1.00  0.00    -0.292 C  
BRANCH  13  14
HETATM   14  C   UNL     1      -9.887  14.969  66.204  1.00  0.00    -0.325 C  
BRANCH  14  15
HETATM   15  C   UNL     1      -8.915  14.336  67.195  1.00  0.00    -0.237 C  
HETATM   16  C   UNL     1      -8.398  15.347  68.192  1.00  0.00    -0.145 C  
HETATM   17  O   UNL     1      -7.535  14.795  69.078  1.00  0.00    -0.126 OA 
HETATM   18  O   UNL     1      -8.699  16.529  68.225  1.00  0.00    -0.196 OA 
ENDBRANCH  14  15
ENDBRANCH  13  14
ENDBRANCH  12  13
ENDBRANCH  11  12
ENDBRANCH  10  11
ENDBRANCH   9  10
ENDBRANCH   8   9
ENDBRANCH   7   8
ENDBRANCH   6   7
ENDBRANCH   5   6
ENDBRANCH   4   5
ENDBRANCH   3   4
ENDBRANCH   2   3
TORSDOF 13
ENDMDL
MODEL      439
REMARK 921   NORMALIZED FREE ENERGY PREDICTED BY IDOCK:   -2.20 KCAL/MOL
REMARK 922        TOTAL FREE ENERGY PREDICTED BY IDOCK:   -5.28 KCAL/MOL
REMARK 923 INTER-LIGAND FREE ENERGY PREDICTED BY IDOCK:   -4.88 KCAL/MOL
REMARK 924 INTRA-LIGAND FREE ENERGY PREDICTED BY IDOCK:   -0.39 KCAL/MOL
REMARK 927      BINDING AFFINITY PREDICTED BY RF-SCORE:    0.00 PKD
ROOT
HETATM    1  C   UNL     1     -13.425  14.152  71.798  1.00  0.00    -0.471 C  
HETATM    2  C   UNL     1     -12.833  14.578  70.465  1.00  0.00    -0.361 C  
ENDROOT
BRANCH   2   3
HETATM    3  C   UNL     1     -11.762  13.595  69.999  1.00  0.00    -0.319 C  
BRANCH   3   4
HETATM    4  C   UNL     1     -12.338  12.191  69.833  1.00  0.00    -0.129 C  
BRANCH   4   5
HETATM    5  C   UNL     1     -12.511  11.512  71.189  1.00  0.00    -0.442 C  
BRANCH   5   6
HETATM    6  C   UNL     1     -12.786  10.021  71.020  1.00  0.00    -0.455 C  
BRANCH   6   7
HETATM    7  C   UNL     1     -11.651   9.192  71.613  1.00  0.00    -0.449 C  
BRANCH   7   8
HETATM    8  C   UNL     1     -12.182   7.894  72.208  1.00  0.00    -0.333 C  
BRANCH   8   9
HETATM    9  C   UNL     1     -12.137   6.769  71.179  1.00  0.00    -0.422 C  
BRANCH   9  10
HETATM   10  C   UNL     1     -11.095   7.061  70.105  1.00  0.00    -0.323 C  
BRANCH  10  11
HETATM   11  C   UNL     1     -10.714   5.790  69.353  1.00  0.00    -0.397 C  
BRANCH  11  12
HETATM   12  C   UNL     1      -9.224   5.502  69.504  1.00  0.00    -0.151 C  
BRANCH  12  13
HETATM   13  C   UNL     1      -8.555   6.516  70.428  1.00  0.00    -0.146 C  
BRANCH  13  14
HETATM   14  C   UNL     1      -7.899   5.815  71.614  1.00  0.00    -0.109 C  
BRANCH  14  15
HETATM   15  C   UNL     1      -8.927   5.448  72.680  1.00  0.00    -0.133 C  
HETATM   16  C   UNL     1      -8.607   4.124  73.333  1.00  0.00    -0.092 C  
HETATM   17  O   UNL     1      -9.514   3.790  74.282  1.00  0.00    -0.095 OA 
HETATM   18  O   UNL     1      -7.653   3.412  73.063  1.00  0.00    -0.057 OA 
ENDBRANCH  14  15
ENDBRANCH  13  14
ENDBRANCH  12  13
ENDBRANCH  11  12
ENDBRANCH  10  11
ENDBRANCH   9  10
ENDBRANCH   8   9
ENDBRANCH   7   8
ENDBRANCH   6   7
ENDBRANCH   5   6
ENDBRANCH   4   5
ENDBRANCH   3   4
ENDBRANCH   2   3
TORSDOF 13
ENDMDL
MODEL      440
REMARK 921   NORMALIZED FREE ENERGY PREDICTED BY IDOCK:   -2.18 KCAL/MOL
REMARK 922        TOTAL FREE ENERGY PREDICTED BY IDOCK:   -5.24 KCAL/MOL
REMARK 923 INTER-LIGAND FREE ENERGY PREDICTED BY IDOCK:   -4.24 KCAL/MOL
REMARK 924 INTRA-LIGAND FREE ENERGY PREDICTED BY IDOCK:   -1.00 KCAL/MOL
REMARK 927      BINDING AFFINITY PREDICTED BY RF-SCORE:    0.00 PKD
ROOT
HETATM    1  C   UNL     1     -10.404  18.892  67.274  1.00  0.00    -0.486 C  
HETATM    2  C   UNL     1      -9.850  17.830  68.209  1.00  0.00    -0.340 C  
ENDROOT
BRANCH   2   3
HETATM    3  C   UNL     1     -10.922  16.808  68.578  1.00  0.00    -0.312 C  
BRANCH   3   4
HETATM    4  C   UNL     1     -10.642  16.186  69.943  1.00  0.00    -0.302 C  
BRANCH   4   5
HETATM    5  C   UNL     1     -11.934  15.693  70.590  1.00  0.00    -0.438 C  
BRANCH   5   6
HETATM    6  C   UNL     1     -12.554  14.561  69.778  1.00  0.00    -0.162 C  
BRANCH   6   7
HETATM    7  C   UNL     1     -11.514  13.489  69.467  1.00  0.00    -0.318 C  
BRANCH   7   8
HETATM    8  C   UNL     1     -12.150  12.103  69.462  1.00  0.00    -0.263 C  
BRANCH   8   9
HETATM    9  C   UNL     1     -11.107  11.031  69.164  1.00  0.00    -0.301 C  
BRANCH   9  10
HETATM   10  C   UNL     1      -9.903  11.634  68.450  1.00  0.00    -0.202 C  
BRANCH  10  11
HETATM   11  C   UNL     1      -9.214  10.597  67.568  1.00  0.00    -0.151 C  
BRANCH  11  12
HETATM   12  C   UNL     1      -8.156  11.255  66.689  1.00  0.00    -0.160 C  
BRANCH  12  13
HETATM   13  C   UNL     1      -6.790  11.248  67.370  1.00  0.00    -0.096 C  
BRANCH  13  14
HETATM   14  C   UNL     1      -6.162  12.640  67.334  1.00  0.00    -0.149 C  
BRANCH  14  15
HETATM   15  C   UNL     1      -6.343  13.364  68.664  1.00  0.00    -0.091 C  
HETATM   16  C   UNL     1      -6.849  14.774  68.469  1.00  0.00    -0.107 C  
HETATM   17  O   UNL     1      -7.014  15.425  69.644  1.00  0.00    -0.176 OA 
HETATM   18  O   UNL     1      -7.090  15.298  67.393  1.00  0.00    -0.183 OA 
ENDBRANCH  14  15
ENDBRANCH  13  14
ENDBRANCH  12  13
ENDBRANCH  11  12
ENDBRANCH  10  11
ENDBRANCH   9  10
ENDBRANCH   8   9
ENDBRANCH   7   8
ENDBRANCH   6   7
ENDBRANCH   5   6
ENDBRANCH   4   5
ENDBRANCH   3   4
ENDBRANCH   2   3
TORSDOF 13
ENDMDL
MODEL      441
REMARK 921   NORMALIZED FREE ENERGY PREDICTED BY IDOCK:   -2.17 KCAL/MOL
REMARK 922        TOTAL FREE ENERGY PREDICTED BY IDOCK:   -5.23 KCAL/MOL
REMARK 923 INTER-LIGAND FREE ENERGY PREDICTED BY IDOCK:   -4.02 KCAL/MOL
REMARK 924 INTRA-LIGAND FREE ENERGY PREDICTED BY IDOCK:   -1.21 KCAL/MOL
REMARK 927      BINDING AFFINITY PREDICTED BY RF-SCORE:    0.00 PKD
ROOT
HETATM    1  C   UNL     1      -7.887   7.415  70.333  1.00  0.00    -0.098 C  
HETATM    2  C   UNL     1      -7.252   7.490  71.710  1.00  0.00    -0.063 C  
ENDROOT
BRANCH   2   3
HETATM    3  C   UNL     1      -8.292   7.285  72.809  1.00  0.00    -0.127 C  
BRANCH   3   4
HETATM    4  C   UNL     1      -9.544   6.604  72.261  1.00  0.00    -0.150 C  
BRANCH   4   5
HETATM    5  C   UNL     1     -10.800   7.372  72.664  1.00  0.00    -0.349 C  
BRANCH   5   6
HETATM    6  C   UNL     1     -10.747   8.809  72.156  1.00  0.00    -0.383 C  
BRANCH   6   7
HETATM    7  C   UNL     1     -12.073   9.202  71.512  1.00  0.00    -0.422 C  
BRANCH   7   8
HETATM    8  C   UNL     1     -12.092  10.688  71.175  1.00  0.00    -0.445 C  
BRANCH   8   9
HETATM    9  C   UNL     1     -12.221  10.899  69.670  1.00  0.00    -0.354 C  
BRANCH   9  10
HETATM   10  C   UNL     1     -10.940  10.489  68.954  1.00  0.00    -0.291 C  
BRANCH  10  11
HETATM   11  C   UNL     1     -10.940  10.976  67.509  1.00  0.00    -0.338 C  
BRANCH  11  12
HETATM   12  C   UNL     1     -10.270   9.955  66.596  1.00  0.00    -0.293 C  
BRANCH  12  13
HETATM   13  C   UNL     1      -9.852   8.709  67.373  1.00  0.00    -0.249 C  
BRANCH  13  14
HETATM   14  C   UNL     1      -8.495   8.202  66.889  1.00  0.00    -0.119 C  
BRANCH  14  15
HETATM   15  C   UNL     1      -7.629   9.347  66.371  1.00  0.00    -0.097 C  
HETATM   16  C   UNL     1      -6.890   8.961  65.111  1.00  0.00    -0.076 C  
HETATM   17  O   UNL     1      -6.119   9.970  64.642  1.00  0.00    -0.100 OA 
HETATM   18  O   UNL     1      -6.954   7.877  64.554  1.00  0.00    -0.067 OA 
ENDBRANCH  14  15
ENDBRANCH  13  14
ENDBRANCH  12  13
ENDBRANCH  11  12
ENDBRANCH  10  11
ENDBRANCH   9  10
ENDBRANCH   8   9
ENDBRANCH   7   8
ENDBRANCH   6   7
ENDBRANCH   5   6
ENDBRANCH   4   5
ENDBRANCH   3   4
ENDBRANCH   2   3
TORSDOF 13
ENDMDL
MODEL      442
REMARK 921   NORMALIZED FREE ENERGY PREDICTED BY IDOCK:   -2.17 KCAL/MOL
REMARK 922        TOTAL FREE ENERGY PREDICTED BY IDOCK:   -5.22 KCAL/MOL
REMARK 923 INTER-LIGAND FREE ENERGY PREDICTED BY IDOCK:   -3.91 KCAL/MOL
REMARK 924 INTRA-LIGAND FREE ENERGY PREDICTED BY IDOCK:   -1.32 KCAL/MOL
REMARK 927      BINDING AFFINITY PREDICTED BY RF-SCORE:    0.00 PKD
ROOT
HETATM    1  C   UNL     1      -7.541  14.843  69.031  1.00  0.00    -0.151 C  
HETATM    2  C   UNL     1      -6.037  14.635  68.973  1.00  0.00    -0.090 C  
ENDROOT
BRANCH   2   3
HETATM    3  C   UNL     1      -5.672  13.526  67.990  1.00  0.00    -0.124 C  
BRANCH   3   4
HETATM    4  C   UNL     1      -6.919  12.808  67.482  1.00  0.00    -0.149 C  
BRANCH   4   5
HETATM    5  C   UNL     1      -6.853  11.316  67.797  1.00  0.00    -0.074 C  
BRANCH   5   6
HETATM    6  C   UNL     1      -7.699  10.981  69.021  1.00  0.00    -0.132 C  
BRANCH   6   7
HETATM    7  C   UNL     1      -8.735   9.913  68.685  1.00  0.00    -0.124 C  
BRANCH   7   8
HETATM    8  C   UNL     1      -9.829  10.484  67.790  1.00  0.00    -0.188 C  
BRANCH   8   9
HETATM    9  C   UNL     1     -10.442  11.733  68.415  1.00  0.00    -0.231 C  
BRANCH   9  10
HETATM   10  C   UNL     1     -11.754  11.399  69.114  1.00  0.00    -0.410 C  
BRANCH  10  11
HETATM   11  C   UNL     1     -11.962  12.282  70.341  1.00  0.00    -0.349 C  
BRANCH  11  12
HETATM   12  C   UNL     1     -12.769  13.524  69.979  1.00  0.00    -0.005 C  
BRANCH  12  13
HETATM   13  C   UNL     1     -12.274  14.748  70.745  1.00  0.00    -0.380 C  
BRANCH  13  14
HETATM   14  C   UNL     1     -10.903  15.185  70.236  1.00  0.00    -0.258 C  
BRANCH  14  15
HETATM   15  C   UNL     1     -10.875  15.259  68.712  1.00  0.00    -0.254 C  
HETATM   16  C   UNL     1     -10.530  16.647  68.226  1.00  0.00    -0.321 C  
HETATM   17  O   UNL     1     -10.502  16.723  66.875  1.00  0.00    -0.306 OA 
HETATM   18  O   UNL     1     -10.299  17.611  68.938  1.00  0.00    -0.363 OA 
ENDBRANCH  14  15
ENDBRANCH  13  14
ENDBRANCH  12  13
ENDBRANCH  11  12
ENDBRANCH  10  11
ENDBRANCH   9  10
ENDBRANCH   8   9
ENDBRANCH   7   8
ENDBRANCH   6   7
ENDBRANCH   5   6
ENDBRANCH   4   5
ENDBRANCH   3   4
ENDBRANCH   2   3
TORSDOF 13
ENDMDL
MODEL      443
REMARK 921   NORMALIZED FREE ENERGY PREDICTED BY IDOCK:   -2.17 KCAL/MOL
REMARK 922        TOTAL FREE ENERGY PREDICTED BY IDOCK:   -5.22 KCAL/MOL
REMARK 923 INTER-LIGAND FREE ENERGY PREDICTED BY IDOCK:   -3.65 KCAL/MOL
REMARK 924 INTRA-LIGAND FREE ENERGY PREDICTED BY IDOCK:   -1.57 KCAL/MOL
REMARK 927      BINDING AFFINITY PREDICTED BY RF-SCORE:    0.00 PKD
ROOT
HETATM    1  C   UNL     1      -7.856   8.407  66.610  1.00  0.00    -0.093 C  
HETATM    2  C   UNL     1      -9.061   7.496  66.774  1.00  0.00    -0.176 C  
ENDROOT
BRANCH   2   3
HETATM    3  C   UNL     1      -8.791   6.407  67.809  1.00  0.00    -0.112 C  
BRANCH   3   4
HETATM    4  C   UNL     1     -10.058   5.615  68.118  1.00  0.00    -0.212 C  
BRANCH   4   5
HETATM    5  C   UNL     1     -10.408   5.708  69.600  1.00  0.00    -0.346 C  
BRANCH   5   6
HETATM    6  C   UNL     1      -9.552   6.760  70.297  1.00  0.00    -0.170 C  
BRANCH   6   7
HETATM    7  C   UNL     1     -10.402   7.616  71.231  1.00  0.00    -0.215 C  
BRANCH   7   8
HETATM    8  C   UNL     1     -10.080   9.095  71.053  1.00  0.00    -0.373 C  
BRANCH   8   9
HETATM    9  C   UNL     1     -10.419   9.556  69.640  1.00  0.00    -0.239 C  
BRANCH   9  10
HETATM   10  C   UNL     1     -11.706  10.373  69.633  1.00  0.00    -0.283 C  
BRANCH  10  11
HETATM   11  C   UNL     1     -11.532  11.662  68.835  1.00  0.00    -0.349 C  
BRANCH  11  12
HETATM   12  C   UNL     1     -10.892  11.375  67.481  1.00  0.00    -0.291 C  
BRANCH  12  13
HETATM   13  C   UNL     1      -9.842  12.425  67.131  1.00  0.00    -0.206 C  
BRANCH  13  14
HETATM   14  C   UNL     1      -8.529  12.137  67.855  1.00  0.00    -0.163 C  
BRANCH  14  15
HETATM   15  C   UNL     1      -7.821  13.429  68.254  1.00  0.00    -0.143 C  
HETATM   16  C   UNL     1      -6.680  13.168  69.209  1.00  0.00    -0.061 C  
HETATM   17  O   UNL     1      -6.045  14.308  69.568  1.00  0.00    -0.099 OA 
HETATM   18  O   UNL     1      -6.343  12.073  69.630  1.00  0.00    -0.117 OA 
ENDBRANCH  14  15
ENDBRANCH  13  14
ENDBRANCH  12  13
ENDBRANCH  11  12
ENDBRANCH  10  11
ENDBRANCH   9  10
ENDBRANCH   8   9
ENDBRANCH   7   8
ENDBRANCH   6   7
ENDBRANCH   5   6
ENDBRANCH   4   5
ENDBRANCH   3   4
ENDBRANCH   2   3
TORSDOF 13
ENDMDL
MODEL      444
REMARK 921   NORMALIZED FREE ENERGY PREDICTED BY IDOCK:   -2.15 KCAL/MOL
REMARK 922        TOTAL FREE ENERGY PREDICTED BY IDOCK:   -5.19 KCAL/MOL
REMARK 923 INTER-LIGAND FREE ENERGY PREDICTED BY IDOCK:   -3.71 KCAL/MOL
REMARK 924 INTRA-LIGAND FREE ENERGY PREDICTED BY IDOCK:   -1.49 KCAL/MOL
REMARK 927      BINDING AFFINITY PREDICTED BY RF-SCORE:    0.00 PKD
ROOT
HETATM    1  C   UNL     1     -13.220   7.141  71.560  1.00  0.00    -0.419 C  
HETATM    2  C   UNL     1     -11.771   7.415  71.196  1.00  0.00    -0.322 C  
ENDROOT
BRANCH   2   3
HETATM    3  C   UNL     1     -11.065   8.201  72.298  1.00  0.00    -0.410 C  
BRANCH   3   4
HETATM    4  C   UNL     1     -10.506   7.267  73.368  1.00  0.00    -0.423 C  
BRANCH   4   5
HETATM    5  C   UNL     1      -9.050   7.607  73.677  1.00  0.00    -0.327 C  
BRANCH   5   6
HETATM    6  C   UNL     1      -8.273   6.359  74.082  1.00  0.00    -0.123 C  
BRANCH   6   7
HETATM    7  C   UNL     1      -6.965   6.262  73.303  1.00  0.00    -0.075 C  
BRANCH   7   8
HETATM    8  C   UNL     1      -7.198   5.646  71.928  1.00  0.00    -0.091 C  
BRANCH   8   9
HETATM    9  C   UNL     1      -8.175   4.479  72.017  1.00  0.00    -0.101 C  
BRANCH   9  10
HETATM   10  C   UNL     1      -9.228   4.571  70.920  1.00  0.00    -0.201 C  
BRANCH  10  11
HETATM   11  C   UNL     1      -8.578   4.651  69.542  1.00  0.00    -0.103 C  
BRANCH  11  12
HETATM   12  C   UNL     1      -9.198   5.774  68.718  1.00  0.00    -0.128 C  
BRANCH  12  13
HETATM   13  C   UNL     1     -10.426   5.287  67.953  1.00  0.00    -0.154 C  
BRANCH  13  14
HETATM   14  C   UNL     1     -10.373   5.747  66.498  1.00  0.00    -0.265 C  
BRANCH  14  15
HETATM   15  C   UNL     1     -10.267   4.560  65.545  1.00  0.00    -0.251 C  
HETATM   16  C   UNL     1      -8.842   4.329  65.096  1.00  0.00    -0.134 C  
HETATM   17  O   UNL     1      -8.738   3.276  64.251  1.00  0.00    -0.093 OA 
HETATM   18  O   UNL     1      -7.876   4.993  65.434  1.00  0.00    -0.085 OA 
ENDBRANCH  14  15
ENDBRANCH  13  14
ENDBRANCH  12  13
ENDBRANCH  11  12
ENDBRANCH  10  11
ENDBRANCH   9  10
ENDBRANCH   8   9
ENDBRANCH   7   8
ENDBRANCH   6   7
ENDBRANCH   5   6
ENDBRANCH   4   5
ENDBRANCH   3   4
ENDBRANCH   2   3
TORSDOF 13
ENDMDL
MODEL      445
REMARK 921   NORMALIZED FREE ENERGY PREDICTED BY IDOCK:   -2.14 KCAL/MOL
REMARK 922        TOTAL FREE ENERGY PREDICTED BY IDOCK:   -5.18 KCAL/MOL
REMARK 923 INTER-LIGAND FREE ENERGY PREDICTED BY IDOCK:   -4.32 KCAL/MOL
REMARK 924 INTRA-LIGAND FREE ENERGY PREDICTED BY IDOCK:   -0.86 KCAL/MOL
REMARK 927      BINDING AFFINITY PREDICTED BY RF-SCORE:    0.00 PKD
ROOT
HETATM    1  C   UNL     1      -5.411   6.965  63.021  1.00  0.00    -0.032 C  
HETATM    2  C   UNL     1      -5.770   8.436  62.896  1.00  0.00    -0.074 C  
ENDROOT
BRANCH   2   3
HETATM    3  C   UNL     1      -5.222   9.239  64.073  1.00  0.00    -0.059 C  
BRANCH   3   4
HETATM    4  C   UNL     1      -6.280  10.186  64.633  1.00  0.00    -0.130 C  
BRANCH   4   5
HETATM    5  C   UNL     1      -7.654   9.523  64.636  1.00  0.00    -0.113 C  
BRANCH   5   6
HETATM    6  C   UNL     1      -8.397   9.813  65.937  1.00  0.00    -0.128 C  
BRANCH   6   7
HETATM    7  C   UNL     1      -9.892   9.970  65.681  1.00  0.00    -0.363 C  
BRANCH   7   8
HETATM    8  C   UNL     1     -10.440  11.194  66.405  1.00  0.00    -0.311 C  
BRANCH   8   9
HETATM    9  C   UNL     1     -11.397  11.971  65.507  1.00  0.00    -0.381 C  
BRANCH   9  10
HETATM   10  C   UNL     1     -12.126  13.049  66.299  1.00  0.00    -0.453 C  
BRANCH  10  11
HETATM   11  C   UNL     1     -11.467  14.411  66.105  1.00  0.00    -0.357 C  
BRANCH  11  12
HETATM   12  C   UNL     1     -11.343  15.145  67.436  1.00  0.00    -0.309 C  
BRANCH  12  13
HETATM   13  C   UNL     1      -9.925  15.665  67.652  1.00  0.00    -0.237 C  
BRANCH  13  14
HETATM   14  C   UNL     1      -9.122  15.596  66.355  1.00  0.00    -0.355 C  
BRANCH  14  15
HETATM   15  C   UNL     1      -8.205  16.807  66.206  1.00  0.00    -0.359 C  
HETATM   16  C   UNL     1      -6.809  16.515  66.705  1.00  0.00    -0.190 C  
HETATM   17  O   UNL     1      -5.987  17.583  66.576  1.00  0.00    -0.167 OA 
HETATM   18  O   UNL     1      -6.431  15.454  67.177  1.00  0.00    -0.300 OA 
ENDBRANCH  14  15
ENDBRANCH  13  14
ENDBRANCH  12  13
ENDBRANCH  11  12
ENDBRANCH  10  11
ENDBRANCH   9  10
ENDBRANCH   8   9
ENDBRANCH   7   8
ENDBRANCH   6   7
ENDBRANCH   5   6
ENDBRANCH   4   5
ENDBRANCH   3   4
ENDBRANCH   2   3
TORSDOF 13
ENDMDL
MODEL      446
REMARK 921   NORMALIZED FREE ENERGY PREDICTED BY IDOCK:   -2.10 KCAL/MOL
REMARK 922        TOTAL FREE ENERGY PREDICTED BY IDOCK:   -5.11 KCAL/MOL
REMARK 923 INTER-LIGAND FREE ENERGY PREDICTED BY IDOCK:   -4.47 KCAL/MOL
REMARK 924 INTRA-LIGAND FREE ENERGY PREDICTED BY IDOCK:   -0.64 KCAL/MOL
REMARK 927      BINDING AFFINITY PREDICTED BY RF-SCORE:    0.00 PKD
ROOT
HETATM    1  C   UNL     1     -10.519  19.513  66.948  1.00  0.00    -0.589 C  
HETATM    2  C   UNL     1      -9.752  18.243  67.273  1.00  0.00    -0.301 C  
ENDROOT
BRANCH   2   3
HETATM    3  C   UNL     1     -10.677  17.029  67.288  1.00  0.00    -0.206 C  
BRANCH   3   4
HETATM    4  C   UNL     1     -10.395  16.136  68.492  1.00  0.00    -0.254 C  
BRANCH   4   5
HETATM    5  C   UNL     1     -11.354  16.449  69.637  1.00  0.00    -0.188 C  
BRANCH   5   6
HETATM    6  C   UNL     1     -12.252  15.253  69.939  1.00  0.00    -0.357 C  
BRANCH   6   7
HETATM    7  C   UNL     1     -11.489  13.946  69.750  1.00  0.00    -0.281 C  
BRANCH   7   8
HETATM    8  C   UNL     1     -12.387  12.880  69.131  1.00  0.00     0.090 C  
BRANCH   8   9
HETATM    9  C   UNL     1     -11.781  11.492  69.310  1.00  0.00    -0.397 C  
BRANCH   9  10
HETATM   10  C   UNL     1     -12.518  10.717  70.396  1.00  0.00    -0.421 C  
BRANCH  10  11
HETATM   11  C   UNL     1     -11.537   9.989  71.310  1.00  0.00    -0.430 C  
BRANCH  11  12
HETATM   12  C   UNL     1     -10.500   9.228  70.490  1.00  0.00    -0.312 C  
BRANCH  12  13
HETATM   13  C   UNL     1      -9.996   7.998  71.239  1.00  0.00    -0.211 C  
BRANCH  13  14
HETATM   14  C   UNL     1      -8.637   7.557  70.700  1.00  0.00    -0.137 C  
BRANCH  14  15
HETATM   15  C   UNL     1      -8.028   8.623  69.794  1.00  0.00    -0.095 C  
HETATM   16  C   UNL     1      -7.218   9.627  70.581  1.00  0.00    -0.103 C  
HETATM   17  O   UNL     1      -6.672  10.577  69.785  1.00  0.00    -0.092 OA 
HETATM   18  O   UNL     1      -7.054   9.616  71.790  1.00  0.00    -0.185 OA 
ENDBRANCH  14  15
ENDBRANCH  13  14
ENDBRANCH  12  13
ENDBRANCH  11  12
ENDBRANCH  10  11
ENDBRANCH   9  10
ENDBRANCH   8   9
ENDBRANCH   7   8
ENDBRANCH   6   7
ENDBRANCH   5   6
ENDBRANCH   4   5
ENDBRANCH   3   4
ENDBRANCH   2   3
TORSDOF 13
ENDMDL
MODEL      447
REMARK 921   NORMALIZED FREE ENERGY PREDICTED BY IDOCK:   -2.09 KCAL/MOL
REMARK 922        TOTAL FREE ENERGY PREDICTED BY IDOCK:   -5.08 KCAL/MOL
REMARK 923 INTER-LIGAND FREE ENERGY PREDICTED BY IDOCK:   -3.99 KCAL/MOL
REMARK 924 INTRA-LIGAND FREE ENERGY PREDICTED BY IDOCK:   -1.09 KCAL/MOL
REMARK 927      BINDING AFFINITY PREDICTED BY RF-SCORE:    0.00 PKD
ROOT
HETATM    1  C   UNL     1     -11.018   3.352  73.458  1.00  0.00    -0.328 C  
HETATM    2  C   UNL     1     -11.392   4.823  73.417  1.00  0.00    -0.397 C  
ENDROOT
BRANCH   2   3
HETATM    3  C   UNL     1     -10.183   5.707  73.715  1.00  0.00    -0.245 C  
BRANCH   3   4
HETATM    4  C   UNL     1      -9.324   5.903  72.469  1.00  0.00    -0.146 C  
BRANCH   4   5
HETATM    5  C   UNL     1     -10.069   6.725  71.420  1.00  0.00    -0.198 C  
BRANCH   5   6
HETATM    6  C   UNL     1      -9.164   7.800  70.827  1.00  0.00    -0.157 C  
BRANCH   6   7
HETATM    7  C   UNL     1      -9.482   9.165  71.428  1.00  0.00    -0.279 C  
BRANCH   7   8
HETATM    8  C   UNL     1     -10.987   9.349  71.590  1.00  0.00    -0.382 C  
BRANCH   8   9
HETATM    9  C   UNL     1     -11.465  10.581  70.828  1.00  0.00    -0.376 C  
BRANCH   9  10
HETATM   10  C   UNL     1     -12.092  10.183  69.497  1.00  0.00     0.069 C  
BRANCH  10  11
HETATM   11  C   UNL     1     -11.893  11.275  68.451  1.00  0.00    -0.331 C  
BRANCH  11  12
HETATM   12  C   UNL     1     -10.428  11.691  68.379  1.00  0.00    -0.230 C  
BRANCH  12  13
HETATM   13  C   UNL     1     -10.007  11.989  66.942  1.00  0.00    -0.218 C  
BRANCH  13  14
HETATM   14  C   UNL     1      -9.132  13.239  66.884  1.00  0.00    -0.235 C  
BRANCH  14  15
HETATM   15  C   UNL     1      -8.596  13.605  68.265  1.00  0.00    -0.170 C  
HETATM   16  C   UNL     1      -7.109  13.361  68.370  1.00  0.00    -0.108 C  
HETATM   17  O   UNL     1      -6.623  13.685  69.591  1.00  0.00    -0.108 OA 
HETATM   18  O   UNL     1      -6.397  12.925  67.479  1.00  0.00    -0.149 OA 
ENDBRANCH  14  15
ENDBRANCH  13  14
ENDBRANCH  12  13
ENDBRANCH  11  12
ENDBRANCH  10  11
ENDBRANCH   9  10
ENDBRANCH   8   9
ENDBRANCH   7   8
ENDBRANCH   6   7
ENDBRANCH   5   6
ENDBRANCH   4   5
ENDBRANCH   3   4
ENDBRANCH   2   3
TORSDOF 13
ENDMDL
MODEL      448
REMARK 921   NORMALIZED FREE ENERGY PREDICTED BY IDOCK:   -2.08 KCAL/MOL
REMARK 922        TOTAL FREE ENERGY PREDICTED BY IDOCK:   -5.07 KCAL/MOL
REMARK 923 INTER-LIGAND FREE ENERGY PREDICTED BY IDOCK:   -3.75 KCAL/MOL
REMARK 924 INTRA-LIGAND FREE ENERGY PREDICTED BY IDOCK:   -1.32 KCAL/MOL
REMARK 927      BINDING AFFINITY PREDICTED BY RF-SCORE:    0.00 PKD
ROOT
HETATM    1  C   UNL     1     -10.808  12.197  65.299  1.00  0.00    -0.336 C  
HETATM    2  C   UNL     1     -10.500  10.885  66.000  1.00  0.00    -0.287 C  
ENDROOT
BRANCH   2   3
HETATM    3  C   UNL     1      -9.694  11.118  67.276  1.00  0.00    -0.186 C  
BRANCH   3   4
HETATM    4  C   UNL     1      -8.509  10.161  67.361  1.00  0.00    -0.122 C  
BRANCH   4   5
HETATM    5  C   UNL     1      -7.801  10.053  66.013  1.00  0.00    -0.119 C  
BRANCH   5   6
HETATM    6  C   UNL     1      -7.204   8.662  65.821  1.00  0.00    -0.080 C  
BRANCH   6   7
HETATM    7  C   UNL     1      -7.160   7.907  67.145  1.00  0.00    -0.079 C  
BRANCH   7   8
HETATM    8  C   UNL     1      -7.141   6.401  66.909  1.00  0.00    -0.073 C  
BRANCH   8   9
HETATM    9  C   UNL     1      -8.496   5.785  67.242  1.00  0.00    -0.107 C  
BRANCH   9  10
HETATM   10  C   UNL     1      -9.611   6.488  66.476  1.00  0.00    -0.184 C  
BRANCH  10  11
HETATM   11  C   UNL     1     -10.835   6.699  67.362  1.00  0.00    -0.434 C  
BRANCH  11  12
HETATM   12  C   UNL     1     -10.419   6.890  68.817  1.00  0.00    -0.223 C  
BRANCH  12  13
HETATM   13  C   UNL     1     -10.998   5.793  69.706  1.00  0.00    -0.397 C  
BRANCH  13  14
HETATM   14  C   UNL     1     -10.386   5.854  71.104  1.00  0.00    -0.276 C  
BRANCH  14  15
HETATM   15  C   UNL     1      -9.901   4.480  71.556  1.00  0.00    -0.260 C  
HETATM   16  C   UNL     1     -10.631   4.009  72.793  1.00  0.00    -0.137 C  
HETATM   17  O   UNL     1     -10.209   2.789  73.201  1.00  0.00    -0.120 OA 
HETATM   18  O   UNL     1     -11.503   4.628  73.380  1.00  0.00    -0.328 OA 
ENDBRANCH  14  15
ENDBRANCH  13  14
ENDBRANCH  12  13
ENDBRANCH  11  12
ENDBRANCH  10  11
ENDBRANCH   9  10
ENDBRANCH   8   9
ENDBRANCH   7   8
ENDBRANCH   6   7
ENDBRANCH   5   6
ENDBRANCH   4   5
ENDBRANCH   3   4
ENDBRANCH   2   3
TORSDOF 13
ENDMDL
MODEL      449
REMARK 921   NORMALIZED FREE ENERGY PREDICTED BY IDOCK:   -2.08 KCAL/MOL
REMARK 922        TOTAL FREE ENERGY PREDICTED BY IDOCK:   -5.07 KCAL/MOL
REMARK 923 INTER-LIGAND FREE ENERGY PREDICTED BY IDOCK:   -4.17 KCAL/MOL
REMARK 924 INTRA-LIGAND FREE ENERGY PREDICTED BY IDOCK:   -0.90 KCAL/MOL
REMARK 927      BINDING AFFINITY PREDICTED BY RF-SCORE:    0.00 PKD
ROOT
HETATM    1  C   UNL     1      -7.036   4.799  72.878  1.00  0.00    -0.078 C  
HETATM    2  C   UNL     1      -8.143   4.667  73.910  1.00  0.00    -0.105 C  
ENDROOT
BRANCH   2   3
HETATM    3  C   UNL     1      -9.445   5.285  73.404  1.00  0.00    -0.141 C  
BRANCH   3   4
HETATM    4  C   UNL     1      -9.504   6.777  73.719  1.00  0.00    -0.215 C  
BRANCH   4   5
HETATM    5  C   UNL     1     -10.800   7.390  73.196  1.00  0.00    -0.435 C  
BRANCH   5   6
HETATM    6  C   UNL     1     -11.339   6.598  72.010  1.00  0.00    -0.317 C  
BRANCH   6   7
HETATM    7  C   UNL     1     -11.667   7.527  70.845  1.00  0.00    -0.307 C  
BRANCH   7   8
HETATM    8  C   UNL     1     -12.117   8.892  71.351  1.00  0.00    -0.381 C  
BRANCH   8   9
HETATM    9  C   UNL     1     -11.570  10.005  70.464  1.00  0.00    -0.403 C  
BRANCH   9  10
HETATM   10  C   UNL     1     -10.599   9.444  69.432  1.00  0.00    -0.235 C  
BRANCH  10  11
HETATM   11  C   UNL     1     -11.035   9.808  68.016  1.00  0.00    -0.236 C  
BRANCH  11  12
HETATM   12  C   UNL     1      -9.881  10.435  67.241  1.00  0.00    -0.214 C  
BRANCH  12  13
HETATM   13  C   UNL     1      -8.594  10.427  68.062  1.00  0.00    -0.123 C  
BRANCH  13  14
HETATM   14  C   UNL     1      -8.330  11.806  68.664  1.00  0.00    -0.079 C  
BRANCH  14  15
HETATM   15  C   UNL     1      -8.603  12.914  67.650  1.00  0.00    -0.182 C  
HETATM   16  C   UNL     1      -9.871  13.667  67.976  1.00  0.00    -0.244 C  
HETATM   17  O   UNL     1     -10.121  14.654  67.083  1.00  0.00    -0.241 OA 
HETATM   18  O   UNL     1     -10.608  13.441  68.921  1.00  0.00    -0.229 OA 
ENDBRANCH  14  15
ENDBRANCH  13  14
ENDBRANCH  12  13
ENDBRANCH  11  12
ENDBRANCH  10  11
ENDBRANCH   9  10
ENDBRANCH   8   9
ENDBRANCH   7   8
ENDBRANCH   6   7
ENDBRANCH   5   6
ENDBRANCH   4   5
ENDBRANCH   3   4
ENDBRANCH   2   3
TORSDOF 13
ENDMDL
MODEL      450
REMARK 921   NORMALIZED FREE ENERGY PREDICTED BY IDOCK:   -2.06 KCAL/MOL
REMARK 922        TOTAL FREE ENERGY PREDICTED BY IDOCK:   -5.04 KCAL/MOL
REMARK 923 INTER-LIGAND FREE ENERGY PREDICTED BY IDOCK:   -3.73 KCAL/MOL
REMARK 924 INTRA-LIGAND FREE ENERGY PREDICTED BY IDOCK:   -1.31 KCAL/MOL
REMARK 927      BINDING AFFINITY PREDICTED BY RF-SCORE:    0.00 PKD
ROOT
HETATM    1  C   UNL     1      -6.130   7.787  64.302  1.00  0.00    -0.052 C  
HETATM    2  C   UNL     1      -7.429   7.348  64.955  1.00  0.00    -0.087 C  
ENDROOT
BRANCH   2   3
HETATM    3  C   UNL     1      -8.390   8.523  65.114  1.00  0.00    -0.178 C  
BRANCH   3   4
HETATM    4  C   UNL     1      -8.742   8.752  66.582  1.00  0.00    -0.138 C  
BRANCH   4   5
HETATM    5  C   UNL     1      -7.903   9.882  67.171  1.00  0.00    -0.099 C  
BRANCH   5   6
HETATM    6  C   UNL     1      -8.274  11.221  66.542  1.00  0.00    -0.165 C  
BRANCH   6   7
HETATM    7  C   UNL     1      -8.084  12.358  67.541  1.00  0.00    -0.173 C  
BRANCH   7   8
HETATM    8  C   UNL     1      -6.835  13.166  67.212  1.00  0.00    -0.001 C  
BRANCH   8   9
HETATM    9  C   UNL     1      -6.947  14.583  67.764  1.00  0.00    -0.194 C  
BRANCH   9  10
HETATM   10  C   UNL     1      -8.258  14.766  68.520  1.00  0.00    -0.153 C  
BRANCH  10  11
HETATM   11  C   UNL     1      -8.873  16.131  68.227  1.00  0.00    -0.188 C  
BRANCH  11  12
HETATM   12  C   UNL     1      -9.937  16.476  69.264  1.00  0.00    -0.244 C  
BRANCH  12  13
HETATM   13  C   UNL     1     -10.232  15.284  70.171  1.00  0.00    -0.166 C  
BRANCH  13  14
HETATM   14  C   UNL     1     -11.647  14.762  69.932  1.00  0.00    -0.330 C  
BRANCH  14  15
HETATM   15  C   UNL     1     -11.627  13.398  69.248  1.00  0.00    -0.365 C  
HETATM   16  C   UNL     1     -11.926  13.510  67.771  1.00  0.00    -0.334 C  
HETATM   17  O   UNL     1     -11.909  12.305  67.154  1.00  0.00    -0.511 OA 
HETATM   18  O   UNL     1     -12.162  14.546  67.171  1.00  0.00    -0.355 OA 
ENDBRANCH  14  15
ENDBRANCH  13  14
ENDBRANCH  12  13
ENDBRANCH  11  12
ENDBRANCH  10  11
ENDBRANCH   9  10
ENDBRANCH   8   9
ENDBRANCH   7   8
ENDBRANCH   6   7
ENDBRANCH   5   6
ENDBRANCH   4   5
ENDBRANCH   3   4
ENDBRANCH   2   3
TORSDOF 13
ENDMDL
MODEL      451
REMARK 921   NORMALIZED FREE ENERGY PREDICTED BY IDOCK:   -2.06 KCAL/MOL
REMARK 922        TOTAL FREE ENERGY PREDICTED BY IDOCK:   -5.03 KCAL/MOL
REMARK 923 INTER-LIGAND FREE ENERGY PREDICTED BY IDOCK:   -3.34 KCAL/MOL
REMARK 924 INTRA-LIGAND FREE ENERGY PREDICTED BY IDOCK:   -1.69 KCAL/MOL
REMARK 927      BINDING AFFINITY PREDICTED BY RF-SCORE:    0.00 PKD
ROOT
HETATM    1  C   UNL     1      -6.321  15.959  69.503  1.00  0.00    -0.173 C  
HETATM    2  C   UNL     1      -7.828  16.088  69.369  1.00  0.00    -0.167 C  
ENDROOT
BRANCH   2   3
HETATM    3  C   UNL     1      -8.283  15.779  67.944  1.00  0.00    -0.151 C  
BRANCH   3   4
HETATM    4  C   UNL     1      -7.373  14.744  67.289  1.00  0.00    -0.147 C  
BRANCH   4   5
HETATM    5  C   UNL     1      -8.051  13.377  67.247  1.00  0.00    -0.147 C  
BRANCH   5   6
HETATM    6  C   UNL     1      -7.678  12.546  68.470  1.00  0.00    -0.113 C  
BRANCH   6   7
HETATM    7  C   UNL     1      -6.771  11.384  68.078  1.00  0.00    -0.059 C  
BRANCH   7   8
HETATM    8  C   UNL     1      -6.997  10.988  66.623  1.00  0.00    -0.140 C  
BRANCH   8   9
HETATM    9  C   UNL     1      -7.162   9.477  66.494  1.00  0.00    -0.089 C  
BRANCH   9  10
HETATM   10  C   UNL     1      -7.306   8.830  67.866  1.00  0.00    -0.088 C  
BRANCH  10  11
HETATM   11  C   UNL     1      -8.636   8.092  67.986  1.00  0.00    -0.129 C  
BRANCH  11  12
HETATM   12  C   UNL     1      -9.158   8.150  69.418  1.00  0.00    -0.148 C  
BRANCH  12  13
HETATM   13  C   UNL     1     -10.449   8.959  69.504  1.00  0.00    -0.229 C  
BRANCH  13  14
HETATM   14  C   UNL     1     -10.145  10.446  69.667  1.00  0.00    -0.226 C  
BRANCH  14  15
HETATM   15  C   UNL     1     -11.300  11.307  69.165  1.00  0.00    -0.349 C  
HETATM   16  C   UNL     1     -11.262  11.471  67.663  1.00  0.00    -0.281 C  
HETATM   17  O   UNL     1     -12.284  12.232  67.207  1.00  0.00    -0.485 OA 
HETATM   18  O   UNL     1     -10.423  10.991  66.918  1.00  0.00    -0.225 OA 
ENDBRANCH  14  15
ENDBRANCH  13  14
ENDBRANCH  12  13
ENDBRANCH  11  12
ENDBRANCH  10  11
ENDBRANCH   9  10
ENDBRANCH   8   9
ENDBRANCH   7   8
ENDBRANCH   6   7
ENDBRANCH   5   6
ENDBRANCH   4   5
ENDBRANCH   3   4
ENDBRANCH   2   3
TORSDOF 13
ENDMDL
MODEL      452
REMARK 921   NORMALIZED FREE ENERGY PREDICTED BY IDOCK:   -2.04 KCAL/MOL
REMARK 922        TOTAL FREE ENERGY PREDICTED BY IDOCK:   -5.00 KCAL/MOL
REMARK 923 INTER-LIGAND FREE ENERGY PREDICTED BY IDOCK:   -3.91 KCAL/MOL
REMARK 924 INTRA-LIGAND FREE ENERGY PREDICTED BY IDOCK:   -1.09 KCAL/MOL
REMARK 927      BINDING AFFINITY PREDICTED BY RF-SCORE:    0.00 PKD
ROOT
HETATM    1  C   UNL     1     -10.087   8.345  72.279  1.00  0.00    -0.382 C  
HETATM    2  C   UNL     1      -9.314   7.324  71.462  1.00  0.00    -0.155 C  
ENDROOT
BRANCH   2   3
HETATM    3  C   UNL     1     -10.227   6.607  70.470  1.00  0.00    -0.215 C  
BRANCH   3   4
HETATM    4  C   UNL     1      -9.576   5.329  69.948  1.00  0.00    -0.241 C  
BRANCH   4   5
HETATM    5  C   UNL     1      -9.191   5.478  68.479  1.00  0.00    -0.133 C  
BRANCH   5   6
HETATM    6  C   UNL     1      -7.804   6.096  68.339  1.00  0.00    -0.104 C  
BRANCH   6   7
HETATM    7  C   UNL     1      -7.867   7.384  67.524  1.00  0.00    -0.112 C  
BRANCH   7   8
HETATM    8  C   UNL     1      -7.589   8.597  68.404  1.00  0.00    -0.096 C  
BRANCH   8   9
HETATM    9  C   UNL     1      -8.858   9.419  68.608  1.00  0.00    -0.132 C  
BRANCH   9  10
HETATM   10  C   UNL     1      -9.764   9.324  67.387  1.00  0.00    -0.208 C  
BRANCH  10  11
HETATM   11  C   UNL     1      -9.865  10.670  66.674  1.00  0.00    -0.245 C  
BRANCH  11  12
HETATM   12  C   UNL     1     -10.759  11.627  67.455  1.00  0.00    -0.257 C  
BRANCH  12  13
HETATM   13  C   UNL     1     -10.142  13.020  67.536  1.00  0.00    -0.218 C  
BRANCH  13  14
HETATM   14  C   UNL     1     -10.200  13.716  66.178  1.00  0.00    -0.306 C  
BRANCH  14  15
HETATM   15  C   UNL     1     -11.309  13.135  65.306  1.00  0.00    -0.321 C  
HETATM   16  C   UNL     1     -12.133  14.221  64.653  1.00  0.00    -0.463 C  
HETATM   17  O   UNL     1     -13.119  13.716  63.875  1.00  0.00    -0.088 OA 
HETATM   18  O   UNL     1     -11.959  15.421  64.789  1.00  0.00    -0.234 OA 
ENDBRANCH  14  15
ENDBRANCH  13  14
ENDBRANCH  12  13
ENDBRANCH  11  12
ENDBRANCH  10  11
ENDBRANCH   9  10
ENDBRANCH   8   9
ENDBRANCH   7   8
ENDBRANCH   6   7
ENDBRANCH   5   6
ENDBRANCH   4   5
ENDBRANCH   3   4
ENDBRANCH   2   3
TORSDOF 13
ENDMDL
MODEL      453
REMARK 921   NORMALIZED FREE ENERGY PREDICTED BY IDOCK:   -2.04 KCAL/MOL
REMARK 922        TOTAL FREE ENERGY PREDICTED BY IDOCK:   -5.00 KCAL/MOL
REMARK 923 INTER-LIGAND FREE ENERGY PREDICTED BY IDOCK:   -3.75 KCAL/MOL
REMARK 924 INTRA-LIGAND FREE ENERGY PREDICTED BY IDOCK:   -1.25 KCAL/MOL
REMARK 927      BINDING AFFINITY PREDICTED BY RF-SCORE:    0.00 PKD
ROOT
HETATM    1  C   UNL     1      -8.467   5.692  66.580  1.00  0.00    -0.113 C  
HETATM    2  C   UNL     1      -9.141   6.486  67.686  1.00  0.00    -0.112 C  
ENDROOT
BRANCH   2   3
HETATM    3  C   UNL     1      -8.413   6.306  69.016  1.00  0.00    -0.120 C  
BRANCH   3   4
HETATM    4  C   UNL     1      -7.698   7.589  69.431  1.00  0.00    -0.111 C  
BRANCH   4   5
HETATM    5  C   UNL     1      -8.135   8.760  68.556  1.00  0.00    -0.116 C  
BRANCH   5   6
HETATM    6  C   UNL     1      -6.930   9.438  67.911  1.00  0.00    -0.080 C  
BRANCH   6   7
HETATM    7  C   UNL     1      -7.199   9.728  66.438  1.00  0.00    -0.095 C  
BRANCH   7   8
HETATM    8  C   UNL     1      -6.468   8.731  65.547  1.00  0.00    -0.063 C  
BRANCH   8   9
HETATM    9  C   UNL     1      -7.032   8.758  64.130  1.00  0.00    -0.089 C  
BRANCH   9  10
HETATM   10  C   UNL     1      -8.552   8.651  64.151  1.00  0.00    -0.033 C  
BRANCH  10  11
HETATM   11  C   UNL     1      -9.193   9.792  63.367  1.00  0.00    -0.217 C  
BRANCH  11  12
HETATM   12  C   UNL     1     -10.396  10.352  64.118  1.00  0.00     0.003 C  
BRANCH  12  13
HETATM   13  C   UNL     1      -9.990  10.899  65.484  1.00  0.00    -0.315 C  
BRANCH  13  14
HETATM   14  C   UNL     1     -11.130  11.704  66.104  1.00  0.00    -0.335 C  
BRANCH  14  15
HETATM   15  C   UNL     1     -12.155  12.113  65.050  1.00  0.00    -0.311 C  
HETATM   16  C   UNL     1     -11.752  13.387  64.344  1.00  0.00    -0.394 C  
HETATM   17  O   UNL     1     -12.655  13.758  63.406  1.00  0.00    -0.842 OA 
HETATM   18  O   UNL     1     -10.741  14.032  64.567  1.00  0.00    -0.409 OA 
ENDBRANCH  14  15
ENDBRANCH  13  14
ENDBRANCH  12  13
ENDBRANCH  11  12
ENDBRANCH  10  11
ENDBRANCH   9  10
ENDBRANCH   8   9
ENDBRANCH   7   8
ENDBRANCH   6   7
ENDBRANCH   5   6
ENDBRANCH   4   5
ENDBRANCH   3   4
ENDBRANCH   2   3
TORSDOF 13
ENDMDL
MODEL      454
REMARK 921   NORMALIZED FREE ENERGY PREDICTED BY IDOCK:   -2.04 KCAL/MOL
REMARK 922        TOTAL FREE ENERGY PREDICTED BY IDOCK:   -4.99 KCAL/MOL
REMARK 923 INTER-LIGAND FREE ENERGY PREDICTED BY IDOCK:   -4.11 KCAL/MOL
REMARK 924 INTRA-LIGAND FREE ENERGY PREDICTED BY IDOCK:   -0.89 KCAL/MOL
REMARK 927      BINDING AFFINITY PREDICTED BY RF-SCORE:    0.00 PKD
ROOT
HETATM    1  C   UNL     1     -13.336   7.229  71.456  1.00  0.00    -0.435 C  
HETATM    2  C   UNL     1     -12.026   7.612  72.124  1.00  0.00    -0.344 C  
ENDROOT
BRANCH   2   3
HETATM    3  C   UNL     1     -10.830   7.087  71.334  1.00  0.00    -0.253 C  
BRANCH   3   4
HETATM    4  C   UNL     1     -11.264   6.046  70.305  1.00  0.00    -0.392 C  
BRANCH   4   5
HETATM    5  C   UNL     1     -10.671   6.358  68.934  1.00  0.00    -0.339 C  
BRANCH   5   6
HETATM    6  C   UNL     1      -9.767   7.584  68.998  1.00  0.00    -0.162 C  
BRANCH   6   7
HETATM    7  C   UNL     1      -8.879   7.665  67.759  1.00  0.00    -0.125 C  
BRANCH   7   8
HETATM    8  C   UNL     1      -9.665   8.186  66.562  1.00  0.00    -0.309 C  
BRANCH   8   9
HETATM    9  C   UNL     1      -8.826   9.166  65.749  1.00  0.00    -0.210 C  
BRANCH   9  10
HETATM   10  C   UNL     1      -7.640   9.667  66.565  1.00  0.00    -0.098 C  
BRANCH  10  11
HETATM   11  C   UNL     1      -7.904  11.067  67.111  1.00  0.00    -0.135 C  
BRANCH  11  12
HETATM   12  C   UNL     1      -6.595  11.825  67.305  1.00  0.00    -0.132 C  
BRANCH  12  13
HETATM   13  C   UNL     1      -6.837  13.327  67.418  1.00  0.00    -0.098 C  
BRANCH  13  14
HETATM   14  C   UNL     1      -8.321  13.620  67.628  1.00  0.00    -0.182 C  
BRANCH  14  15
HETATM   15  C   UNL     1      -8.527  14.731  68.653  1.00  0.00    -0.167 C  
HETATM   16  C   UNL     1      -9.714  15.600  68.305  1.00  0.00    -0.201 C  
HETATM   17  O   UNL     1      -9.906  16.588  69.210  1.00  0.00    -0.257 OA 
HETATM   18  O   UNL     1     -10.434  15.458  67.331  1.00  0.00    -0.266 OA 
ENDBRANCH  14  15
ENDBRANCH  13  14
ENDBRANCH  12  13
ENDBRANCH  11  12
ENDBRANCH  10  11
ENDBRANCH   9  10
ENDBRANCH   8   9
ENDBRANCH   7   8
ENDBRANCH   6   7
ENDBRANCH   5   6
ENDBRANCH   4   5
ENDBRANCH   3   4
ENDBRANCH   2   3
TORSDOF 13
ENDMDL
MODEL      455
REMARK 921   NORMALIZED FREE ENERGY PREDICTED BY IDOCK:   -2.03 KCAL/MOL
REMARK 922        TOTAL FREE ENERGY PREDICTED BY IDOCK:   -4.97 KCAL/MOL
REMARK 923 INTER-LIGAND FREE ENERGY PREDICTED BY IDOCK:   -4.06 KCAL/MOL
REMARK 924 INTRA-LIGAND FREE ENERGY PREDICTED BY IDOCK:   -0.91 KCAL/MOL
REMARK 927      BINDING AFFINITY PREDICTED BY RF-SCORE:    0.00 PKD
ROOT
HETATM    1  C   UNL     1      -8.524   5.685  66.535  1.00  0.00    -0.114 C  
HETATM    2  C   UNL     1      -9.333   6.667  67.364  1.00  0.00    -0.136 C  
ENDROOT
BRANCH   2   3
HETATM    3  C   UNL     1      -8.598   7.041  68.648  1.00  0.00    -0.120 C  
BRANCH   3   4
HETATM    4  C   UNL     1      -8.119   8.489  68.607  1.00  0.00    -0.121 C  
BRANCH   4   5
HETATM    5  C   UNL     1      -8.785   9.248  67.462  1.00  0.00    -0.116 C  
BRANCH   5   6
HETATM    6  C   UNL     1      -7.746   9.754  66.466  1.00  0.00    -0.105 C  
BRANCH   6   7
HETATM    7  C   UNL     1      -8.385  10.699  65.454  1.00  0.00    -0.142 C  
BRANCH   7   8
HETATM    8  C   UNL     1      -8.636   9.986  64.131  1.00  0.00    -0.195 C  
BRANCH   8   9
HETATM    9  C   UNL     1      -9.604  10.783  63.263  1.00  0.00    -0.384 C  
BRANCH   9  10
HETATM   10  C   UNL     1     -10.862  11.142  64.046  1.00  0.00    -0.351 C  
BRANCH  10  11
HETATM   11  C   UNL     1     -10.774  12.560  64.601  1.00  0.00    -0.341 C  
BRANCH  11  12
HETATM   12  C   UNL     1     -11.609  12.694  65.870  1.00  0.00    -0.443 C  
BRANCH  12  13
HETATM   13  C   UNL     1     -11.183  11.674  66.923  1.00  0.00    -0.376 C  
BRANCH  13  14
HETATM   14  C   UNL     1     -11.136  12.315  68.308  1.00  0.00    -0.282 C  
BRANCH  14  15
HETATM   15  C   UNL     1     -10.916  13.822  68.213  1.00  0.00    -0.269 C  
HETATM   16  C   UNL     1      -9.446  14.174  68.225  1.00  0.00    -0.211 C  
HETATM   17  O   UNL     1      -9.240  15.509  68.140  1.00  0.00    -0.186 OA 
HETATM   18  O   UNL     1      -8.527  13.375  68.301  1.00  0.00    -0.163 OA 
ENDBRANCH  14  15
ENDBRANCH  13  14
ENDBRANCH  12  13
ENDBRANCH  11  12
ENDBRANCH  10  11
ENDBRANCH   9  10
ENDBRANCH   8   9
ENDBRANCH   7   8
ENDBRANCH   6   7
ENDBRANCH   5   6
ENDBRANCH   4   5
ENDBRANCH   3   4
ENDBRANCH   2   3
TORSDOF 13
ENDMDL
MODEL      456
REMARK 921   NORMALIZED FREE ENERGY PREDICTED BY IDOCK:   -2.01 KCAL/MOL
REMARK 922        TOTAL FREE ENERGY PREDICTED BY IDOCK:   -4.94 KCAL/MOL
REMARK 923 INTER-LIGAND FREE ENERGY PREDICTED BY IDOCK:   -3.89 KCAL/MOL
REMARK 924 INTRA-LIGAND FREE ENERGY PREDICTED BY IDOCK:   -1.05 KCAL/MOL
REMARK 927      BINDING AFFINITY PREDICTED BY RF-SCORE:    0.00 PKD
ROOT
HETATM    1  C   UNL     1      -5.812   6.707  64.933  1.00  0.00    -0.031 C  
HETATM    2  C   UNL     1      -7.200   6.257  65.355  1.00  0.00    -0.070 C  
ENDROOT
BRANCH   2   3
HETATM    3  C   UNL     1      -8.126   7.452  65.567  1.00  0.00    -0.131 C  
BRANCH   3   4
HETATM    4  C   UNL     1      -8.516   7.591  67.036  1.00  0.00    -0.122 C  
BRANCH   4   5
HETATM    5  C   UNL     1      -7.534   8.496  67.775  1.00  0.00    -0.097 C  
BRANCH   5   6
HETATM    6  C   UNL     1      -7.337   9.812  67.029  1.00  0.00    -0.091 C  
BRANCH   6   7
HETATM    7  C   UNL     1      -7.428  10.994  67.988  1.00  0.00    -0.090 C  
BRANCH   7   8
HETATM    8  C   UNL     1      -6.878  12.260  67.341  1.00  0.00    -0.145 C  
BRANCH   8   9
HETATM    9  C   UNL     1      -7.853  13.420  67.508  1.00  0.00    -0.181 C  
BRANCH   9  10
HETATM   10  C   UNL     1      -9.237  12.911  67.895  1.00  0.00    -0.208 C  
BRANCH  10  11
HETATM   11  C   UNL     1     -10.330  13.705  67.187  1.00  0.00    -0.250 C  
BRANCH  11  12
HETATM   12  C   UNL     1     -11.711  13.221  67.616  1.00  0.00    -0.408 C  
BRANCH  12  13
HETATM   13  C   UNL     1     -11.717  12.793  69.081  1.00  0.00    -0.375 C  
BRANCH  13  14
HETATM   14  C   UNL     1     -12.065  11.312  69.209  1.00  0.00    -0.372 C  
BRANCH  14  15
HETATM   15  C   UNL     1     -11.874  10.820  70.641  1.00  0.00    -0.460 C  
HETATM   16  C   UNL     1     -10.933   9.639  70.705  1.00  0.00    -0.320 C  
HETATM   17  O   UNL     1     -10.757   9.196  71.972  1.00  0.00    -0.341 OA 
HETATM   18  O   UNL     1     -10.381   9.120  69.749  1.00  0.00    -0.199 OA 
ENDBRANCH  14  15
ENDBRANCH  13  14
ENDBRANCH  12  13
ENDBRANCH  11  12
ENDBRANCH  10  11
ENDBRANCH   9  10
ENDBRANCH   8   9
ENDBRANCH   7   8
ENDBRANCH   6   7
ENDBRANCH   5   6
ENDBRANCH   4   5
ENDBRANCH   3   4
ENDBRANCH   2   3
TORSDOF 13
ENDMDL
MODEL      457
REMARK 921   NORMALIZED FREE ENERGY PREDICTED BY IDOCK:   -2.00 KCAL/MOL
REMARK 922        TOTAL FREE ENERGY PREDICTED BY IDOCK:   -4.93 KCAL/MOL
REMARK 923 INTER-LIGAND FREE ENERGY PREDICTED BY IDOCK:   -3.93 KCAL/MOL
REMARK 924 INTRA-LIGAND FREE ENERGY PREDICTED BY IDOCK:   -1.01 KCAL/MOL
REMARK 927      BINDING AFFINITY PREDICTED BY RF-SCORE:    0.00 PKD
ROOT
HETATM    1  C   UNL     1     -11.916  14.589  69.359  1.00  0.00    -0.362 C  
HETATM    2  C   UNL     1     -11.048  14.221  68.168  1.00  0.00    -0.275 C  
ENDROOT
BRANCH   2   3
HETATM    3  C   UNL     1     -11.891  14.037  66.909  1.00  0.00    -0.458 C  
BRANCH   3   4
HETATM    4  C   UNL     1     -11.769  12.615  66.368  1.00  0.00    -0.466 C  
BRANCH   4   5
HETATM    5  C   UNL     1     -10.376  12.052  66.632  1.00  0.00    -0.237 C  
BRANCH   5   6
HETATM    6  C   UNL     1     -10.172  10.734  65.893  1.00  0.00    -0.319 C  
BRANCH   6   7
HETATM    7  C   UNL     1      -8.692  10.499  65.606  1.00  0.00    -0.191 C  
BRANCH   7   8
HETATM    8  C   UNL     1      -7.971  10.004  66.854  1.00  0.00    -0.113 C  
BRANCH   8   9
HETATM    9  C   UNL     1      -7.057  11.088  67.416  1.00  0.00    -0.095 C  
BRANCH   9  10
HETATM   10  C   UNL     1      -6.989  11.002  68.937  1.00  0.00    -0.088 C  
BRANCH  10  11
HETATM   11  C   UNL     1      -6.383   9.675  69.383  1.00  0.00    -0.040 C  
BRANCH  11  12
HETATM   12  C   UNL     1      -6.451   9.534  70.900  1.00  0.00    -0.094 C  
BRANCH  12  13
HETATM   13  C   UNL     1      -7.531   8.538  71.315  1.00  0.00    -0.107 C  
BRANCH  13  14
HETATM   14  C   UNL     1      -8.170   7.893  70.088  1.00  0.00    -0.125 C  
BRANCH  14  15
HETATM   15  C   UNL     1      -9.453   7.153  70.456  1.00  0.00    -0.162 C  
HETATM   16  C   UNL     1     -10.353   6.966  69.257  1.00  0.00    -0.198 C  
HETATM   17  O   UNL     1     -11.494   6.309  69.573  1.00  0.00    -0.428 OA 
HETATM   18  O   UNL     1     -10.114   7.350  68.123  1.00  0.00    -0.166 OA 
ENDBRANCH  14  15
ENDBRANCH  13  14
ENDBRANCH  12  13
ENDBRANCH  11  12
ENDBRANCH  10  11
ENDBRANCH   9  10
ENDBRANCH   8   9
ENDBRANCH   7   8
ENDBRANCH   6   7
ENDBRANCH   5   6
ENDBRANCH   4   5
ENDBRANCH   3   4
ENDBRANCH   2   3
TORSDOF 13
ENDMDL
MODEL      458
REMARK 921   NORMALIZED FREE ENERGY PREDICTED BY IDOCK:   -2.00 KCAL/MOL
REMARK 922        TOTAL FREE ENERGY PREDICTED BY IDOCK:   -4.92 KCAL/MOL
REMARK 923 INTER-LIGAND FREE ENERGY PREDICTED BY IDOCK:   -4.26 KCAL/MOL
REMARK 924 INTRA-LIGAND FREE ENERGY PREDICTED BY IDOCK:   -0.66 KCAL/MOL
REMARK 927      BINDING AFFINITY PREDICTED BY RF-SCORE:    0.00 PKD
ROOT
HETATM    1  C   UNL     1      -6.093  20.215  70.302  1.00  0.00    -0.393 C  
HETATM    2  C   UNL     1      -5.685  20.261  68.839  1.00  0.00    -0.316 C  
ENDROOT
BRANCH   2   3
HETATM    3  C   UNL     1      -6.300  19.102  68.059  1.00  0.00    -0.234 C  
BRANCH   3   4
HETATM    4  C   UNL     1      -5.291  17.976  67.860  1.00  0.00    -0.151 C  
BRANCH   4   5
HETATM    5  C   UNL     1      -5.482  16.883  68.908  1.00  0.00    -0.134 C  
BRANCH   5   6
HETATM    6  C   UNL     1      -6.603  15.931  68.504  1.00  0.00    -0.119 C  
BRANCH   6   7
HETATM    7  C   UNL     1      -7.099  15.139  69.710  1.00  0.00    -0.169 C  
BRANCH   7   8
HETATM    8  C   UNL     1      -6.784  13.656  69.551  1.00  0.00    -0.023 C  
BRANCH   8   9
HETATM    9  C   UNL     1      -7.411  13.105  68.275  1.00  0.00    -0.116 C  
BRANCH   9  10
HETATM   10  C   UNL     1      -7.644  11.603  68.392  1.00  0.00    -0.126 C  
BRANCH  10  11
HETATM   11  C   UNL     1      -8.853  11.171  67.569  1.00  0.00    -0.139 C  
BRANCH  11  12
HETATM   12  C   UNL     1      -9.295   9.765  67.960  1.00  0.00    -0.138 C  
BRANCH  12  13
HETATM   13  C   UNL     1     -10.632   9.790  68.695  1.00  0.00    -0.249 C  
BRANCH  13  14
HETATM   14  C   UNL     1     -10.420   9.993  70.193  1.00  0.00    -0.338 C  
BRANCH  14  15
HETATM   15  C   UNL     1     -11.552   9.367  71.003  1.00  0.00    -0.400 C  
HETATM   16  C   UNL     1     -12.628  10.376  71.331  1.00  0.00    -0.434 C  
HETATM   17  O   UNL     1     -13.638   9.830  72.048  1.00  0.00    -0.399 OA 
HETATM   18  O   UNL     1     -12.621  11.552  71.005  1.00  0.00    -0.383 OA 
ENDBRANCH  14  15
ENDBRANCH  13  14
ENDBRANCH  12  13
ENDBRANCH  11  12
ENDBRANCH  10  11
ENDBRANCH   9  10
ENDBRANCH   8   9
ENDBRANCH   7   8
ENDBRANCH   6   7
ENDBRANCH   5   6
ENDBRANCH   4   5
ENDBRANCH   3   4
ENDBRANCH   2   3
TORSDOF 13
ENDMDL
MODEL      459
REMARK 921   NORMALIZED FREE ENERGY PREDICTED BY IDOCK:   -1.99 KCAL/MOL
REMARK 922        TOTAL FREE ENERGY PREDICTED BY IDOCK:   -4.91 KCAL/MOL
REMARK 923 INTER-LIGAND FREE ENERGY PREDICTED BY IDOCK:   -3.74 KCAL/MOL
REMARK 924 INTRA-LIGAND FREE ENERGY PREDICTED BY IDOCK:   -1.16 KCAL/MOL
REMARK 927      BINDING AFFINITY PREDICTED BY RF-SCORE:    0.00 PKD
ROOT
HETATM    1  C   UNL     1     -11.003   3.476  73.604  1.00  0.00    -0.329 C  
HETATM    2  C   UNL     1     -11.716   4.755  73.198  1.00  0.00    -0.213 C  
ENDROOT
BRANCH   2   3
HETATM    3  C   UNL     1     -10.720   5.885  72.948  1.00  0.00    -0.281 C  
BRANCH   3   4
HETATM    4  C   UNL     1      -9.773   5.540  71.802  1.00  0.00    -0.202 C  
BRANCH   4   5
HETATM    5  C   UNL     1     -10.502   5.590  70.462  1.00  0.00    -0.347 C  
BRANCH   5   6
HETATM    6  C   UNL     1      -9.535   5.904  69.326  1.00  0.00    -0.154 C  
BRANCH   6   7
HETATM    7  C   UNL     1      -8.105   6.003  69.848  1.00  0.00    -0.117 C  
BRANCH   7   8
HETATM    8  C   UNL     1      -7.431   7.274  69.343  1.00  0.00    -0.092 C  
BRANCH   8   9
HETATM    9  C   UNL     1      -7.337   7.267  67.821  1.00  0.00    -0.093 C  
BRANCH   9  10
HETATM   10  C   UNL     1      -7.352   8.690  67.273  1.00  0.00    -0.088 C  
BRANCH  10  11
HETATM   11  C   UNL     1      -8.396   8.840  66.170  1.00  0.00    -0.126 C  
BRANCH  11  12
HETATM   12  C   UNL     1      -9.798   8.930  66.765  1.00  0.00    -0.308 C  
BRANCH  12  13
HETATM   13  C   UNL     1      -9.818   9.827  68.000  1.00  0.00    -0.173 C  
BRANCH  13  14
HETATM   14  C   UNL     1     -10.779  10.997  67.800  1.00  0.00    -0.270 C  
BRANCH  14  15
HETATM   15  C   UNL     1     -10.135  12.319  68.210  1.00  0.00    -0.218 C  
HETATM   16  C   UNL     1     -10.338  13.388  67.162  1.00  0.00    -0.246 C  
HETATM   17  O   UNL     1      -9.772  14.565  67.518  1.00  0.00    -0.208 OA 
HETATM   18  O   UNL     1     -10.936  13.243  66.108  1.00  0.00    -0.278 OA 
ENDBRANCH  14  15
ENDBRANCH  13  14
ENDBRANCH  12  13
ENDBRANCH  11  12
ENDBRANCH  10  11
ENDBRANCH   9  10
ENDBRANCH   8   9
ENDBRANCH   7   8
ENDBRANCH   6   7
ENDBRANCH   5   6
ENDBRANCH   4   5
ENDBRANCH   3   4
ENDBRANCH   2   3
TORSDOF 13
ENDMDL
MODEL      460
REMARK 921   NORMALIZED FREE ENERGY PREDICTED BY IDOCK:   -1.95 KCAL/MOL
REMARK 922        TOTAL FREE ENERGY PREDICTED BY IDOCK:   -4.84 KCAL/MOL
REMARK 923 INTER-LIGAND FREE ENERGY PREDICTED BY IDOCK:   -3.39 KCAL/MOL
REMARK 924 INTRA-LIGAND FREE ENERGY PREDICTED BY IDOCK:   -1.45 KCAL/MOL
REMARK 927      BINDING AFFINITY PREDICTED BY RF-SCORE:    0.00 PKD
ROOT
HETATM    1  C   UNL     1      -6.904   8.499  74.237  1.00  0.00    -0.164 C  
HETATM    2  C   UNL     1      -7.690   7.241  74.564  1.00  0.00    -0.164 C  
ENDROOT
BRANCH   2   3
HETATM    3  C   UNL     1      -7.866   6.364  73.327  1.00  0.00    -0.097 C  
BRANCH   3   4
HETATM    4  C   UNL     1      -6.539   6.170  72.597  1.00  0.00    -0.064 C  
BRANCH   4   5
HETATM    5  C   UNL     1      -6.773   5.816  71.131  1.00  0.00    -0.057 C  
BRANCH   5   6
HETATM    6  C   UNL     1      -8.177   5.257  70.922  1.00  0.00    -0.112 C  
BRANCH   6   7
HETATM    7  C   UNL     1      -8.869   5.956  69.756  1.00  0.00    -0.129 C  
BRANCH   7   8
HETATM    8  C   UNL     1     -10.295   5.447  69.588  1.00  0.00    -0.361 C  
BRANCH   8   9
HETATM    9  C   UNL     1     -11.225   6.097  70.608  1.00  0.00    -0.387 C  
BRANCH   9  10
HETATM   10  C   UNL     1     -10.640   7.412  71.110  1.00  0.00    -0.235 C  
BRANCH  10  11
HETATM   11  C   UNL     1     -11.117   8.584  70.257  1.00  0.00    -0.222 C  
BRANCH  11  12
HETATM   12  C   UNL     1     -10.011   9.622  70.103  1.00  0.00    -0.309 C  
BRANCH  12  13
HETATM   13  C   UNL     1      -9.572   9.751  68.647  1.00  0.00    -0.155 C  
BRANCH  13  14
HETATM   14  C   UNL     1     -10.511   8.972  67.730  1.00  0.00    -0.305 C  
BRANCH  14  15
HETATM   15  C   UNL     1      -9.733   8.194  66.672  1.00  0.00    -0.318 C  
HETATM   16  C   UNL     1      -9.519   9.014  65.421  1.00  0.00    -0.092 C  
HETATM   17  O   UNL     1      -8.828   8.333  64.477  1.00  0.00     0.065 OA 
HETATM   18  O   UNL     1      -9.908  10.157  65.247  1.00  0.00    -0.280 OA 
ENDBRANCH  14  15
ENDBRANCH  13  14
ENDBRANCH  12  13
ENDBRANCH  11  12
ENDBRANCH  10  11
ENDBRANCH   9  10
ENDBRANCH   8   9
ENDBRANCH   7   8
ENDBRANCH   6   7
ENDBRANCH   5   6
ENDBRANCH   4   5
ENDBRANCH   3   4
ENDBRANCH   2   3
TORSDOF 13
ENDMDL
MODEL      461
REMARK 921   NORMALIZED FREE ENERGY PREDICTED BY IDOCK:   -1.95 KCAL/MOL
REMARK 922        TOTAL FREE ENERGY PREDICTED BY IDOCK:   -4.83 KCAL/MOL
REMARK 923 INTER-LIGAND FREE ENERGY PREDICTED BY IDOCK:   -3.31 KCAL/MOL
REMARK 924 INTRA-LIGAND FREE ENERGY PREDICTED BY IDOCK:   -1.53 KCAL/MOL
REMARK 927      BINDING AFFINITY PREDICTED BY RF-SCORE:    0.00 PKD
ROOT
HETATM    1  C   UNL     1     -11.174   3.411  73.395  1.00  0.00    -0.255 C  
HETATM    2  C   UNL     1     -11.449   4.884  73.643  1.00  0.00    -0.035 C  
ENDROOT
BRANCH   2   3
HETATM    3  C   UNL     1     -10.148   5.677  73.748  1.00  0.00    -0.220 C  
BRANCH   3   4
HETATM    4  C   UNL     1      -9.355   5.609  72.446  1.00  0.00    -0.154 C  
BRANCH   4   5
HETATM    5  C   UNL     1     -10.024   6.447  71.360  1.00  0.00    -0.206 C  
BRANCH   5   6
HETATM    6  C   UNL     1      -9.009   7.351  70.667  1.00  0.00    -0.155 C  
BRANCH   6   7
HETATM    7  C   UNL     1      -9.290   8.817  70.981  1.00  0.00    -0.280 C  
BRANCH   7   8
HETATM    8  C   UNL     1     -10.382   9.366  70.071  1.00  0.00    -0.265 C  
BRANCH   8   9
HETATM    9  C   UNL     1      -9.827   9.673  68.684  1.00  0.00    -0.171 C  
BRANCH   9  10
HETATM   10  C   UNL     1     -10.770   9.165  67.600  1.00  0.00    -0.257 C  
BRANCH  10  11
HETATM   11  C   UNL     1      -9.997   8.473  66.482  1.00  0.00    -0.350 C  
BRANCH  11  12
HETATM   12  C   UNL     1      -9.402   7.158  66.973  1.00  0.00    -0.181 C  
BRANCH  12  13
HETATM   13  C   UNL     1     -10.268   5.970  66.561  1.00  0.00    -0.200 C  
BRANCH  13  14
HETATM   14  C   UNL     1      -9.459   4.676  66.595  1.00  0.00    -0.173 C  
BRANCH  14  15
HETATM   15  C   UNL     1      -8.322   4.759  67.609  1.00  0.00    -0.104 C  
HETATM   16  C   UNL     1      -8.593   3.903  68.824  1.00  0.00    -0.089 C  
HETATM   17  O   UNL     1      -7.589   3.969  69.729  1.00  0.00    -0.052 OA 
HETATM   18  O   UNL     1      -9.589   3.220  69.002  1.00  0.00    -0.159 OA 
ENDBRANCH  14  15
ENDBRANCH  13  14
ENDBRANCH  12  13
ENDBRANCH  11  12
ENDBRANCH  10  11
ENDBRANCH   9  10
ENDBRANCH   8   9
ENDBRANCH   7   8
ENDBRANCH   6   7
ENDBRANCH   5   6
ENDBRANCH   4   5
ENDBRANCH   3   4
ENDBRANCH   2   3
TORSDOF 13
ENDMDL
MODEL      462
REMARK 921   NORMALIZED FREE ENERGY PREDICTED BY IDOCK:   -1.94 KCAL/MOL
REMARK 922        TOTAL FREE ENERGY PREDICTED BY IDOCK:   -4.82 KCAL/MOL
REMARK 923 INTER-LIGAND FREE ENERGY PREDICTED BY IDOCK:   -4.25 KCAL/MOL
REMARK 924 INTRA-LIGAND FREE ENERGY PREDICTED BY IDOCK:   -0.58 KCAL/MOL
REMARK 927      BINDING AFFINITY PREDICTED BY RF-SCORE:    0.00 PKD
ROOT
HETATM    1  C   UNL     1      -9.440   8.292  72.477  1.00  0.00    -0.356 C  
HETATM    2  C   UNL     1      -8.895   7.159  71.624  1.00  0.00    -0.121 C  
ENDROOT
BRANCH   2   3
HETATM    3  C   UNL     1      -9.691   7.012  70.329  1.00  0.00    -0.177 C  
BRANCH   3   4
HETATM    4  C   UNL     1      -9.916   5.543  69.986  1.00  0.00    -0.285 C  
BRANCH   4   5
HETATM    5  C   UNL     1     -10.873   5.402  68.805  1.00  0.00     0.003 C  
BRANCH   5   6
HETATM    6  C   UNL     1     -10.106   5.243  67.497  1.00  0.00    -0.222 C  
BRANCH   6   7
HETATM    7  C   UNL     1     -10.227   6.502  66.644  1.00  0.00    -0.209 C  
BRANCH   7   8
HETATM    8  C   UNL     1      -8.865   7.155  66.444  1.00  0.00    -0.161 C  
BRANCH   8   9
HETATM    9  C   UNL     1      -8.838   8.548  67.064  1.00  0.00    -0.144 C  
BRANCH   9  10
HETATM   10  C   UNL     1     -10.133   9.296  66.768  1.00  0.00    -0.331 C  
BRANCH  10  11
HETATM   11  C   UNL     1     -10.014  10.109  65.483  1.00  0.00    -0.363 C  
BRANCH  11  12
HETATM   12  C   UNL     1      -9.254  11.407  65.736  1.00  0.00    -0.223 C  
BRANCH  12  13
HETATM   13  C   UNL     1     -10.137  12.440  66.430  1.00  0.00    -0.252 C  
BRANCH  13  14
HETATM   14  C   UNL     1     -11.371  11.774  67.036  1.00  0.00    -0.387 C  
BRANCH  14  15
HETATM   15  C   UNL     1     -11.872  12.540  68.256  1.00  0.00    -0.361 C  
HETATM   16  C   UNL     1     -11.373  11.927  69.544  1.00  0.00    -0.236 C  
HETATM   17  O   UNL     1     -11.811  12.602  70.633  1.00  0.00    -0.208 OA 
HETATM   18  O   UNL     1     -10.659  10.941  69.630  1.00  0.00    -0.214 OA 
ENDBRANCH  14  15
ENDBRANCH  13  14
ENDBRANCH  12  13
ENDBRANCH  11  12
ENDBRANCH  10  11
ENDBRANCH   9  10
ENDBRANCH   8   9
ENDBRANCH   7   8
ENDBRANCH   6   7
ENDBRANCH   5   6
ENDBRANCH   4   5
ENDBRANCH   3   4
ENDBRANCH   2   3
TORSDOF 13
ENDMDL
MODEL      463
REMARK 921   NORMALIZED FREE ENERGY PREDICTED BY IDOCK:   -1.93 KCAL/MOL
REMARK 922        TOTAL FREE ENERGY PREDICTED BY IDOCK:   -4.81 KCAL/MOL
REMARK 923 INTER-LIGAND FREE ENERGY PREDICTED BY IDOCK:   -3.49 KCAL/MOL
REMARK 924 INTRA-LIGAND FREE ENERGY PREDICTED BY IDOCK:   -1.32 KCAL/MOL
REMARK 927      BINDING AFFINITY PREDICTED BY RF-SCORE:    0.00 PKD
ROOT
HETATM    1  C   UNL     1      -7.317   8.582  74.547  1.00  0.00    -0.230 C  
HETATM    2  C   UNL     1      -8.199   8.003  73.453  1.00  0.00    -0.259 C  
ENDROOT
BRANCH   2   3
HETATM    3  C   UNL     1      -7.568   8.199  72.076  1.00  0.00    -0.129 C  
BRANCH   3   4
HETATM    4  C   UNL     1      -6.183   8.828  72.190  1.00  0.00    -0.069 C  
BRANCH   4   5
HETATM    5  C   UNL     1      -5.972   9.876  71.100  1.00  0.00    -0.037 C  
BRANCH   5   6
HETATM    6  C   UNL     1      -6.638   9.448  69.797  1.00  0.00    -0.045 C  
BRANCH   6   7
HETATM    7  C   UNL     1      -7.709  10.452  69.384  1.00  0.00    -0.158 C  
BRANCH   7   8
HETATM    8  C   UNL     1      -8.679   9.831  68.386  1.00  0.00    -0.120 C  
BRANCH   8   9
HETATM    9  C   UNL     1      -8.090   8.562  67.778  1.00  0.00    -0.115 C  
BRANCH   9  10
HETATM   10  C   UNL     1      -8.424   7.347  68.636  1.00  0.00    -0.129 C  
BRANCH  10  11
HETATM   11  C   UNL     1      -9.933   7.188  68.794  1.00  0.00    -0.163 C  
BRANCH  11  12
HETATM   12  C   UNL     1     -10.267   6.498  70.113  1.00  0.00    -0.226 C  
BRANCH  12  13
HETATM   13  C   UNL     1     -11.450   7.169  70.804  1.00  0.00    -0.342 C  
BRANCH  13  14
HETATM   14  C   UNL     1     -11.348   8.689  70.695  1.00  0.00    -0.277 C  
BRANCH  14  15
HETATM   15  C   UNL     1     -12.387   9.379  71.574  1.00  0.00    -0.452 C  
HETATM   16  C   UNL     1     -12.753  10.744  71.040  1.00  0.00    -0.415 C  
HETATM   17  O   UNL     1     -13.676  11.364  71.814  1.00  0.00    -0.030 OA 
HETATM   18  O   UNL     1     -12.291  11.260  70.036  1.00  0.00    -0.292 OA 
ENDBRANCH  14  15
ENDBRANCH  13  14
ENDBRANCH  12  13
ENDBRANCH  11  12
ENDBRANCH  10  11
ENDBRANCH   9  10
ENDBRANCH   8   9
ENDBRANCH   7   8
ENDBRANCH   6   7
ENDBRANCH   5   6
ENDBRANCH   4   5
ENDBRANCH   3   4
ENDBRANCH   2   3
TORSDOF 13
ENDMDL
MODEL      464
REMARK 921   NORMALIZED FREE ENERGY PREDICTED BY IDOCK:   -1.93 KCAL/MOL
REMARK 922        TOTAL FREE ENERGY PREDICTED BY IDOCK:   -4.80 KCAL/MOL
REMARK 923 INTER-LIGAND FREE ENERGY PREDICTED BY IDOCK:   -4.28 KCAL/MOL
REMARK 924 INTRA-LIGAND FREE ENERGY PREDICTED BY IDOCK:   -0.51 KCAL/MOL
REMARK 927      BINDING AFFINITY PREDICTED BY RF-SCORE:    0.00 PKD
ROOT
HETATM    1  C   UNL     1     -14.411   7.302  71.726  1.00  0.00    -0.560 C  
HETATM    2  C   UNL     1     -14.381   8.717  72.278  1.00  0.00    -0.486 C  
ENDROOT
BRANCH   2   3
HETATM    3  C   UNL     1     -12.960   9.276  72.285  1.00  0.00    -0.488 C  
BRANCH   3   4
HETATM    4  C   UNL     1     -12.937  10.726  71.810  1.00  0.00    -0.568 C  
BRANCH   4   5
HETATM    5  C   UNL     1     -11.819  10.946  70.796  1.00  0.00    -0.424 C  
BRANCH   5   6
HETATM    6  C   UNL     1     -10.870   9.753  70.762  1.00  0.00    -0.403 C  
BRANCH   6   7
HETATM    7  C   UNL     1     -11.372   8.691  69.789  1.00  0.00     0.112 C  
BRANCH   7   8
HETATM    8  C   UNL     1     -11.077   7.291  70.314  1.00  0.00    -0.289 C  
BRANCH   8   9
HETATM    9  C   UNL     1     -10.492   6.413  69.213  1.00  0.00    -0.277 C  
BRANCH   9  10
HETATM   10  C   UNL     1     -10.406   4.961  69.669  1.00  0.00    -0.177 C  
BRANCH  10  11
HETATM   11  C   UNL     1      -9.076   4.337  69.257  1.00  0.00    -0.182 C  
BRANCH  11  12
HETATM   12  C   UNL     1      -8.914   2.955  69.882  1.00  0.00    -0.171 C  
BRANCH  12  13
HETATM   13  C   UNL     1      -7.771   2.935  70.893  1.00  0.00    -0.039 C  
BRANCH  13  14
HETATM   14  C   UNL     1      -8.297   3.180  72.306  1.00  0.00    -0.076 C  
BRANCH  14  15
HETATM   15  C   UNL     1      -7.923   4.573  72.802  1.00  0.00    -0.092 C  
HETATM   16  C   UNL     1      -6.895   4.514  73.908  1.00  0.00    -0.065 C  
HETATM   17  O   UNL     1      -6.555   5.747  74.355  1.00  0.00    -0.073 OA 
HETATM   18  O   UNL     1      -6.407   3.496  74.370  1.00  0.00    -0.023 OA 
ENDBRANCH  14  15
ENDBRANCH  13  14
ENDBRANCH  12  13
ENDBRANCH  11  12
ENDBRANCH  10  11
ENDBRANCH   9  10
ENDBRANCH   8   9
ENDBRANCH   7   8
ENDBRANCH   6   7
ENDBRANCH   5   6
ENDBRANCH   4   5
ENDBRANCH   3   4
ENDBRANCH   2   3
TORSDOF 13
ENDMDL
MODEL      465
REMARK 921   NORMALIZED FREE ENERGY PREDICTED BY IDOCK:   -1.92 KCAL/MOL
REMARK 922        TOTAL FREE ENERGY PREDICTED BY IDOCK:   -4.79 KCAL/MOL
REMARK 923 INTER-LIGAND FREE ENERGY PREDICTED BY IDOCK:   -3.90 KCAL/MOL
REMARK 924 INTRA-LIGAND FREE ENERGY PREDICTED BY IDOCK:   -0.89 KCAL/MOL
REMARK 927      BINDING AFFINITY PREDICTED BY RF-SCORE:    0.00 PKD
ROOT
HETATM    1  C   UNL     1      -6.036   3.298  73.536  1.00  0.00    -0.015 C  
HETATM    2  C   UNL     1      -7.107   2.845  74.514  1.00  0.00    -0.041 C  
ENDROOT
BRANCH   2   3
HETATM    3  C   UNL     1      -8.488   2.857  73.864  1.00  0.00    -0.073 C  
BRANCH   3   4
HETATM    4  C   UNL     1      -9.170   4.209  74.047  1.00  0.00    -0.105 C  
BRANCH   4   5
HETATM    5  C   UNL     1     -10.287   4.396  73.024  1.00  0.00    -0.241 C  
BRANCH   5   6
HETATM    6  C   UNL     1     -10.105   3.454  71.839  1.00  0.00    -0.156 C  
BRANCH   6   7
HETATM    7  C   UNL     1      -9.539   4.202  70.637  1.00  0.00    -0.264 C  
BRANCH   7   8
HETATM    8  C   UNL     1      -9.990   5.658  70.643  1.00  0.00    -0.260 C  
BRANCH   8   9
HETATM    9  C   UNL     1      -9.132   6.494  69.699  1.00  0.00    -0.141 C  
BRANCH   9  10
HETATM   10  C   UNL     1      -9.925   7.675  69.152  1.00  0.00    -0.181 C  
BRANCH  10  11
HETATM   11  C   UNL     1     -10.689   8.384  70.267  1.00  0.00    -0.240 C  
BRANCH  11  12
HETATM   12  C   UNL     1     -10.731   9.888  70.019  1.00  0.00    -0.338 C  
BRANCH  12  13
HETATM   13  C   UNL     1     -10.738  10.202  68.525  1.00  0.00    -0.264 C  
BRANCH  13  14
HETATM   14  C   UNL     1     -10.375  11.665  68.280  1.00  0.00    -0.212 C  
BRANCH  14  15
HETATM   15  C   UNL     1     -10.058  11.919  66.809  1.00  0.00    -0.225 C  
HETATM   16  C   UNL     1     -11.287  12.340  66.038  1.00  0.00    -0.350 C  
HETATM   17  O   UNL     1     -11.015  12.569  64.732  1.00  0.00    -0.284 OA 
HETATM   18  O   UNL     1     -12.407  12.469  66.504  1.00  0.00    -0.507 OA 
ENDBRANCH  14  15
ENDBRANCH  13  14
ENDBRANCH  12  13
ENDBRANCH  11  12
ENDBRANCH  10  11
ENDBRANCH   9  10
ENDBRANCH   8   9
ENDBRANCH   7   8
ENDBRANCH   6   7
ENDBRANCH   5   6
ENDBRANCH   4   5
ENDBRANCH   3   4
ENDBRANCH   2   3
TORSDOF 13
ENDMDL
MODEL      466
REMARK 921   NORMALIZED FREE ENERGY PREDICTED BY IDOCK:   -1.91 KCAL/MOL
REMARK 922        TOTAL FREE ENERGY PREDICTED BY IDOCK:   -4.77 KCAL/MOL
REMARK 923 INTER-LIGAND FREE ENERGY PREDICTED BY IDOCK:   -3.99 KCAL/MOL
REMARK 924 INTRA-LIGAND FREE ENERGY PREDICTED BY IDOCK:   -0.78 KCAL/MOL
REMARK 927      BINDING AFFINITY PREDICTED BY RF-SCORE:    0.00 PKD
ROOT
HETATM    1  C   UNL     1      -9.969  10.109  66.573  1.00  0.00    -0.283 C  
HETATM    2  C   UNL     1      -8.883   9.054  66.454  1.00  0.00    -0.172 C  
ENDROOT
BRANCH   2   3
HETATM    3  C   UNL     1      -7.723   9.347  67.402  1.00  0.00    -0.095 C  
BRANCH   3   4
HETATM    4  C   UNL     1      -6.474   9.765  66.632  1.00  0.00    -0.070 C  
BRANCH   4   5
HETATM    5  C   UNL     1      -5.416  10.326  67.577  1.00  0.00    -0.041 C  
BRANCH   5   6
HETATM    6  C   UNL     1      -6.056  11.183  68.664  1.00  0.00    -0.043 C  
BRANCH   6   7
HETATM    7  C   UNL     1      -5.482  12.596  68.645  1.00  0.00    -0.059 C  
BRANCH   7   8
HETATM    8  C   UNL     1      -6.060  13.431  69.782  1.00  0.00    -0.128 C  
BRANCH   8   9
HETATM    9  C   UNL     1      -6.715  14.698  69.243  1.00  0.00    -0.134 C  
BRANCH   9  10
HETATM   10  C   UNL     1      -6.979  14.575  67.747  1.00  0.00    -0.194 C  
BRANCH  10  11
HETATM   11  C   UNL     1      -7.595  15.856  67.192  1.00  0.00    -0.255 C  
BRANCH  11  12
HETATM   12  C   UNL     1      -8.749  16.324  68.073  1.00  0.00    -0.178 C  
BRANCH  12  13
HETATM   13  C   UNL     1      -8.787  17.846  68.173  1.00  0.00    -0.265 C  
BRANCH  13  14
HETATM   14  C   UNL     1     -10.228  18.345  68.262  1.00  0.00    -0.412 C  
BRANCH  14  15
HETATM   15  C   UNL     1     -10.453  19.552  67.357  1.00  0.00    -0.593 C  
HETATM   16  C   UNL     1     -10.778  19.136  65.941  1.00  0.00    -0.351 C  
HETATM   17  O   UNL     1     -10.982  20.201  65.130  1.00  0.00    -0.231 OA 
HETATM   18  O   UNL     1     -10.856  17.986  65.540  1.00  0.00    -0.483 OA 
ENDBRANCH  14  15
ENDBRANCH  13  14
ENDBRANCH  12  13
ENDBRANCH  11  12
ENDBRANCH  10  11
ENDBRANCH   9  10
ENDBRANCH   8   9
ENDBRANCH   7   8
ENDBRANCH   6   7
ENDBRANCH   5   6
ENDBRANCH   4   5
ENDBRANCH   3   4
ENDBRANCH   2   3
TORSDOF 13
ENDMDL
MODEL      467
REMARK 921   NORMALIZED FREE ENERGY PREDICTED BY IDOCK:   -1.89 KCAL/MOL
REMARK 922        TOTAL FREE ENERGY PREDICTED BY IDOCK:   -4.74 KCAL/MOL
REMARK 923 INTER-LIGAND FREE ENERGY PREDICTED BY IDOCK:   -3.91 KCAL/MOL
REMARK 924 INTRA-LIGAND FREE ENERGY PREDICTED BY IDOCK:   -0.82 KCAL/MOL
REMARK 927      BINDING AFFINITY PREDICTED BY RF-SCORE:    0.00 PKD
ROOT
HETATM    1  C   UNL     1      -6.217  19.848  70.000  1.00  0.00    -0.385 C  
HETATM    2  C   UNL     1      -6.991  19.821  68.693  1.00  0.00    -0.363 C  
ENDROOT
BRANCH   2   3
HETATM    3  C   UNL     1      -7.830  18.550  68.576  1.00  0.00    -0.341 C  
BRANCH   3   4
HETATM    4  C   UNL     1      -7.110  17.490  67.749  1.00  0.00    -0.187 C  
BRANCH   4   5
HETATM    5  C   UNL     1      -7.974  16.241  67.598  1.00  0.00    -0.160 C  
BRANCH   5   6
HETATM    6  C   UNL     1      -8.762  16.278  66.292  1.00  0.00    -0.370 C  
BRANCH   6   7
HETATM    7  C   UNL     1     -10.244  16.517  66.563  1.00  0.00    -0.305 C  
BRANCH   7   8
HETATM    8  C   UNL     1     -10.914  15.244  67.067  1.00  0.00    -0.324 C  
BRANCH   8   9
HETATM    9  C   UNL     1     -11.008  14.206  65.954  1.00  0.00    -0.297 C  
BRANCH   9  10
HETATM   10  C   UNL     1     -10.243  12.942  66.328  1.00  0.00    -0.285 C  
BRANCH  10  11
HETATM   11  C   UNL     1     -10.702  11.755  65.488  1.00  0.00    -0.329 C  
BRANCH  11  12
HETATM   12  C   UNL     1      -9.601  10.703  65.396  1.00  0.00    -0.282 C  
BRANCH  12  13
HETATM   13  C   UNL     1      -8.439  11.193  64.537  1.00  0.00     0.312 C  
BRANCH  13  14
HETATM   14  C   UNL     1      -8.510  10.587  63.137  1.00  0.00    -0.167 C  
BRANCH  14  15
HETATM   15  C   UNL     1      -8.877   9.107  63.191  1.00  0.00    -0.102 C  
HETATM   16  C   UNL     1      -7.652   8.225  63.116  1.00  0.00    -0.127 C  
HETATM   17  O   UNL     1      -7.967   6.909  63.165  1.00  0.00    -0.115 OA 
HETATM   18  O   UNL     1      -6.500   8.617  63.020  1.00  0.00    -0.090 OA 
ENDBRANCH  14  15
ENDBRANCH  13  14
ENDBRANCH  12  13
ENDBRANCH  11  12
ENDBRANCH  10  11
ENDBRANCH   9  10
ENDBRANCH   8   9
ENDBRANCH   7   8
ENDBRANCH   6   7
ENDBRANCH   5   6
ENDBRANCH   4   5
ENDBRANCH   3   4
ENDBRANCH   2   3
TORSDOF 13
ENDMDL
MODEL      468
REMARK 921   NORMALIZED FREE ENERGY PREDICTED BY IDOCK:   -1.87 KCAL/MOL
REMARK 922        TOTAL FREE ENERGY PREDICTED BY IDOCK:   -4.69 KCAL/MOL
REMARK 923 INTER-LIGAND FREE ENERGY PREDICTED BY IDOCK:   -3.61 KCAL/MOL
REMARK 924 INTRA-LIGAND FREE ENERGY PREDICTED BY IDOCK:   -1.08 KCAL/MOL
REMARK 927      BINDING AFFINITY PREDICTED BY RF-SCORE:    0.00 PKD
ROOT
HETATM    1  C   UNL     1     -12.004  14.231  69.501  1.00  0.00    -0.384 C  
HETATM    2  C   UNL     1     -11.079  13.233  68.825  1.00  0.00    -0.303 C  
ENDROOT
BRANCH   2   3
HETATM    3  C   UNL     1     -11.822  12.423  67.766  1.00  0.00    -0.362 C  
BRANCH   3   4
HETATM    4  C   UNL     1     -11.258  11.009  67.659  1.00  0.00    -0.373 C  
BRANCH   4   5
HETATM    5  C   UNL     1      -9.773  10.989  68.009  1.00  0.00    -0.181 C  
BRANCH   5   6
HETATM    6  C   UNL     1      -8.982  10.185  66.983  1.00  0.00    -0.148 C  
BRANCH   6   7
HETATM    7  C   UNL     1      -7.482  10.345  67.211  1.00  0.00    -0.094 C  
BRANCH   7   8
HETATM    8  C   UNL     1      -6.937   9.198  68.054  1.00  0.00    -0.077 C  
BRANCH   8   9
HETATM    9  C   UNL     1      -6.737   9.638  69.501  1.00  0.00    -0.051 C  
BRANCH   9  10
HETATM   10  C   UNL     1      -7.417   8.668  70.459  1.00  0.00    -0.071 C  
BRANCH  10  11
HETATM   11  C   UNL     1      -7.189   7.222  70.027  1.00  0.00    -0.078 C  
BRANCH  11  12
HETATM   12  C   UNL     1      -8.264   6.311  70.608  1.00  0.00    -0.125 C  
BRANCH  12  13
HETATM   13  C   UNL     1      -9.528   6.332  69.754  1.00  0.00    -0.163 C  
BRANCH  13  14
HETATM   14  C   UNL     1     -10.759   6.021  70.603  1.00  0.00    -0.341 C  
BRANCH  14  15
HETATM   15  C   UNL     1     -10.546   6.429  72.058  1.00  0.00    -0.244 C  
HETATM   16  C   UNL     1     -10.684   5.251  72.994  1.00  0.00    -0.257 C  
HETATM   17  O   UNL     1     -10.495   5.604  74.288  1.00  0.00    -0.274 OA 
HETATM   18  O   UNL     1     -10.937   4.105  72.660  1.00  0.00    -0.083 OA 
ENDBRANCH  14  15
ENDBRANCH  13  14
ENDBRANCH  12  13
ENDBRANCH  11  12
ENDBRANCH  10  11
ENDBRANCH   9  10
ENDBRANCH   8   9
ENDBRANCH   7   8
ENDBRANCH   6   7
ENDBRANCH   5   6
ENDBRANCH   4   5
ENDBRANCH   3   4
ENDBRANCH   2   3
TORSDOF 13
ENDMDL
MODEL      469
REMARK 921   NORMALIZED FREE ENERGY PREDICTED BY IDOCK:   -1.80 KCAL/MOL
REMARK 922        TOTAL FREE ENERGY PREDICTED BY IDOCK:   -4.58 KCAL/MOL
REMARK 923 INTER-LIGAND FREE ENERGY PREDICTED BY IDOCK:   -3.54 KCAL/MOL
REMARK 924 INTRA-LIGAND FREE ENERGY PREDICTED BY IDOCK:   -1.04 KCAL/MOL
REMARK 927      BINDING AFFINITY PREDICTED BY RF-SCORE:    0.00 PKD
ROOT
HETATM    1  C   UNL     1      -5.931   7.578  64.175  1.00  0.00    -0.048 C  
HETATM    2  C   UNL     1      -7.296   7.060  64.596  1.00  0.00    -0.090 C  
ENDROOT
BRANCH   2   3
HETATM    3  C   UNL     1      -8.265   8.211  64.855  1.00  0.00    -0.150 C  
BRANCH   3   4
HETATM    4  C   UNL     1      -8.625   8.304  66.336  1.00  0.00    -0.144 C  
BRANCH   4   5
HETATM    5  C   UNL     1      -7.718   9.301  67.053  1.00  0.00    -0.095 C  
BRANCH   5   6
HETATM    6  C   UNL     1      -7.692  10.638  66.320  1.00  0.00    -0.143 C  
BRANCH   6   7
HETATM    7  C   UNL     1      -7.762  11.797  67.310  1.00  0.00    -0.158 C  
BRANCH   7   8
HETATM    8  C   UNL     1      -6.422  12.517  67.398  1.00  0.00    -0.153 C  
BRANCH   8   9
HETATM    9  C   UNL     1      -6.623  14.000  67.689  1.00  0.00    -0.175 C  
BRANCH   9  10
HETATM   10  C   UNL     1      -8.080  14.398  67.482  1.00  0.00    -0.204 C  
BRANCH  10  11
HETATM   11  C   UNL     1      -8.187  15.811  66.918  1.00  0.00    -0.288 C  
BRANCH  11  12
HETATM   12  C   UNL     1      -9.640  16.272  66.892  1.00  0.00    -0.244 C  
BRANCH  12  13
HETATM   13  C   UNL     1     -10.597  15.093  67.040  1.00  0.00    -0.300 C  
BRANCH  13  14
HETATM   14  C   UNL     1     -11.461  14.939  65.790  1.00  0.00    -0.281 C  
BRANCH  14  15
HETATM   15  C   UNL     1     -12.137  13.572  65.748  1.00  0.00    -0.473 C  
HETATM   16  C   UNL     1     -11.700  12.769  64.545  1.00  0.00    -0.366 C  
HETATM   17  O   UNL     1     -12.293  11.553  64.500  1.00  0.00     0.024 OA 
HETATM   18  O   UNL     1     -10.909  13.141  63.694  1.00  0.00    -0.253 OA 
ENDBRANCH  14  15
ENDBRANCH  13  14
ENDBRANCH  12  13
ENDBRANCH  11  12
ENDBRANCH  10  11
ENDBRANCH   9  10
ENDBRANCH   8   9
ENDBRANCH   7   8
ENDBRANCH   6   7
ENDBRANCH   5   6
ENDBRANCH   4   5
ENDBRANCH   3   4
ENDBRANCH   2   3
TORSDOF 13
ENDMDL
MODEL      470
REMARK 921   NORMALIZED FREE ENERGY PREDICTED BY IDOCK:   -1.79 KCAL/MOL
REMARK 922        TOTAL FREE ENERGY PREDICTED BY IDOCK:   -4.55 KCAL/MOL
REMARK 923 INTER-LIGAND FREE ENERGY PREDICTED BY IDOCK:   -3.72 KCAL/MOL
REMARK 924 INTRA-LIGAND FREE ENERGY PREDICTED BY IDOCK:   -0.84 KCAL/MOL
REMARK 927      BINDING AFFINITY PREDICTED BY RF-SCORE:    0.00 PKD
ROOT
HETATM    1  C   UNL     1      -6.054  20.233  70.296  1.00  0.00    -0.363 C  
HETATM    2  C   UNL     1      -5.573  20.315  68.857  1.00  0.00    -0.302 C  
ENDROOT
BRANCH   2   3
HETATM    3  C   UNL     1      -6.205  19.221  68.001  1.00  0.00    -0.231 C  
BRANCH   3   4
HETATM    4  C   UNL     1      -5.252  18.042  67.824  1.00  0.00    -0.143 C  
BRANCH   4   5
HETATM    5  C   UNL     1      -5.556  16.941  68.836  1.00  0.00    -0.135 C  
BRANCH   5   6
HETATM    6  C   UNL     1      -6.730  16.084  68.374  1.00  0.00    -0.120 C  
BRANCH   6   7
HETATM    7  C   UNL     1      -7.335  15.319  69.547  1.00  0.00    -0.210 C  
BRANCH   7   8
HETATM    8  C   UNL     1      -7.139  13.818  69.373  1.00  0.00     0.052 C  
BRANCH   8   9
HETATM    9  C   UNL     1      -7.775  13.337  68.073  1.00  0.00    -0.147 C  
BRANCH   9  10
HETATM   10  C   UNL     1      -8.173  11.869  68.177  1.00  0.00    -0.158 C  
BRANCH  10  11
HETATM   11  C   UNL     1      -9.455  11.593  67.397  1.00  0.00    -0.171 C  
BRANCH  11  12
HETATM   12  C   UNL     1     -10.483  10.894  68.280  1.00  0.00    -0.205 C  
BRANCH  12  13
HETATM   13  C   UNL     1     -11.590  11.854  68.706  1.00  0.00    -0.366 C  
BRANCH  13  14
HETATM   14  C   UNL     1     -11.168  12.652  69.937  1.00  0.00     0.099 C  
BRANCH  14  15
HETATM   15  C   UNL     1     -12.378  13.062  70.773  1.00  0.00    -0.394 C  
HETATM   16  C   UNL     1     -12.833  14.465  70.446  1.00  0.00    -0.245 C  
HETATM   17  O   UNL     1     -13.906  14.838  71.181  1.00  0.00    -0.398 OA 
HETATM   18  O   UNL     1     -12.317  15.205  69.623  1.00  0.00    -0.281 OA 
ENDBRANCH  14  15
ENDBRANCH  13  14
ENDBRANCH  12  13
ENDBRANCH  11  12
ENDBRANCH  10  11
ENDBRANCH   9  10
ENDBRANCH   8   9
ENDBRANCH   7   8
ENDBRANCH   6   7
ENDBRANCH   5   6
ENDBRANCH   4   5
ENDBRANCH   3   4
ENDBRANCH   2   3
TORSDOF 13
ENDMDL
MODEL      471
REMARK 921   NORMALIZED FREE ENERGY PREDICTED BY IDOCK:   -1.78 KCAL/MOL
REMARK 922        TOTAL FREE ENERGY PREDICTED BY IDOCK:   -4.54 KCAL/MOL
REMARK 923 INTER-LIGAND FREE ENERGY PREDICTED BY IDOCK:   -3.41 KCAL/MOL
REMARK 924 INTRA-LIGAND FREE ENERGY PREDICTED BY IDOCK:   -1.13 KCAL/MOL
REMARK 927      BINDING AFFINITY PREDICTED BY RF-SCORE:    0.00 PKD
ROOT
HETATM    1  C   UNL     1      -9.219   5.108  72.252  1.00  0.00    -0.155 C  
HETATM    2  C   UNL     1      -9.787   3.960  71.436  1.00  0.00    -0.243 C  
ENDROOT
BRANCH   2   3
HETATM    3  C   UNL     1      -8.851   3.582  70.291  1.00  0.00    -0.151 C  
BRANCH   3   4
HETATM    4  C   UNL     1      -9.032   2.121  69.890  1.00  0.00    -0.150 C  
BRANCH   4   5
HETATM    5  C   UNL     1      -9.114   1.980  68.373  1.00  0.00    -0.210 C  
BRANCH   5   6
HETATM    6  C   UNL     1      -9.257   3.344  67.706  1.00  0.00    -0.235 C  
BRANCH   6   7
HETATM    7  C   UNL     1      -8.439   3.404  66.420  1.00  0.00    -0.109 C  
BRANCH   7   8
HETATM    8  C   UNL     1      -7.074   4.032  66.675  1.00  0.00    -0.060 C  
BRANCH   8   9
HETATM    9  C   UNL     1      -6.900   5.302  65.848  1.00  0.00    -0.061 C  
BRANCH   9  10
HETATM   10  C   UNL     1      -7.323   6.529  66.647  1.00  0.00    -0.078 C  
BRANCH  10  11
HETATM   11  C   UNL     1      -8.637   7.099  66.121  1.00  0.00    -0.151 C  
BRANCH  11  12
HETATM   12  C   UNL     1      -9.458   7.696  67.259  1.00  0.00    -0.185 C  
BRANCH  12  13
HETATM   13  C   UNL     1     -10.058   9.042  66.861  1.00  0.00    -0.338 C  
BRANCH  13  14
HETATM   14  C   UNL     1     -10.067  10.001  68.049  1.00  0.00    -0.197 C  
BRANCH  14  15
HETATM   15  C   UNL     1     -10.032   9.243  69.373  1.00  0.00    -0.184 C  
HETATM   16  C   UNL     1     -10.999   9.828  70.376  1.00  0.00    -0.312 C  
HETATM   17  O   UNL     1     -10.976   9.161  71.554  1.00  0.00    -0.314 OA 
HETATM   18  O   UNL     1     -11.728  10.787  70.183  1.00  0.00    -0.280 OA 
ENDBRANCH  14  15
ENDBRANCH  13  14
ENDBRANCH  12  13
ENDBRANCH  11  12
ENDBRANCH  10  11
ENDBRANCH   9  10
ENDBRANCH   8   9
ENDBRANCH   7   8
ENDBRANCH   6   7
ENDBRANCH   5   6
ENDBRANCH   4   5
ENDBRANCH   3   4
ENDBRANCH   2   3
TORSDOF 13
ENDMDL
MODEL      472
REMARK 921   NORMALIZED FREE ENERGY PREDICTED BY IDOCK:   -1.78 KCAL/MOL
REMARK 922        TOTAL FREE ENERGY PREDICTED BY IDOCK:   -4.54 KCAL/MOL
REMARK 923 INTER-LIGAND FREE ENERGY PREDICTED BY IDOCK:   -3.51 KCAL/MOL
REMARK 924 INTRA-LIGAND FREE ENERGY PREDICTED BY IDOCK:   -1.03 KCAL/MOL
REMARK 927      BINDING AFFINITY PREDICTED BY RF-SCORE:    0.00 PKD
ROOT
HETATM    1  C   UNL     1      -8.974   7.891  73.201  1.00  0.00    -0.304 C  
HETATM    2  C   UNL     1      -8.503   7.981  71.759  1.00  0.00    -0.164 C  
ENDROOT
BRANCH   2   3
HETATM    3  C   UNL     1      -9.338   8.985  70.968  1.00  0.00    -0.339 C  
BRANCH   3   4
HETATM    4  C   UNL     1     -10.820   8.622  71.009  1.00  0.00    -0.302 C  
BRANCH   4   5
HETATM    5  C   UNL     1     -11.687   9.847  70.731  1.00  0.00    -0.424 C  
BRANCH   5   6
HETATM    6  C   UNL     1     -12.108   9.894  69.266  1.00  0.00     0.490 C  
BRANCH   6   7
HETATM    7  C   UNL     1     -11.255  10.894  68.491  1.00  0.00    -0.335 C  
BRANCH   7   8
HETATM    8  C   UNL     1     -10.370  10.179  67.477  1.00  0.00    -0.279 C  
BRANCH   8   9
HETATM    9  C   UNL     1      -8.904  10.541  67.689  1.00  0.00    -0.131 C  
BRANCH   9  10
HETATM   10  C   UNL     1      -8.706  12.051  67.623  1.00  0.00    -0.166 C  
BRANCH  10  11
HETATM   11  C   UNL     1      -7.320  12.444  68.127  1.00  0.00    -0.111 C  
BRANCH  11  12
HETATM   12  C   UNL     1      -7.263  13.937  68.434  1.00  0.00    -0.110 C  
BRANCH  12  13
HETATM   13  C   UNL     1      -7.670  14.767  67.220  1.00  0.00    -0.214 C  
BRANCH  13  14
HETATM   14  C   UNL     1      -7.703  16.253  67.570  1.00  0.00    -0.169 C  
BRANCH  14  15
HETATM   15  C   UNL     1      -9.046  16.879  67.204  1.00  0.00    -0.228 C  
HETATM   16  C   UNL     1     -10.085  16.636  68.274  1.00  0.00    -0.268 C  
HETATM   17  O   UNL     1     -11.280  17.189  67.959  1.00  0.00    -0.224 OA 
HETATM   18  O   UNL     1      -9.905  16.018  69.310  1.00  0.00    -0.229 OA 
ENDBRANCH  14  15
ENDBRANCH  13  14
ENDBRANCH  12  13
ENDBRANCH  11  12
ENDBRANCH  10  11
ENDBRANCH   9  10
ENDBRANCH   8   9
ENDBRANCH   7   8
ENDBRANCH   6   7
ENDBRANCH   5   6
ENDBRANCH   4   5
ENDBRANCH   3   4
ENDBRANCH   2   3
TORSDOF 13
ENDMDL
MODEL      473
REMARK 921   NORMALIZED FREE ENERGY PREDICTED BY IDOCK:   -1.74 KCAL/MOL
REMARK 922        TOTAL FREE ENERGY PREDICTED BY IDOCK:   -4.47 KCAL/MOL
REMARK 923 INTER-LIGAND FREE ENERGY PREDICTED BY IDOCK:   -2.98 KCAL/MOL
REMARK 924 INTRA-LIGAND FREE ENERGY PREDICTED BY IDOCK:   -1.49 KCAL/MOL
REMARK 927      BINDING AFFINITY PREDICTED BY RF-SCORE:    0.00 PKD
ROOT
HETATM    1  C   UNL     1      -7.330   8.567  74.564  1.00  0.00    -0.230 C  
HETATM    2  C   UNL     1      -8.285   7.995  73.530  1.00  0.00    -0.271 C  
ENDROOT
BRANCH   2   3
HETATM    3  C   UNL     1      -7.705   8.106  72.123  1.00  0.00    -0.149 C  
BRANCH   3   4
HETATM    4  C   UNL     1      -6.277   8.643  72.157  1.00  0.00    -0.073 C  
BRANCH   4   5
HETATM    5  C   UNL     1      -5.341   7.748  71.350  1.00  0.00    -0.034 C  
BRANCH   5   6
HETATM    6  C   UNL     1      -5.716   6.279  71.515  1.00  0.00    -0.027 C  
BRANCH   6   7
HETATM    7  C   UNL     1      -6.106   5.667  70.173  1.00  0.00    -0.026 C  
BRANCH   7   8
HETATM    8  C   UNL     1      -6.894   4.378  70.373  1.00  0.00    -0.037 C  
BRANCH   8   9
HETATM    9  C   UNL     1      -6.709   3.846  71.790  1.00  0.00    -0.023 C  
BRANCH   9  10
HETATM   10  C   UNL     1      -7.777   4.406  72.721  1.00  0.00    -0.086 C  
BRANCH  10  11
HETATM   11  C   UNL     1      -9.176   4.095  72.199  1.00  0.00    -0.166 C  
BRANCH  11  12
HETATM   12  C   UNL     1     -10.170   5.156  72.659  1.00  0.00    -0.232 C  
BRANCH  12  13
HETATM   13  C   UNL     1     -11.079   5.596  71.515  1.00  0.00    -0.235 C  
BRANCH  13  14
HETATM   14  C   UNL     1     -10.283   5.742  70.220  1.00  0.00    -0.295 C  
BRANCH  14  15
HETATM   15  C   UNL     1     -11.119   6.403  69.128  1.00  0.00    -0.428 C  
HETATM   16  C   UNL     1     -10.653   6.002  67.748  1.00  0.00    -0.267 C  
HETATM   17  O   UNL     1     -11.390   6.582  66.771  1.00  0.00    -0.272 OA 
HETATM   18  O   UNL     1      -9.726   5.247  67.504  1.00  0.00    -0.132 OA 
ENDBRANCH  14  15
ENDBRANCH  13  14
ENDBRANCH  12  13
ENDBRANCH  11  12
ENDBRANCH  10  11
ENDBRANCH   9  10
ENDBRANCH   8   9
ENDBRANCH   7   8
ENDBRANCH   6   7
ENDBRANCH   5   6
ENDBRANCH   4   5
ENDBRANCH   3   4
ENDBRANCH   2   3
TORSDOF 13
ENDMDL
MODEL      474
REMARK 921   NORMALIZED FREE ENERGY PREDICTED BY IDOCK:   -1.70 KCAL/MOL
REMARK 922        TOTAL FREE ENERGY PREDICTED BY IDOCK:   -4.40 KCAL/MOL
REMARK 923 INTER-LIGAND FREE ENERGY PREDICTED BY IDOCK:   -3.39 KCAL/MOL
REMARK 924 INTRA-LIGAND FREE ENERGY PREDICTED BY IDOCK:   -1.01 KCAL/MOL
REMARK 927      BINDING AFFINITY PREDICTED BY RF-SCORE:    0.00 PKD
ROOT
HETATM    1  C   UNL     1     -11.145   3.406  73.481  1.00  0.00    -0.317 C  
HETATM    2  C   UNL     1     -11.748   4.684  72.923  1.00  0.00    -0.064 C  
ENDROOT
BRANCH   2   3
HETATM    3  C   UNL     1     -10.802   5.867  73.113  1.00  0.00    -0.296 C  
BRANCH   3   4
HETATM    4  C   UNL     1      -9.414   5.556  72.561  1.00  0.00    -0.160 C  
BRANCH   4   5
HETATM    5  C   UNL     1      -9.345   5.853  71.066  1.00  0.00    -0.178 C  
BRANCH   5   6
HETATM    6  C   UNL     1      -8.110   6.682  70.730  1.00  0.00    -0.119 C  
BRANCH   6   7
HETATM    7  C   UNL     1      -7.247   6.891  71.971  1.00  0.00    -0.082 C  
BRANCH   7   8
HETATM    8  C   UNL     1      -6.940   8.369  72.175  1.00  0.00    -0.103 C  
BRANCH   8   9
HETATM    9  C   UNL     1      -6.175   8.932  70.982  1.00  0.00    -0.052 C  
BRANCH   9  10
HETATM   10  C   UNL     1      -7.015   9.963  70.239  1.00  0.00    -0.147 C  
BRANCH  10  11
HETATM   11  C   UNL     1      -7.157   9.595  68.765  1.00  0.00    -0.067 C  
BRANCH  11  12
HETATM   12  C   UNL     1      -8.512   8.948  68.500  1.00  0.00    -0.129 C  
BRANCH  12  13
HETATM   13  C   UNL     1      -9.643   9.753  69.133  1.00  0.00    -0.192 C  
BRANCH  13  14
HETATM   14  C   UNL     1     -10.850   9.814  68.199  1.00  0.00    -0.264 C  
BRANCH  14  15
HETATM   15  C   UNL     1     -11.486  11.201  68.204  1.00  0.00    -0.373 C  
HETATM   16  C   UNL     1     -11.076  12.008  66.994  1.00  0.00    -0.298 C  
HETATM   17  O   UNL     1     -11.637  13.240  66.989  1.00  0.00    -0.322 OA 
HETATM   18  O   UNL     1     -10.330  11.627  66.107  1.00  0.00    -0.226 OA 
ENDBRANCH  14  15
ENDBRANCH  13  14
ENDBRANCH  12  13
ENDBRANCH  11  12
ENDBRANCH  10  11
ENDBRANCH   9  10
ENDBRANCH   8   9
ENDBRANCH   7   8
ENDBRANCH   6   7
ENDBRANCH   5   6
ENDBRANCH   4   5
ENDBRANCH   3   4
ENDBRANCH   2   3
TORSDOF 13
ENDMDL
MODEL      475
REMARK 921   NORMALIZED FREE ENERGY PREDICTED BY IDOCK:   -1.69 KCAL/MOL
REMARK 922        TOTAL FREE ENERGY PREDICTED BY IDOCK:   -4.38 KCAL/MOL
REMARK 923 INTER-LIGAND FREE ENERGY PREDICTED BY IDOCK:   -3.69 KCAL/MOL
REMARK 924 INTRA-LIGAND FREE ENERGY PREDICTED BY IDOCK:   -0.69 KCAL/MOL
REMARK 927      BINDING AFFINITY PREDICTED BY RF-SCORE:    0.00 PKD
ROOT
HETATM    1  C   UNL     1     -13.738   7.012  71.652  1.00  0.00    -0.348 C  
HETATM    2  C   UNL     1     -12.491   7.092  70.787  1.00  0.00    -0.253 C  
ENDROOT
BRANCH   2   3
HETATM    3  C   UNL     1     -11.280   7.530  71.607  1.00  0.00    -0.275 C  
BRANCH   3   4
HETATM    4  C   UNL     1     -10.037   6.734  71.221  1.00  0.00    -0.203 C  
BRANCH   4   5
HETATM    5  C   UNL     1      -8.995   7.637  70.568  1.00  0.00    -0.151 C  
BRANCH   5   6
HETATM    6  C   UNL     1      -9.366   7.940  69.120  1.00  0.00    -0.154 C  
BRANCH   6   7
HETATM    7  C   UNL     1      -8.165   7.741  68.201  1.00  0.00    -0.124 C  
BRANCH   7   8
HETATM    8  C   UNL     1      -7.579   9.083  67.777  1.00  0.00    -0.093 C  
BRANCH   8   9
HETATM    9  C   UNL     1      -8.633  10.182  67.858  1.00  0.00    -0.118 C  
BRANCH   9  10
HETATM   10  C   UNL     1      -7.980  11.542  68.075  1.00  0.00    -0.130 C  
BRANCH  10  11
HETATM   11  C   UNL     1      -9.023  12.655  68.088  1.00  0.00    -0.199 C  
BRANCH  11  12
HETATM   12  C   UNL     1      -8.389  13.992  67.718  1.00  0.00    -0.176 C  
BRANCH  12  13
HETATM   13  C   UNL     1      -7.437  14.473  68.809  1.00  0.00    -0.132 C  
BRANCH  13  14
HETATM   14  C   UNL     1      -7.670  15.951  69.115  1.00  0.00    -0.220 C  
BRANCH  14  15
HETATM   15  C   UNL     1      -9.108  16.359  68.810  1.00  0.00    -0.244 C  
HETATM   16  C   UNL     1      -9.166  17.584  67.927  1.00  0.00    -0.265 C  
HETATM   17  O   UNL     1     -10.438  17.954  67.649  1.00  0.00    -0.370 OA 
HETATM   18  O   UNL     1      -8.200  18.195  67.498  1.00  0.00    -0.233 OA 
ENDBRANCH  14  15
ENDBRANCH  13  14
ENDBRANCH  12  13
ENDBRANCH  11  12
ENDBRANCH  10  11
ENDBRANCH   9  10
ENDBRANCH   8   9
ENDBRANCH   7   8
ENDBRANCH   6   7
ENDBRANCH   5   6
ENDBRANCH   4   5
ENDBRANCH   3   4
ENDBRANCH   2   3
TORSDOF 13
ENDMDL
MODEL      476
REMARK 921   NORMALIZED FREE ENERGY PREDICTED BY IDOCK:   -1.68 KCAL/MOL
REMARK 922        TOTAL FREE ENERGY PREDICTED BY IDOCK:   -4.37 KCAL/MOL
REMARK 923 INTER-LIGAND FREE ENERGY PREDICTED BY IDOCK:   -3.17 KCAL/MOL
REMARK 924 INTRA-LIGAND FREE ENERGY PREDICTED BY IDOCK:   -1.20 KCAL/MOL
REMARK 927      BINDING AFFINITY PREDICTED BY RF-SCORE:    0.00 PKD
ROOT
HETATM    1  C   UNL     1      -6.358  14.804  69.901  1.00  0.00    -0.158 C  
HETATM    2  C   UNL     1      -5.502  14.333  71.065  1.00  0.00    -0.173 C  
ENDROOT
BRANCH   2   3
HETATM    3  C   UNL     1      -5.138  12.857  70.919  1.00  0.00    -0.143 C  
BRANCH   3   4
HETATM    4  C   UNL     1      -5.848  12.231  69.722  1.00  0.00    -0.123 C  
BRANCH   4   5
HETATM    5  C   UNL     1      -6.627  10.988  70.143  1.00  0.00    -0.090 C  
BRANCH   5   6
HETATM    6  C   UNL     1      -7.810  10.745  69.211  1.00  0.00    -0.124 C  
BRANCH   6   7
HETATM    7  C   UNL     1      -8.165  12.017  68.447  1.00  0.00    -0.151 C  
BRANCH   7   8
HETATM    8  C   UNL     1      -9.676  12.209  68.388  1.00  0.00    -0.193 C  
BRANCH   8   9
HETATM    9  C   UNL     1     -10.400  10.917  68.751  1.00  0.00    -0.215 C  
BRANCH   9  10
HETATM   10  C   UNL     1     -11.140  10.355  67.543  1.00  0.00    -0.336 C  
BRANCH  10  11
HETATM   11  C   UNL     1     -10.350   9.222  66.895  1.00  0.00    -0.316 C  
BRANCH  11  12
HETATM   12  C   UNL     1      -9.798   8.276  67.956  1.00  0.00    -0.201 C  
BRANCH  12  13
HETATM   13  C   UNL     1     -10.797   7.171  68.286  1.00  0.00    -0.156 C  
BRANCH  13  14
HETATM   14  C   UNL     1     -10.453   5.889  67.529  1.00  0.00    -0.306 C  
BRANCH  14  15
HETATM   15  C   UNL     1      -8.964   5.572  67.625  1.00  0.00    -0.108 C  
HETATM   16  C   UNL     1      -8.685   4.112  67.355  1.00  0.00    -0.107 C  
HETATM   17  O   UNL     1      -7.366   3.821  67.436  1.00  0.00    -0.065 OA 
HETATM   18  O   UNL     1      -9.525   3.267  67.092  1.00  0.00    -0.200 OA 
ENDBRANCH  14  15
ENDBRANCH  13  14
ENDBRANCH  12  13
ENDBRANCH  11  12
ENDBRANCH  10  11
ENDBRANCH   9  10
ENDBRANCH   8   9
ENDBRANCH   7   8
ENDBRANCH   6   7
ENDBRANCH   5   6
ENDBRANCH   4   5
ENDBRANCH   3   4
ENDBRANCH   2   3
TORSDOF 13
ENDMDL
MODEL      477
REMARK 921   NORMALIZED FREE ENERGY PREDICTED BY IDOCK:   -1.52 KCAL/MOL
REMARK 922        TOTAL FREE ENERGY PREDICTED BY IDOCK:   -4.08 KCAL/MOL
REMARK 923 INTER-LIGAND FREE ENERGY PREDICTED BY IDOCK:   -3.44 KCAL/MOL
REMARK 924 INTRA-LIGAND FREE ENERGY PREDICTED BY IDOCK:   -0.64 KCAL/MOL
REMARK 927      BINDING AFFINITY PREDICTED BY RF-SCORE:    0.00 PKD
ROOT
HETATM    1  C   UNL     1      -5.779  19.725  69.563  1.00  0.00    -0.287 C  
HETATM    2  C   UNL     1      -5.896  19.652  68.050  1.00  0.00    -0.230 C  
ENDROOT
BRANCH   2   3
HETATM    3  C   UNL     1      -7.103  18.816  67.631  1.00  0.00    -0.223 C  
BRANCH   3   4
HETATM    4  C   UNL     1      -6.708  17.360  67.397  1.00  0.00    -0.179 C  
BRANCH   4   5
HETATM    5  C   UNL     1      -7.711  16.414  68.051  1.00  0.00    -0.159 C  
BRANCH   5   6
HETATM    6  C   UNL     1      -8.649  15.810  67.010  1.00  0.00    -0.247 C  
BRANCH   6   7
HETATM    7  C   UNL     1      -9.888  15.223  67.677  1.00  0.00    -0.217 C  
BRANCH   7   8
HETATM    8  C   UNL     1      -9.585  13.853  68.274  1.00  0.00    -0.218 C  
BRANCH   8   9
HETATM    9  C   UNL     1      -9.154  12.874  67.187  1.00  0.00    -0.220 C  
BRANCH   9  10
HETATM   10  C   UNL     1      -8.320  11.744  67.778  1.00  0.00    -0.146 C  
BRANCH  10  11
HETATM   11  C   UNL     1      -7.868  10.772  66.692  1.00  0.00    -0.140 C  
BRANCH  11  12
HETATM   12  C   UNL     1      -7.372   9.468  67.310  1.00  0.00    -0.087 C  
BRANCH  12  13
HETATM   13  C   UNL     1      -8.426   8.370  67.205  1.00  0.00    -0.123 C  
BRANCH  13  14
HETATM   14  C   UNL     1      -9.273   8.312  68.475  1.00  0.00    -0.136 C  
BRANCH  14  15
HETATM   15  C   UNL     1     -10.075   7.016  68.547  1.00  0.00    -0.171 C  
HETATM   16  C   UNL     1     -10.808   6.885  69.862  1.00  0.00    -0.257 C  
HETATM   17  O   UNL     1     -11.524   5.739  69.935  1.00  0.00    -0.181 OA 
HETATM   18  O   UNL     1     -10.779   7.696  70.773  1.00  0.00    -0.219 OA 
ENDBRANCH  14  15
ENDBRANCH  13  14
ENDBRANCH  12  13
ENDBRANCH  11  12
ENDBRANCH  10  11
ENDBRANCH   9  10
ENDBRANCH   8   9
ENDBRANCH   7   8
ENDBRANCH   6   7
ENDBRANCH   5   6
ENDBRANCH   4   5
ENDBRANCH   3   4
ENDBRANCH   2   3
TORSDOF 13
ENDMDL
MODEL      478
REMARK 921   NORMALIZED FREE ENERGY PREDICTED BY IDOCK:   -1.43 KCAL/MOL
REMARK 922        TOTAL FREE ENERGY PREDICTED BY IDOCK:   -3.93 KCAL/MOL
REMARK 923 INTER-LIGAND FREE ENERGY PREDICTED BY IDOCK:   -3.00 KCAL/MOL
REMARK 924 INTRA-LIGAND FREE ENERGY PREDICTED BY IDOCK:   -0.93 KCAL/MOL
REMARK 927      BINDING AFFINITY PREDICTED BY RF-SCORE:    0.00 PKD
ROOT
HETATM    1  C   UNL     1      -9.220   5.111  72.247  1.00  0.00    -0.155 C  
HETATM    2  C   UNL     1      -9.842   3.954  71.484  1.00  0.00    -0.247 C  
ENDROOT
BRANCH   2   3
HETATM    3  C   UNL     1      -8.966   3.539  70.304  1.00  0.00    -0.173 C  
BRANCH   3   4
HETATM    4  C   UNL     1      -9.161   2.064  69.965  1.00  0.00    -0.179 C  
BRANCH   4   5
HETATM    5  C   UNL     1      -9.368   1.875  68.465  1.00  0.00    -0.243 C  
BRANCH   5   6
HETATM    6  C   UNL     1      -9.575   3.216  67.770  1.00  0.00    -0.120 C  
BRANCH   6   7
HETATM    7  C   UNL     1      -8.916   3.218  66.394  1.00  0.00    -0.156 C  
BRANCH   7   8
HETATM    8  C   UNL     1      -7.529   3.846  66.458  1.00  0.00    -0.083 C  
BRANCH   8   9
HETATM    9  C   UNL     1      -7.434   5.044  65.520  1.00  0.00    -0.077 C  
BRANCH   9  10
HETATM   10  C   UNL     1      -7.727   6.340  66.267  1.00  0.00    -0.099 C  
BRANCH  10  11
HETATM   11  C   UNL     1      -9.091   6.900  65.878  1.00  0.00    -0.045 C  
BRANCH  11  12
HETATM   12  C   UNL     1      -9.710   7.666  67.043  1.00  0.00    -0.255 C  
BRANCH  12  13
HETATM   13  C   UNL     1     -10.349   8.970  66.571  1.00  0.00    -0.263 C  
BRANCH  13  14
HETATM   14  C   UNL     1     -10.107  10.086  67.584  1.00  0.00    -0.232 C  
BRANCH  14  15
HETATM   15  C   UNL     1      -9.568  11.343  66.906  1.00  0.00    -0.203 C  
HETATM   16  C   UNL     1      -8.449  11.971  67.703  1.00  0.00    -0.160 C  
HETATM   17  O   UNL     1      -7.963  13.086  67.108  1.00  0.00    -0.163 OA 
HETATM   18  O   UNL     1      -8.011  11.553  68.762  1.00  0.00    -0.145 OA 
ENDBRANCH  14  15
ENDBRANCH  13  14
ENDBRANCH  12  13
ENDBRANCH  11  12
ENDBRANCH  10  11
ENDBRANCH   9  10
ENDBRANCH   8   9
ENDBRANCH   7   8
ENDBRANCH   6   7
ENDBRANCH   5   6
ENDBRANCH   4   5
ENDBRANCH   3   4
ENDBRANCH   2   3
TORSDOF 13
ENDMDL
MODEL      479
REMARK 921   NORMALIZED FREE ENERGY PREDICTED BY IDOCK:   -1.42 KCAL/MOL
REMARK 922        TOTAL FREE ENERGY PREDICTED BY IDOCK:   -3.91 KCAL/MOL
REMARK 923 INTER-LIGAND FREE ENERGY PREDICTED BY IDOCK:   -2.72 KCAL/MOL
REMARK 924 INTRA-LIGAND FREE ENERGY PREDICTED BY IDOCK:   -1.18 KCAL/MOL
REMARK 927      BINDING AFFINITY PREDICTED BY RF-SCORE:    0.00 PKD
ROOT
HETATM    1  C   UNL     1     -12.870   6.842  71.402  1.00  0.00    -0.287 C  
HETATM    2  C   UNL     1     -11.464   7.190  70.944  1.00  0.00    -0.333 C  
ENDROOT
BRANCH   2   3
HETATM    3  C   UNL     1     -10.667   7.852  72.065  1.00  0.00    -0.299 C  
BRANCH   3   4
HETATM    4  C   UNL     1      -9.628   6.894  72.642  1.00  0.00    -0.163 C  
BRANCH   4   5
HETATM    5  C   UNL     1      -8.445   7.663  73.223  1.00  0.00    -0.208 C  
BRANCH   5   6
HETATM    6  C   UNL     1      -7.145   6.887  73.036  1.00  0.00    -0.074 C  
BRANCH   6   7
HETATM    7  C   UNL     1      -5.960   7.841  72.918  1.00  0.00    -0.049 C  
BRANCH   7   8
HETATM    8  C   UNL     1      -5.526   7.987  71.464  1.00  0.00    -0.034 C  
BRANCH   8   9
HETATM    9  C   UNL     1      -5.819   6.711  70.681  1.00  0.00    -0.024 C  
BRANCH   9  10
HETATM   10  C   UNL     1      -6.966   6.931  69.701  1.00  0.00    -0.063 C  
BRANCH  10  11
HETATM   11  C   UNL     1      -6.549   7.869  68.573  1.00  0.00    -0.061 C  
BRANCH  11  12
HETATM   12  C   UNL     1      -7.501   9.057  68.481  1.00  0.00    -0.085 C  
BRANCH  12  13
HETATM   13  C   UNL     1      -8.948   8.596  68.329  1.00  0.00    -0.142 C  
BRANCH  13  14
HETATM   14  C   UNL     1      -9.718   9.534  67.402  1.00  0.00    -0.201 C  
BRANCH  14  15
HETATM   15  C   UNL     1      -9.338   9.305  65.942  1.00  0.00    -0.297 C  
HETATM   16  C   UNL     1      -8.568  10.475  65.376  1.00  0.00    -0.180 C  
HETATM   17  O   UNL     1      -8.225  10.280  64.081  1.00  0.00    -0.160 OA 
HETATM   18  O   UNL     1      -8.273  11.491  65.983  1.00  0.00    -0.062 OA 
ENDBRANCH  14  15
ENDBRANCH  13  14
ENDBRANCH  12  13
ENDBRANCH  11  12
ENDBRANCH  10  11
ENDBRANCH   9  10
ENDBRANCH   8   9
ENDBRANCH   7   8
ENDBRANCH   6   7
ENDBRANCH   5   6
ENDBRANCH   4   5
ENDBRANCH   3   4
ENDBRANCH   2   3
TORSDOF 13
ENDMDL
MODEL      480
REMARK 921   NORMALIZED FREE ENERGY PREDICTED BY IDOCK:   -1.41 KCAL/MOL
REMARK 922        TOTAL FREE ENERGY PREDICTED BY IDOCK:   -3.89 KCAL/MOL
REMARK 923 INTER-LIGAND FREE ENERGY PREDICTED BY IDOCK:   -4.10 KCAL/MOL
REMARK 924 INTRA-LIGAND FREE ENERGY PREDICTED BY IDOCK:    0.21 KCAL/MOL
REMARK 927      BINDING AFFINITY PREDICTED BY RF-SCORE:    0.00 PKD
ROOT
HETATM    1  C   UNL     1      -7.603  14.371  67.308  1.00  0.00    -0.135 C  
HETATM    2  C   UNL     1      -7.513  15.870  67.537  1.00  0.00    -0.194 C  
ENDROOT
BRANCH   2   3
HETATM    3  C   UNL     1      -8.186  16.642  66.405  1.00  0.00    -0.353 C  
BRANCH   3   4
HETATM    4  C   UNL     1      -9.381  15.872  65.849  1.00  0.00    -0.353 C  
BRANCH   4   5
HETATM    5  C   UNL     1     -10.624  16.110  66.701  1.00  0.00    -0.274 C  
BRANCH   5   6
HETATM    6  C   UNL     1     -11.443  14.830  66.840  1.00  0.00    -0.354 C  
BRANCH   6   7
HETATM    7  C   UNL     1     -12.313  14.610  65.607  1.00  0.00    -0.151 C  
BRANCH   7   8
HETATM    8  C   UNL     1     -12.232  13.163  65.137  1.00  0.00    -0.497 C  
BRANCH   8   9
HETATM    9  C   UNL     1     -10.798  12.794  64.769  1.00  0.00    -0.335 C  
BRANCH   9  10
HETATM   10  C   UNL     1     -10.399  11.471  65.411  1.00  0.00    -0.322 C  
BRANCH  10  11
HETATM   11  C   UNL     1     -11.211  11.210  66.676  1.00  0.00    -0.186 C  
BRANCH  11  12
HETATM   12  C   UNL     1     -10.390  11.538  67.919  1.00  0.00    -0.203 C  
BRANCH  12  13
HETATM   13  C   UNL     1     -10.033  10.273  68.696  1.00  0.00    -0.183 C  
BRANCH  13  14
HETATM   14  C   UNL     1      -8.526  10.189  68.925  1.00  0.00    -0.139 C  
BRANCH  14  15
HETATM   15  C   UNL     1      -7.791  11.313  68.200  1.00  0.00    -0.127 C  
HETATM   16  C   UNL     1      -6.707  11.918  69.062  1.00  0.00    -0.099 C  
HETATM   17  O   UNL     1      -6.048  12.916  68.427  1.00  0.00    -0.065 OA 
HETATM   18  O   UNL     1      -6.431  11.574  70.200  1.00  0.00    -0.132 OA 
ENDBRANCH  14  15
ENDBRANCH  13  14
ENDBRANCH  12  13
ENDBRANCH  11  12
ENDBRANCH  10  11
ENDBRANCH   9  10
ENDBRANCH   8   9
ENDBRANCH   7   8
ENDBRANCH   6   7
ENDBRANCH   5   6
ENDBRANCH   4   5
ENDBRANCH   3   4
ENDBRANCH   2   3
TORSDOF 13
ENDMDL
MODEL      481
REMARK 921   NORMALIZED FREE ENERGY PREDICTED BY IDOCK:   -1.24 KCAL/MOL
REMARK 922        TOTAL FREE ENERGY PREDICTED BY IDOCK:   -3.59 KCAL/MOL
REMARK 923 INTER-LIGAND FREE ENERGY PREDICTED BY IDOCK:   -3.09 KCAL/MOL
REMARK 924 INTRA-LIGAND FREE ENERGY PREDICTED BY IDOCK:   -0.50 KCAL/MOL
REMARK 927      BINDING AFFINITY PREDICTED BY RF-SCORE:    0.00 PKD
ROOT
HETATM    1  C   UNL     1      -5.162   5.922  65.185  1.00  0.00    -0.013 C  
HETATM    2  C   UNL     1      -5.846   4.820  65.976  1.00  0.00    -0.022 C  
ENDROOT
BRANCH   2   3
HETATM    3  C   UNL     1      -7.199   5.282  66.510  1.00  0.00    -0.077 C  
BRANCH   3   4
HETATM    4  C   UNL     1      -7.071   6.606  67.259  1.00  0.00    -0.080 C  
BRANCH   4   5
HETATM    5  C   UNL     1      -8.095   7.618  66.751  1.00  0.00    -0.115 C  
BRANCH   5   6
HETATM    6  C   UNL     1      -9.231   7.792  67.753  1.00  0.00    -0.143 C  
BRANCH   6   7
HETATM    7  C   UNL     1      -9.318   9.241  68.224  1.00  0.00    -0.141 C  
BRANCH   7   8
HETATM    8  C   UNL     1     -10.763   9.632  68.509  1.00  0.00    -0.239 C  
BRANCH   8   9
HETATM    9  C   UNL     1     -11.110   9.386  69.974  1.00  0.00    -0.248 C  
BRANCH   9  10
HETATM   10  C   UNL     1     -11.336   7.901  70.233  1.00  0.00    -0.158 C  
BRANCH  10  11
HETATM   11  C   UNL     1     -12.415   7.688  71.291  1.00  0.00    -0.324 C  
BRANCH  11  12
HETATM   12  C   UNL     1     -11.882   8.029  72.678  1.00  0.00    -0.380 C  
BRANCH  12  13
HETATM   13  C   UNL     1     -10.445   7.547  72.853  1.00  0.00    -0.372 C  
BRANCH  13  14
HETATM   14  C   UNL     1     -10.382   6.380  73.835  1.00  0.00    -0.338 C  
BRANCH  14  15
HETATM   15  C   UNL     1      -8.966   5.823  73.945  1.00  0.00    -0.126 C  
HETATM   16  C   UNL     1      -8.823   4.512  73.207  1.00  0.00    -0.106 C  
HETATM   17  O   UNL     1      -7.569   4.010  73.297  1.00  0.00    -0.075 OA 
HETATM   18  O   UNL     1      -9.711   3.943  72.593  1.00  0.00    -0.131 OA 
ENDBRANCH  14  15
ENDBRANCH  13  14
ENDBRANCH  12  13
ENDBRANCH  11  12
ENDBRANCH  10  11
ENDBRANCH   9  10
ENDBRANCH   8   9
ENDBRANCH   7   8
ENDBRANCH   6   7
ENDBRANCH   5   6
ENDBRANCH   4   5
ENDBRANCH   3   4
ENDBRANCH   2   3
TORSDOF 13
ENDMDL
MODEL      482
REMARK 921   NORMALIZED FREE ENERGY PREDICTED BY IDOCK:   -1.07 KCAL/MOL
REMARK 922        TOTAL FREE ENERGY PREDICTED BY IDOCK:   -3.29 KCAL/MOL
REMARK 923 INTER-LIGAND FREE ENERGY PREDICTED BY IDOCK:   -2.29 KCAL/MOL
REMARK 924 INTRA-LIGAND FREE ENERGY PREDICTED BY IDOCK:   -1.00 KCAL/MOL
REMARK 927      BINDING AFFINITY PREDICTED BY RF-SCORE:    0.00 PKD
ROOT
HETATM    1  C   UNL     1      -5.480  14.627  70.760  1.00  0.00    -0.148 C  
HETATM    2  C   UNL     1      -5.265  14.241  72.213  1.00  0.00    -0.213 C  
ENDROOT
BRANCH   2   3
HETATM    3  C   UNL     1      -5.214  12.724  72.377  1.00  0.00     0.204 C  
BRANCH   3   4
HETATM    4  C   UNL     1      -5.209  12.023  71.022  1.00  0.00    -0.133 C  
BRANCH   4   5
HETATM    5  C   UNL     1      -5.921  10.676  71.104  1.00  0.00     0.147 C  
BRANCH   5   6
HETATM    6  C   UNL     1      -6.267  10.156  69.713  1.00  0.00    -0.058 C  
BRANCH   6   7
HETATM    7  C   UNL     1      -6.757  11.291  68.819  1.00  0.00    -0.070 C  
BRANCH   7   8
HETATM    8  C   UNL     1      -8.275  11.259  68.684  1.00  0.00    -0.146 C  
BRANCH   8   9
HETATM    9  C   UNL     1      -8.801   9.837  68.846  1.00  0.00    -0.140 C  
BRANCH   9  10
HETATM   10  C   UNL     1     -10.165   9.687  68.182  1.00  0.00    -0.225 C  
BRANCH  10  11
HETATM   11  C   UNL     1     -10.211   8.443  67.301  1.00  0.00    -0.349 C  
BRANCH  11  12
HETATM   12  C   UNL     1      -9.655   7.234  68.046  1.00  0.00    -0.148 C  
BRANCH  12  13
HETATM   13  C   UNL     1     -10.615   6.768  69.137  1.00  0.00    -0.261 C  
BRANCH  13  14
HETATM   14  C   UNL     1     -10.345   5.311  69.507  1.00  0.00    -0.333 C  
BRANCH  14  15
HETATM   15  C   UNL     1      -8.886   5.100  69.901  1.00  0.00    -0.127 C  
HETATM   16  C   UNL     1      -8.749   4.089  71.016  1.00  0.00    -0.085 C  
HETATM   17  O   UNL     1      -7.458   3.894  71.372  1.00  0.00    -0.049 OA 
HETATM   18  O   UNL     1      -9.671   3.499  71.555  1.00  0.00    -0.156 OA 
ENDBRANCH  14  15
ENDBRANCH  13  14
ENDBRANCH  12  13
ENDBRANCH  11  12
ENDBRANCH  10  11
ENDBRANCH   9  10
ENDBRANCH   8   9
ENDBRANCH   7   8
ENDBRANCH   6   7
ENDBRANCH   5   6
ENDBRANCH   4   5
ENDBRANCH   3   4
ENDBRANCH   2   3
TORSDOF 13
ENDMDL
MODEL      483
REMARK 921   NORMALIZED FREE ENERGY PREDICTED BY IDOCK:    0.69 KCAL/MOL
REMARK 922        TOTAL FREE ENERGY PREDICTED BY IDOCK:   -0.19 KCAL/MOL
REMARK 923 INTER-LIGAND FREE ENERGY PREDICTED BY IDOCK:   -0.62 KCAL/MOL
REMARK 924 INTRA-LIGAND FREE ENERGY PREDICTED BY IDOCK:    0.42 KCAL/MOL
REMARK 927      BINDING AFFINITY PREDICTED BY RF-SCORE:    0.00 PKD
ROOT
HETATM    1  C   UNL     1      -9.261  12.829  64.417  1.00  0.00     1.043 C  
HETATM    2  C   UNL     1      -9.860  11.628  63.707  1.00  0.00    -0.339 C  
ENDROOT
BRANCH   2   3
HETATM    3  C   UNL     1      -8.828  10.515  63.540  1.00  0.00    -0.208 C  
BRANCH   3   4
HETATM    4  C   UNL     1      -7.934  10.405  64.771  1.00  0.00    -0.103 C  
BRANCH   4   5
HETATM    5  C   UNL     1      -6.527   9.958  64.382  1.00  0.00    -0.125 C  
BRANCH   5   6
HETATM    6  C   UNL     1      -6.566   8.632  63.630  1.00  0.00    -0.088 C  
BRANCH   6   7
HETATM    7  C   UNL     1      -7.183   7.538  64.496  1.00  0.00    -0.077 C  
BRANCH   7   8
HETATM    8  C   UNL     1      -6.547   6.186  64.196  1.00  0.00    -0.033 C  
BRANCH   8   9
HETATM    9  C   UNL     1      -6.740   5.226  65.366  1.00  0.00    -0.045 C  
BRANCH   9  10
HETATM   10  C   UNL     1      -8.130   5.386  65.971  1.00  0.00    -0.107 C  
BRANCH  10  11
HETATM   11  C   UNL     1      -8.449   4.235  66.920  1.00  0.00    -0.104 C  
BRANCH  11  12
HETATM   12  C   UNL     1      -7.380   3.151  66.830  1.00  0.00    -0.070 C  
BRANCH  12  13
HETATM   13  C   UNL     1      -6.643   2.990  68.157  1.00  0.00    -0.037 C  
BRANCH  13  14
HETATM   14  C   UNL     1      -7.223   3.927  69.214  1.00  0.00    -0.053 C  
BRANCH  14  15
HETATM   15  C   UNL     1      -6.385   5.195  69.349  1.00  0.00    -0.034 C  
HETATM   16  C   UNL     1      -7.179   6.430  68.993  1.00  0.00    -0.084 C  
HETATM   17  O   UNL     1      -6.445   7.561  69.112  1.00  0.00    -0.038 OA 
HETATM   18  O   UNL     1      -8.346   6.444  68.636  1.00  0.00    -0.119 OA 
ENDBRANCH  14  15
ENDBRANCH  13  14
ENDBRANCH  12  13
ENDBRANCH  11  12
ENDBRANCH  10  11
ENDBRANCH   9  10
ENDBRANCH   8   9
ENDBRANCH   7   8
ENDBRANCH   6   7
ENDBRANCH   5   6
ENDBRANCH   4   5
ENDBRANCH   3   4
ENDBRANCH   2   3
TORSDOF 13
ENDMDL
