MODEL        1
REMARK 921   NORMALIZED FREE ENERGY PREDICTED BY IDOCK:   -8.06 KCAL/MOL
REMARK 922        TOTAL FREE ENERGY PREDICTED BY IDOCK:   -8.83 KCAL/MOL
REMARK 923 INTER-LIGAND FREE ENERGY PREDICTED BY IDOCK:   -8.53 KCAL/MOL
REMARK 924 INTRA-LIGAND FREE ENERGY PREDICTED BY IDOCK:   -0.30 KCAL/MOL
REMARK 927      BINDING AFFINITY PREDICTED BY RF-SCORE:    0.00 PKD
ROOT
HETATM    1  C   UNL     1     -11.900  11.502  69.360  1.00  0.00    -0.417 C  
HETATM    2  C   UNL     1     -11.118  10.415  70.116  1.00  0.00    -0.383 C  
HETATM    3  C   UNL     1     -11.807   9.912  71.399  1.00  0.00    -0.476 C  
HETATM    4  C   UNL     1     -13.130  10.607  71.728  1.00  0.00    -0.571 C  
HETATM    5  C   UNL     1     -13.006  12.092  71.523  1.00  0.00    -0.398 A  
HETATM    6  C   UNL     1     -12.378  12.539  70.346  1.00  0.00    -0.311 A  
HETATM    7  C   UNL     1     -12.280  13.911  70.084  1.00  0.00    -0.425 A  
HETATM    8  C   UNL     1     -12.795  14.833  71.005  1.00  0.00    -0.415 A  
HETATM    9  C   UNL     1     -11.792  14.399  68.764  1.00  0.00    -0.325 C  
HETATM   10  N   UNL     1     -11.594  13.414  67.803  1.00  0.00    -0.319 N  
HETATM   11  C   UNL     1     -13.431  14.387  72.165  1.00  0.00    -0.507 A  
HETATM   12  O   UNL     1     -11.721  15.603  68.553  1.00  0.00    -0.371 OA 
HETATM   13  C   UNL     1     -13.543  13.020  72.421  1.00  0.00    -0.628 A  
HETATM   14  C   UNL     1     -11.044  12.144  68.264  1.00  0.00    -0.243 C  
ENDROOT
BRANCH  10  15
HETATM   15  C   UNL     1     -12.147  13.534  66.435  1.00  0.00    -0.417 C  
HETATM   16  C   UNL     1     -12.132  12.236  65.580  1.00  0.00    -0.257 C  
HETATM   17  N   UNL     1     -11.463  12.423  64.262  1.00  0.00    -0.340 NA 
HETATM   18  C   UNL     1     -12.175  13.464  63.495  1.00  0.00    -0.400 C  
HETATM   19  C   UNL     1     -12.260  14.790  64.273  1.00  0.00    -0.402 C  
HETATM   20  C   UNL     1     -11.473  14.664  65.600  1.00  0.00    -0.340 C  
HETATM   21  C   UNL     1     -10.045  14.263  65.183  1.00  0.00    -0.353 C  
HETATM   22  C   UNL     1     -10.076  12.886  64.499  1.00  0.00    -0.235 C  
ENDBRANCH  10  15
TORSDOF 1
ENDMDL
MODEL        2
REMARK 921   NORMALIZED FREE ENERGY PREDICTED BY IDOCK:   -7.99 KCAL/MOL
REMARK 922        TOTAL FREE ENERGY PREDICTED BY IDOCK:   -8.75 KCAL/MOL
REMARK 923 INTER-LIGAND FREE ENERGY PREDICTED BY IDOCK:   -8.34 KCAL/MOL
REMARK 924 INTRA-LIGAND FREE ENERGY PREDICTED BY IDOCK:   -0.41 KCAL/MOL
REMARK 927      BINDING AFFINITY PREDICTED BY RF-SCORE:    0.00 PKD
ROOT
HETATM    1  C   UNL     1     -10.989  14.266  67.578  1.00  0.00    -0.297 C  
HETATM    2  C   UNL     1     -11.855  13.543  68.623  1.00  0.00    -0.404 C  
HETATM    3  C   UNL     1     -11.887  12.010  68.472  1.00  0.00    -0.369 C  
HETATM    4  C   UNL     1     -11.086  11.468  67.287  1.00  0.00    -0.351 C  
HETATM    5  C   UNL     1     -11.332  12.307  66.062  1.00  0.00    -0.398 A  
HETATM    6  C   UNL     1     -11.299  13.706  66.211  1.00  0.00    -0.325 A  
HETATM    7  C   UNL     1     -11.473  14.532  65.095  1.00  0.00    -0.368 A  
HETATM    8  C   UNL     1     -11.698  13.961  63.835  1.00  0.00    -0.241 A  
HETATM    9  C   UNL     1     -11.254  16.003  65.196  1.00  0.00    -0.189 C  
HETATM   10  N   UNL     1     -10.736  16.443  66.408  1.00  0.00    -0.222 N  
HETATM   11  C   UNL     1     -11.716  12.572  63.687  1.00  0.00    -0.594 A  
HETATM   12  O   UNL     1     -11.405  16.705  64.205  1.00  0.00    -1.141 OA 
HETATM   13  C   UNL     1     -11.527  11.747  64.796  1.00  0.00    -0.281 A  
HETATM   14  C   UNL     1     -11.221  15.779  67.613  1.00  0.00    -0.246 C  
ENDROOT
BRANCH  10  15
HETATM   15  C   UNL     1      -9.567  17.349  66.475  1.00  0.00    -0.280 C  
HETATM   16  C   UNL     1      -8.725  17.277  67.781  1.00  0.00    -0.226 C  
HETATM   17  N   UNL     1      -8.548  18.608  68.425  1.00  0.00    -0.329 NA 
HETATM   18  C   UNL     1      -7.858  19.517  67.489  1.00  0.00    -0.264 C  
HETATM   19  C   UNL     1      -8.610  19.638  66.151  1.00  0.00    -0.357 C  
HETATM   20  C   UNL     1      -9.934  18.842  66.226  1.00  0.00    -0.429 C  
HETATM   21  C   UNL     1     -10.689  19.431  67.432  1.00  0.00    -0.594 C  
HETATM   22  C   UNL     1      -9.887  19.170  68.719  1.00  0.00    -0.439 C  
ENDBRANCH  10  15
TORSDOF 1
ENDMDL
MODEL        3
REMARK 921   NORMALIZED FREE ENERGY PREDICTED BY IDOCK:   -7.51 KCAL/MOL
REMARK 922        TOTAL FREE ENERGY PREDICTED BY IDOCK:   -8.24 KCAL/MOL
REMARK 923 INTER-LIGAND FREE ENERGY PREDICTED BY IDOCK:   -8.17 KCAL/MOL
REMARK 924 INTRA-LIGAND FREE ENERGY PREDICTED BY IDOCK:   -0.08 KCAL/MOL
REMARK 927      BINDING AFFINITY PREDICTED BY RF-SCORE:    0.00 PKD
ROOT
HETATM    1  C   UNL     1     -11.540  12.314  69.277  1.00  0.00    -0.383 C  
HETATM    2  C   UNL     1     -11.827  12.877  67.874  1.00  0.00    -0.388 C  
HETATM    3  C   UNL     1     -11.787  14.415  67.787  1.00  0.00    -0.402 C  
HETATM    4  C   UNL     1     -11.510  15.124  69.115  1.00  0.00    -0.322 C  
HETATM    5  C   UNL     1     -12.315  14.496  70.220  1.00  0.00    -0.408 A  
HETATM    6  C   UNL     1     -12.341  13.090  70.292  1.00  0.00    -0.311 A  
HETATM    7  C   UNL     1     -13.035  12.457  71.330  1.00  0.00    -0.348 A  
HETATM    8  C   UNL     1     -13.714  13.226  72.284  1.00  0.00    -0.686 A  
HETATM    9  C   UNL     1     -12.920  10.985  71.533  1.00  0.00    -0.448 C  
HETATM   10  N   UNL     1     -11.983  10.347  70.728  1.00  0.00    -0.333 N  
HETATM   11  C   UNL     1     -13.674  14.621  72.220  1.00  0.00    -0.565 A  
HETATM   12  O   UNL     1     -13.529  10.453  72.452  1.00  0.00    -0.282 OA 
HETATM   13  C   UNL     1     -12.970  15.255  71.195  1.00  0.00    -0.521 A  
HETATM   14  C   UNL     1     -11.865  10.819  69.353  1.00  0.00    -0.298 C  
ENDROOT
BRANCH  10  15
HETATM   15  C   UNL     1     -10.975   9.419  71.288  1.00  0.00    -0.370 C  
HETATM   16  C   UNL     1     -10.037   8.731  70.256  1.00  0.00    -0.191 C  
HETATM   17  N   UNL     1     -10.030   7.247  70.385  1.00  0.00    -0.190 NA 
HETATM   18  C   UNL     1      -9.568   6.876  71.737  1.00  0.00    -0.159 C  
HETATM   19  C   UNL     1     -10.428   7.528  72.834  1.00  0.00    -0.372 C  
HETATM   20  C   UNL     1     -11.597   8.306  72.183  1.00  0.00    -0.428 C  
HETATM   21  C   UNL     1     -12.344   7.266  71.328  1.00  0.00    -0.401 C  
HETATM   22  C   UNL     1     -11.416   6.754  70.213  1.00  0.00    -0.360 C  
ENDBRANCH  10  15
TORSDOF 1
ENDMDL
MODEL        4
REMARK 921   NORMALIZED FREE ENERGY PREDICTED BY IDOCK:   -7.43 KCAL/MOL
REMARK 922        TOTAL FREE ENERGY PREDICTED BY IDOCK:   -8.16 KCAL/MOL
REMARK 923 INTER-LIGAND FREE ENERGY PREDICTED BY IDOCK:   -7.77 KCAL/MOL
REMARK 924 INTRA-LIGAND FREE ENERGY PREDICTED BY IDOCK:   -0.39 KCAL/MOL
REMARK 927      BINDING AFFINITY PREDICTED BY RF-SCORE:    0.00 PKD
ROOT
HETATM    1  C   UNL     1     -10.905  15.415  68.272  1.00  0.00    -0.269 C  
HETATM    2  C   UNL     1     -11.831  15.123  69.465  1.00  0.00    -0.358 C  
HETATM    3  C   UNL     1     -12.138  13.628  69.681  1.00  0.00    -0.378 C  
HETATM    4  C   UNL     1     -11.505  12.690  68.651  1.00  0.00    -0.347 C  
HETATM    5  C   UNL     1     -11.661  13.255  67.265  1.00  0.00    -0.404 A  
HETATM    6  C   UNL     1     -11.375  14.620  67.079  1.00  0.00    -0.362 A  
HETATM    7  C   UNL     1     -11.458  15.183  65.800  1.00  0.00    -0.172 A  
HETATM    8  C   UNL     1     -11.842  14.387  64.713  1.00  0.00    -0.439 A  
HETATM    9  C   UNL     1     -10.980  16.572  65.549  1.00  0.00    -0.092 C  
HETATM   10  N   UNL     1     -10.333  17.179  66.620  1.00  0.00    -0.323 N  
HETATM   11  C   UNL     1     -12.110  13.029  64.897  1.00  0.00    -0.459 A  
HETATM   12  O   UNL     1     -11.055  17.042  64.422  1.00  0.00    -1.144 OA 
HETATM   13  C   UNL     1     -12.013  12.462  66.168  1.00  0.00    -0.397 A  
HETATM   14  C   UNL     1     -10.866  16.911  67.951  1.00  0.00    -0.310 C  
ENDROOT
BRANCH  10  15
HETATM   15  C   UNL     1      -9.021  17.848  66.462  1.00  0.00    -0.261 C  
HETATM   16  C   UNL     1      -8.016  17.656  67.634  1.00  0.00    -0.208 C  
HETATM   17  N   UNL     1      -7.501  18.949  68.166  1.00  0.00    -0.262 NA 
HETATM   18  C   UNL     1      -6.808  19.681  67.087  1.00  0.00    -0.204 C  
HETATM   19  C   UNL     1      -7.721  19.902  65.869  1.00  0.00    -0.327 C  
HETATM   20  C   UNL     1      -9.142  19.375  66.182  1.00  0.00    -0.314 C  
HETATM   21  C   UNL     1      -9.582  20.134  67.449  1.00  0.00    -0.551 C  
HETATM   22  C   UNL     1      -8.653  19.764  68.618  1.00  0.00    -0.187 C  
ENDBRANCH  10  15
TORSDOF 1
ENDMDL
MODEL        5
REMARK 921   NORMALIZED FREE ENERGY PREDICTED BY IDOCK:   -7.42 KCAL/MOL
REMARK 922        TOTAL FREE ENERGY PREDICTED BY IDOCK:   -8.15 KCAL/MOL
REMARK 923 INTER-LIGAND FREE ENERGY PREDICTED BY IDOCK:   -7.73 KCAL/MOL
REMARK 924 INTRA-LIGAND FREE ENERGY PREDICTED BY IDOCK:   -0.42 KCAL/MOL
REMARK 927      BINDING AFFINITY PREDICTED BY RF-SCORE:    0.00 PKD
ROOT
HETATM    1  C   UNL     1     -10.978  14.696  68.461  1.00  0.00    -0.261 C  
HETATM    2  C   UNL     1     -11.975  14.176  69.510  1.00  0.00    -0.389 C  
HETATM    3  C   UNL     1     -12.005  12.641  69.653  1.00  0.00    -0.352 C  
HETATM    4  C   UNL     1     -11.070  11.893  68.701  1.00  0.00    -0.295 C  
HETATM    5  C   UNL     1     -11.153  12.479  67.318  1.00  0.00    -0.319 A  
HETATM    6  C   UNL     1     -11.122  13.881  67.199  1.00  0.00    -0.312 A  
HETATM    7  C   UNL     1     -11.148  14.476  65.932  1.00  0.00    -0.327 A  
HETATM    8  C   UNL     1     -11.221  13.671  64.788  1.00  0.00    -0.367 A  
HETATM    9  C   UNL     1     -10.926  15.941  65.776  1.00  0.00    -0.177 C  
HETATM   10  N   UNL     1     -10.558  16.612  66.937  1.00  0.00    -0.274 N  
HETATM   11  C   UNL     1     -11.236  12.280  64.907  1.00  0.00    -0.365 A  
HETATM   12  O   UNL     1     -10.946  16.439  64.658  1.00  0.00    -0.707 OA 
HETATM   13  C   UNL     1     -11.195  11.685  66.169  1.00  0.00    -0.314 A  
HETATM   14  C   UNL     1     -11.196  16.185  68.177  1.00  0.00    -0.311 C  
ENDROOT
BRANCH  10  15
HETATM   15  C   UNL     1      -9.395  17.529  66.973  1.00  0.00    -0.259 C  
HETATM   16  C   UNL     1      -8.657  17.635  68.337  1.00  0.00    -0.284 C  
HETATM   17  N   UNL     1      -8.528  19.041  68.813  1.00  0.00    -0.350 NA 
HETATM   18  C   UNL     1      -7.767  19.826  67.821  1.00  0.00    -0.288 C  
HETATM   19  C   UNL     1      -8.413  19.764  66.426  1.00  0.00    -0.391 C  
HETATM   20  C   UNL     1      -9.741  18.974  66.504  1.00  0.00    -0.396 C  
HETATM   21  C   UNL     1     -10.585  19.709  67.562  1.00  0.00    -0.577 C  
HETATM   22  C   UNL     1      -9.884  19.625  68.928  1.00  0.00    -0.415 C  
ENDBRANCH  10  15
TORSDOF 1
ENDMDL
MODEL        6
REMARK 921   NORMALIZED FREE ENERGY PREDICTED BY IDOCK:   -7.33 KCAL/MOL
REMARK 922        TOTAL FREE ENERGY PREDICTED BY IDOCK:   -8.05 KCAL/MOL
REMARK 923 INTER-LIGAND FREE ENERGY PREDICTED BY IDOCK:   -7.64 KCAL/MOL
REMARK 924 INTRA-LIGAND FREE ENERGY PREDICTED BY IDOCK:   -0.41 KCAL/MOL
REMARK 927      BINDING AFFINITY PREDICTED BY RF-SCORE:    0.00 PKD
ROOT
HETATM    1  C   UNL     1     -12.209  14.967  70.360  1.00  0.00    -0.393 C  
HETATM    2  C   UNL     1     -13.530  15.425  71.002  1.00  0.00    -0.510 C  
HETATM    3  C   UNL     1     -13.985  14.569  72.200  1.00  0.00    -0.597 C  
HETATM    4  C   UNL     1     -13.070  13.386  72.524  1.00  0.00    -0.424 C  
HETATM    5  C   UNL     1     -12.662  12.679  71.260  1.00  0.00    -0.354 A  
HETATM    6  C   UNL     1     -12.246  13.470  70.173  1.00  0.00    -0.400 A  
HETATM    7  C   UNL     1     -11.811  12.860  68.991  1.00  0.00    -0.352 A  
HETATM    8  C   UNL     1     -11.807  11.463  68.890  1.00  0.00    -0.413 A  
HETATM    9  C   UNL     1     -11.191  13.668  67.903  1.00  0.00    -0.274 C  
HETATM   10  N   UNL     1     -10.956  15.002  68.216  1.00  0.00    -0.261 N  
HETATM   11  C   UNL     1     -12.206  10.679  69.975  1.00  0.00    -0.373 A  
HETATM   12  O   UNL     1     -10.810  13.113  66.881  1.00  0.00    -0.262 OA 
HETATM   13  C   UNL     1     -12.626  11.285  71.160  1.00  0.00    -0.501 A  
HETATM   14  C   UNL     1     -11.963  15.678  69.026  1.00  0.00    -0.304 C  
ENDROOT
BRANCH  10  15
HETATM   15  C   UNL     1      -9.642  15.642  67.972  1.00  0.00    -0.203 C  
HETATM   16  C   UNL     1      -9.195  16.695  69.025  1.00  0.00    -0.223 C  
HETATM   17  N   UNL     1      -8.837  18.005  68.411  1.00  0.00    -0.288 NA 
HETATM   18  C   UNL     1      -7.726  17.812  67.459  1.00  0.00    -0.206 C  
HETATM   19  C   UNL     1      -8.069  16.766  66.384  1.00  0.00    -0.355 C  
HETATM   20  C   UNL     1      -9.533  16.298  66.564  1.00  0.00    -0.289 C  
HETATM   21  C   UNL     1     -10.378  17.584  66.489  1.00  0.00    -0.325 C  
HETATM   22  C   UNL     1     -10.012  18.509  67.662  1.00  0.00    -0.338 C  
ENDBRANCH  10  15
TORSDOF 1
ENDMDL
MODEL        7
REMARK 921   NORMALIZED FREE ENERGY PREDICTED BY IDOCK:   -7.29 KCAL/MOL
REMARK 922        TOTAL FREE ENERGY PREDICTED BY IDOCK:   -8.01 KCAL/MOL
REMARK 923 INTER-LIGAND FREE ENERGY PREDICTED BY IDOCK:   -7.71 KCAL/MOL
REMARK 924 INTRA-LIGAND FREE ENERGY PREDICTED BY IDOCK:   -0.30 KCAL/MOL
REMARK 927      BINDING AFFINITY PREDICTED BY RF-SCORE:    0.00 PKD
ROOT
HETATM    1  C   UNL     1     -11.389  12.431  69.263  1.00  0.00    -0.315 C  
HETATM    2  C   UNL     1     -11.698  12.974  67.858  1.00  0.00    -0.402 C  
HETATM    3  C   UNL     1     -11.747  14.512  67.767  1.00  0.00    -0.403 C  
HETATM    4  C   UNL     1     -11.520  15.238  69.094  1.00  0.00    -0.330 C  
HETATM    5  C   UNL     1     -12.295  14.567  70.196  1.00  0.00    -0.398 A  
HETATM    6  C   UNL     1     -12.241  13.163  70.271  1.00  0.00    -0.376 A  
HETATM    7  C   UNL     1     -12.904  12.493  71.306  1.00  0.00    -0.337 A  
HETATM    8  C   UNL     1     -13.632  13.224  72.254  1.00  0.00    -0.703 A  
HETATM    9  C   UNL     1     -12.705  11.031  71.514  1.00  0.00    -0.415 C  
HETATM   10  N   UNL     1     -11.727  10.446  70.717  1.00  0.00    -0.347 N  
HETATM   11  C   UNL     1     -13.673  14.618  72.186  1.00  0.00    -0.544 A  
HETATM   12  O   UNL     1     -13.288  10.466  72.430  1.00  0.00    -0.304 OA 
HETATM   13  C   UNL     1     -13.000  15.289  71.163  1.00  0.00    -0.521 A  
HETATM   14  C   UNL     1     -11.626  10.921  69.341  1.00  0.00    -0.316 C  
ENDROOT
BRANCH  10  15
HETATM   15  C   UNL     1     -10.670   9.579  71.287  1.00  0.00    -0.316 C  
HETATM   16  C   UNL     1      -9.464   9.276  70.352  1.00  0.00    -0.246 C  
HETATM   17  N   UNL     1      -9.204   7.817  70.206  1.00  0.00    -0.156 NA 
HETATM   18  C   UNL     1      -8.911   7.236  71.531  1.00  0.00    -0.122 C  
HETATM   19  C   UNL     1     -10.045   7.503  72.536  1.00  0.00    -0.262 C  
HETATM   20  C   UNL     1     -11.214   8.220  71.820  1.00  0.00    -0.346 C  
HETATM   21  C   UNL     1     -11.605   7.289  70.657  1.00  0.00    -0.322 C  
HETATM   22  C   UNL     1     -10.427   7.172  69.674  1.00  0.00    -0.229 C  
ENDBRANCH  10  15
TORSDOF 1
ENDMDL
MODEL        8
REMARK 921   NORMALIZED FREE ENERGY PREDICTED BY IDOCK:   -7.20 KCAL/MOL
REMARK 922        TOTAL FREE ENERGY PREDICTED BY IDOCK:   -7.91 KCAL/MOL
REMARK 923 INTER-LIGAND FREE ENERGY PREDICTED BY IDOCK:   -7.56 KCAL/MOL
REMARK 924 INTRA-LIGAND FREE ENERGY PREDICTED BY IDOCK:   -0.36 KCAL/MOL
REMARK 927      BINDING AFFINITY PREDICTED BY RF-SCORE:    0.00 PKD
ROOT
HETATM    1  C   UNL     1     -10.487  14.261  67.493  1.00  0.00    -0.252 C  
HETATM    2  C   UNL     1     -11.262  13.657  68.677  1.00  0.00    -0.308 C  
HETATM    3  C   UNL     1     -11.629  12.170  68.504  1.00  0.00    -0.366 C  
HETATM    4  C   UNL     1     -11.198  11.556  67.171  1.00  0.00    -0.365 C  
HETATM    5  C   UNL     1     -11.503  12.499  66.038  1.00  0.00    -0.423 A  
HETATM    6  C   UNL     1     -11.161  13.854  66.206  1.00  0.00    -0.304 A  
HETATM    7  C   UNL     1     -11.378  14.763  65.164  1.00  0.00    -0.379 A  
HETATM    8  C   UNL     1     -11.952  14.322  63.964  1.00  0.00    -0.328 A  
HETATM    9  C   UNL     1     -10.853  16.155  65.248  1.00  0.00    -0.336 C  
HETATM   10  N   UNL     1     -10.033  16.414  66.341  1.00  0.00    -0.286 N  
HETATM   11  C   UNL     1     -12.276  12.974  63.794  1.00  0.00    -0.536 A  
HETATM   12  O   UNL     1     -11.048  16.931  64.323  1.00  0.00    -1.135 OA 
HETATM   13  C   UNL     1     -12.046  12.063  64.826  1.00  0.00    -0.282 A  
HETATM   14  C   UNL     1     -10.400  15.786  67.605  1.00  0.00    -0.281 C  
ENDROOT
BRANCH  10  15
HETATM   15  C   UNL     1      -8.715  17.072  66.189  1.00  0.00    -0.219 C  
HETATM   16  C   UNL     1      -7.554  16.469  67.030  1.00  0.00    -0.205 C  
HETATM   17  N   UNL     1      -6.862  17.488  67.868  1.00  0.00    -0.180 NA 
HETATM   18  C   UNL     1      -6.295  18.536  66.996  1.00  0.00    -0.178 C  
HETATM   19  C   UNL     1      -7.372  19.181  66.105  1.00  0.00    -0.291 C  
HETATM   20  C   UNL     1      -8.760  18.604  66.468  1.00  0.00    -0.312 C  
HETATM   21  C   UNL     1      -8.932  18.885  67.973  1.00  0.00    -0.338 C  
HETATM   22  C   UNL     1      -7.860  18.116  68.765  1.00  0.00    -0.254 C  
ENDBRANCH  10  15
TORSDOF 1
ENDMDL
MODEL        9
REMARK 921   NORMALIZED FREE ENERGY PREDICTED BY IDOCK:   -7.07 KCAL/MOL
REMARK 922        TOTAL FREE ENERGY PREDICTED BY IDOCK:   -7.78 KCAL/MOL
REMARK 923 INTER-LIGAND FREE ENERGY PREDICTED BY IDOCK:   -7.54 KCAL/MOL
REMARK 924 INTRA-LIGAND FREE ENERGY PREDICTED BY IDOCK:   -0.25 KCAL/MOL
REMARK 927      BINDING AFFINITY PREDICTED BY RF-SCORE:    0.00 PKD
ROOT
HETATM    1  C   UNL     1     -11.247  12.025  68.693  1.00  0.00    -0.309 C  
HETATM    2  C   UNL     1     -11.549  12.364  67.224  1.00  0.00    -0.435 C  
HETATM    3  C   UNL     1     -11.292  13.836  66.845  1.00  0.00    -0.345 C  
HETATM    4  C   UNL     1     -10.820  14.720  68.001  1.00  0.00    -0.261 C  
HETATM    5  C   UNL     1     -11.626  14.435  69.240  1.00  0.00    -0.345 A  
HETATM    6  C   UNL     1     -11.852  13.088  69.577  1.00  0.00    -0.385 A  
HETATM    7  C   UNL     1     -12.554  12.769  70.746  1.00  0.00    -0.308 A  
HETATM    8  C   UNL     1     -13.043  13.794  71.566  1.00  0.00    -0.435 A  
HETATM    9  C   UNL     1     -12.640  11.358  71.218  1.00  0.00    -0.374 C  
HETATM   10  N   UNL     1     -11.867  10.446  70.509  1.00  0.00    -0.310 N  
HETATM   11  C   UNL     1     -12.805  15.130  71.237  1.00  0.00    -0.461 A  
HETATM   12  O   UNL     1     -13.253  11.102  72.247  1.00  0.00    -0.413 OA 
HETATM   13  C   UNL     1     -12.092  15.451  70.080  1.00  0.00    -0.400 A  
HETATM   14  C   UNL     1     -11.780  10.638  69.065  1.00  0.00    -0.234 C  
ENDROOT
BRANCH  10  15
HETATM   15  C   UNL     1     -10.966   9.489  71.190  1.00  0.00    -0.368 C  
HETATM   16  C   UNL     1     -10.003   8.688  70.268  1.00  0.00    -0.186 C  
HETATM   17  N   UNL     1     -10.105   7.216  70.470  1.00  0.00    -0.194 NA 
HETATM   18  C   UNL     1      -9.770   6.890  71.870  1.00  0.00    -0.161 C  
HETATM   19  C   UNL     1     -10.662   7.654  72.864  1.00  0.00    -0.428 C  
HETATM   20  C   UNL     1     -11.726   8.467  72.088  1.00  0.00    -0.442 C  
HETATM   21  C   UNL     1     -12.476   7.431  71.229  1.00  0.00    -0.381 C  
HETATM   22  C   UNL     1     -11.504   6.802  70.216  1.00  0.00    -0.360 C  
ENDBRANCH  10  15
TORSDOF 1
ENDMDL
MODEL       10
REMARK 921   NORMALIZED FREE ENERGY PREDICTED BY IDOCK:   -7.06 KCAL/MOL
REMARK 922        TOTAL FREE ENERGY PREDICTED BY IDOCK:   -7.77 KCAL/MOL
REMARK 923 INTER-LIGAND FREE ENERGY PREDICTED BY IDOCK:   -7.44 KCAL/MOL
REMARK 924 INTRA-LIGAND FREE ENERGY PREDICTED BY IDOCK:   -0.33 KCAL/MOL
REMARK 927      BINDING AFFINITY PREDICTED BY RF-SCORE:    0.00 PKD
ROOT
HETATM    1  C   UNL     1      -9.891  17.901  66.590  1.00  0.00    -0.342 C  
HETATM    2  C   UNL     1     -10.551  19.016  67.417  1.00  0.00    -0.559 C  
HETATM    3  C   UNL     1      -9.763  20.341  67.441  1.00  0.00    -0.584 C  
HETATM    4  C   UNL     1      -8.440  20.312  66.674  1.00  0.00    -0.295 C  
HETATM    5  C   UNL     1      -7.695  19.037  66.964  1.00  0.00    -0.245 A  
HETATM    6  C   UNL     1      -8.424  17.833  66.937  1.00  0.00    -0.260 A  
HETATM    7  C   UNL     1      -7.768  16.616  67.152  1.00  0.00    -0.213 A  
HETATM    8  C   UNL     1      -6.392  16.602  67.411  1.00  0.00    -0.200 A  
HETATM    9  C   UNL     1      -8.479  15.323  66.941  1.00  0.00    -0.252 C  
HETATM   10  N   UNL     1      -9.751  15.429  66.389  1.00  0.00    -0.268 N  
HETATM   11  C   UNL     1      -5.668  17.797  67.423  1.00  0.00    -0.162 A  
HETATM   12  O   UNL     1      -7.885  14.270  67.129  1.00  0.00    -0.170 OA 
HETATM   13  C   UNL     1      -6.316  19.011  67.194  1.00  0.00    -0.187 A  
HETATM   14  C   UNL     1     -10.571  16.551  66.832  1.00  0.00    -0.238 C  
ENDROOT
BRANCH  10  15
HETATM   15  C   UNL     1     -10.168  14.613  65.226  1.00  0.00    -0.391 C  
HETATM   16  C   UNL     1     -11.425  15.115  64.461  1.00  0.00    -0.316 C  
HETATM   17  N   UNL     1     -12.470  14.062  64.320  1.00  0.00    -0.684 NA 
HETATM   18  C   UNL     1     -11.913  12.915  63.578  1.00  0.00    -0.556 C  
HETATM   19  C   UNL     1     -10.646  12.359  64.251  1.00  0.00    -0.391 C  
HETATM   20  C   UNL     1     -10.390  13.112  65.578  1.00  0.00    -0.299 C  
HETATM   21  C   UNL     1     -11.679  12.926  66.401  1.00  0.00    -0.454 C  
HETATM   22  C   UNL     1     -12.855  13.599  65.674  1.00  0.00    -0.371 C  
ENDBRANCH  10  15
TORSDOF 1
ENDMDL
MODEL       11
REMARK 921   NORMALIZED FREE ENERGY PREDICTED BY IDOCK:   -6.81 KCAL/MOL
REMARK 922        TOTAL FREE ENERGY PREDICTED BY IDOCK:   -7.51 KCAL/MOL
REMARK 923 INTER-LIGAND FREE ENERGY PREDICTED BY IDOCK:   -7.30 KCAL/MOL
REMARK 924 INTRA-LIGAND FREE ENERGY PREDICTED BY IDOCK:   -0.21 KCAL/MOL
REMARK 927      BINDING AFFINITY PREDICTED BY RF-SCORE:    0.00 PKD
ROOT
HETATM    1  C   UNL     1     -11.110  12.227  67.272  1.00  0.00    -0.326 C  
HETATM    2  C   UNL     1     -11.563  11.020  68.112  1.00  0.00    -0.345 C  
HETATM    3  C   UNL     1     -10.704   9.755  67.920  1.00  0.00    -0.312 C  
HETATM    4  C   UNL     1      -9.573   9.898  66.899  1.00  0.00    -0.225 C  
HETATM    5  C   UNL     1     -10.065  10.615  65.671  1.00  0.00    -0.335 A  
HETATM    6  C   UNL     1     -10.846  11.771  65.858  1.00  0.00    -0.339 A  
HETATM    7  C   UNL     1     -11.288  12.502  64.749  1.00  0.00    -0.354 A  
HETATM    8  C   UNL     1     -10.964  12.069  63.457  1.00  0.00    -0.514 A  
HETATM    9  C   UNL     1     -11.951  13.825  64.927  1.00  0.00    -0.390 C  
HETATM   10  N   UNL     1     -11.956  14.316  66.227  1.00  0.00    -0.411 N  
HETATM   11  C   UNL     1     -10.177  10.931  63.274  1.00  0.00    -0.317 A  
HETATM   12  O   UNL     1     -12.323  14.450  63.943  1.00  0.00    -0.720 OA 
HETATM   13  C   UNL     1      -9.722  10.209  64.379  1.00  0.00    -0.345 A  
HETATM   14  C   UNL     1     -12.155  13.346  67.298  1.00  0.00    -0.304 C  
ENDROOT
BRANCH  10  15
HETATM   15  C   UNL     1     -11.523  15.697  66.542  1.00  0.00     0.165 C  
HETATM   16  C   UNL     1     -10.813  16.465  65.391  1.00  0.00    -0.239 C  
HETATM   17  N   UNL     1      -9.488  17.012  65.798  1.00  0.00    -0.530 NA 
HETATM   18  C   UNL     1      -9.670  17.948  66.925  1.00  0.00    -0.309 C  
HETATM   19  C   UNL     1     -10.387  17.280  68.111  1.00  0.00    -0.357 C  
HETATM   20  C   UNL     1     -10.614  15.781  67.804  1.00  0.00    -0.292 C  
HETATM   21  C   UNL     1      -9.213  15.214  67.512  1.00  0.00    -0.188 C  
HETATM   22  C   UNL     1      -8.636  15.890  66.256  1.00  0.00    -0.313 C  
ENDBRANCH  10  15
TORSDOF 1
ENDMDL
MODEL       12
REMARK 921   NORMALIZED FREE ENERGY PREDICTED BY IDOCK:   -6.77 KCAL/MOL
REMARK 922        TOTAL FREE ENERGY PREDICTED BY IDOCK:   -7.46 KCAL/MOL
REMARK 923 INTER-LIGAND FREE ENERGY PREDICTED BY IDOCK:   -7.04 KCAL/MOL
REMARK 924 INTRA-LIGAND FREE ENERGY PREDICTED BY IDOCK:   -0.42 KCAL/MOL
REMARK 927      BINDING AFFINITY PREDICTED BY RF-SCORE:    0.00 PKD
ROOT
HETATM    1  C   UNL     1      -8.392  16.738  67.476  1.00  0.00    -0.200 C  
HETATM    2  C   UNL     1      -6.877  16.892  67.689  1.00  0.00    -0.161 C  
HETATM    3  C   UNL     1      -6.477  18.094  68.567  1.00  0.00    -0.214 C  
HETATM    4  C   UNL     1      -7.648  18.954  69.046  1.00  0.00    -0.283 C  
HETATM    5  C   UNL     1      -8.619  19.188  67.919  1.00  0.00    -0.340 A  
HETATM    6  C   UNL     1      -8.979  18.083  67.126  1.00  0.00    -0.255 A  
HETATM    7  C   UNL     1      -9.914  18.238  66.096  1.00  0.00    -0.313 A  
HETATM    8  C   UNL     1     -10.476  19.498  65.850  1.00  0.00    -0.585 A  
HETATM    9  C   UNL     1     -10.449  17.051  65.371  1.00  0.00    -0.112 C  
HETATM   10  N   UNL     1     -10.066  15.818  65.888  1.00  0.00    -0.330 N  
HETATM   11  C   UNL     1     -10.129  20.590  66.648  1.00  0.00    -0.322 A  
HETATM   12  O   UNL     1     -11.272  17.209  64.479  1.00  0.00    -1.104 OA 
HETATM   13  C   UNL     1      -9.207  20.434  67.685  1.00  0.00    -0.413 A  
HETATM   14  C   UNL     1      -8.699  15.708  66.386  1.00  0.00    -0.318 C  
ENDROOT
BRANCH  10  15
HETATM   15  C   UNL     1     -11.051  14.748  66.166  1.00  0.00    -0.339 C  
HETATM   16  C   UNL     1     -10.707  13.801  67.350  1.00  0.00    -0.275 C  
HETATM   17  N   UNL     1     -10.733  12.363  66.962  1.00  0.00    -0.235 NA 
HETATM   18  C   UNL     1     -12.080  12.011  66.474  1.00  0.00     0.217 C  
HETATM   19  C   UNL     1     -12.519  12.913  65.307  1.00  0.00    -0.552 C  
HETATM   20  C   UNL     1     -11.360  13.863  64.922  1.00  0.00    -0.349 C  
HETATM   21  C   UNL     1     -10.173  12.937  64.595  1.00  0.00    -0.321 C  
HETATM   22  C   UNL     1      -9.767  12.157  65.857  1.00  0.00    -0.239 C  
ENDBRANCH  10  15
TORSDOF 1
ENDMDL
MODEL       13
REMARK 921   NORMALIZED FREE ENERGY PREDICTED BY IDOCK:   -6.71 KCAL/MOL
REMARK 922        TOTAL FREE ENERGY PREDICTED BY IDOCK:   -7.40 KCAL/MOL
REMARK 923 INTER-LIGAND FREE ENERGY PREDICTED BY IDOCK:   -7.27 KCAL/MOL
REMARK 924 INTRA-LIGAND FREE ENERGY PREDICTED BY IDOCK:   -0.13 KCAL/MOL
REMARK 927      BINDING AFFINITY PREDICTED BY RF-SCORE:    0.00 PKD
ROOT
HETATM    1  C   UNL     1     -10.163  10.122  69.004  1.00  0.00    -0.221 C  
HETATM    2  C   UNL     1      -8.860   9.503  69.539  1.00  0.00    -0.185 C  
HETATM    3  C   UNL     1      -9.066   8.287  70.462  1.00  0.00    -0.154 C  
HETATM    4  C   UNL     1     -10.529   7.924  70.725  1.00  0.00    -0.218 C  
HETATM    5  C   UNL     1     -11.335   9.166  70.995  1.00  0.00    -0.377 A  
HETATM    6  C   UNL     1     -11.141  10.270  70.144  1.00  0.00    -0.385 A  
HETATM    7  C   UNL     1     -11.900  11.432  70.323  1.00  0.00    -0.438 A  
HETATM    8  C   UNL     1     -12.840  11.496  71.360  1.00  0.00    -0.489 A  
HETATM    9  C   UNL     1     -11.847  12.535  69.323  1.00  0.00    -0.304 C  
HETATM   10  N   UNL     1     -11.122  12.256  68.169  1.00  0.00    -0.224 N  
HETATM   11  C   UNL     1     -13.042  10.395  72.194  1.00  0.00    -0.427 A  
HETATM   12  O   UNL     1     -12.525  13.539  69.495  1.00  0.00    -0.205 OA 
HETATM   13  C   UNL     1     -12.296   9.229  72.008  1.00  0.00    -0.433 A  
HETATM   14  C   UNL     1      -9.903  11.472  68.330  1.00  0.00    -0.204 C  
ENDROOT
BRANCH  10  15
HETATM   15  C   UNL     1     -11.676  12.505  66.819  1.00  0.00    -0.384 C  
HETATM   16  C   UNL     1     -10.753  12.128  65.626  1.00  0.00    -0.275 C  
HETATM   17  N   UNL     1     -10.554  13.256  64.674  1.00  0.00    -0.383 NA 
HETATM   18  C   UNL     1     -11.860  13.670  64.125  1.00  0.00    -0.422 C  
HETATM   19  C   UNL     1     -12.854  14.046  65.238  1.00  0.00    -0.418 C  
HETATM   20  C   UNL     1     -12.146  13.976  66.612  1.00  0.00    -0.487 C  
HETATM   21  C   UNL     1     -10.940  14.927  66.492  1.00  0.00    -0.327 C  
HETATM   22  C   UNL     1      -9.975  14.400  65.416  1.00  0.00    -0.311 C  
ENDBRANCH  10  15
TORSDOF 1
ENDMDL
MODEL       14
REMARK 921   NORMALIZED FREE ENERGY PREDICTED BY IDOCK:   -6.70 KCAL/MOL
REMARK 922        TOTAL FREE ENERGY PREDICTED BY IDOCK:   -7.39 KCAL/MOL
REMARK 923 INTER-LIGAND FREE ENERGY PREDICTED BY IDOCK:   -7.17 KCAL/MOL
REMARK 924 INTRA-LIGAND FREE ENERGY PREDICTED BY IDOCK:   -0.22 KCAL/MOL
REMARK 927      BINDING AFFINITY PREDICTED BY RF-SCORE:    0.00 PKD
ROOT
HETATM    1  C   UNL     1     -11.457  11.338  69.371  1.00  0.00    -0.370 C  
HETATM    2  C   UNL     1     -11.761  11.688  67.904  1.00  0.00    -0.329 C  
HETATM    3  C   UNL     1     -11.730  13.197  67.591  1.00  0.00    -0.414 C  
HETATM    4  C   UNL     1     -11.443  14.094  68.796  1.00  0.00    -0.333 C  
HETATM    5  C   UNL     1     -12.233  13.633  69.991  1.00  0.00    -0.395 A  
HETATM    6  C   UNL     1     -12.252  12.253  70.269  1.00  0.00    -0.342 A  
HETATM    7  C   UNL     1     -12.932  11.777  71.397  1.00  0.00    -0.408 A  
HETATM    8  C   UNL     1     -13.604  12.676  72.234  1.00  0.00    -0.508 A  
HETATM    9  C   UNL     1     -12.807  10.352  71.813  1.00  0.00    -0.456 C  
HETATM   10  N   UNL     1     -11.875   9.605  71.100  1.00  0.00    -0.338 N  
HETATM   11  C   UNL     1     -13.572  14.046  71.965  1.00  0.00    -0.552 A  
HETATM   12  O   UNL     1     -13.404   9.959  72.807  1.00  0.00    -0.044 OA 
HETATM   13  C   UNL     1     -12.882  14.525  70.850  1.00  0.00    -0.425 A  
HETATM   14  C   UNL     1     -11.773   9.870  69.670  1.00  0.00     0.034 C  
ENDROOT
BRANCH  10  15
HETATM   15  C   UNL     1     -10.856   8.774  71.780  1.00  0.00    -0.345 C  
HETATM   16  C   UNL     1      -9.776   8.137  70.860  1.00  0.00    -0.166 C  
HETATM   17  N   UNL     1      -9.668   6.661  71.037  1.00  0.00    -0.175 NA 
HETATM   18  C   UNL     1      -9.309   6.361  72.436  1.00  0.00    -0.140 C  
HETATM   19  C   UNL     1     -10.315   6.971  73.429  1.00  0.00    -0.370 C  
HETATM   20  C   UNL     1     -11.473   7.637  72.649  1.00  0.00    -0.403 C  
HETATM   21  C   UNL     1     -12.056   6.521  71.762  1.00  0.00    -0.393 C  
HETATM   22  C   UNL     1     -10.991   6.056  70.754  1.00  0.00    -0.297 C  
ENDBRANCH  10  15
TORSDOF 1
ENDMDL
MODEL       15
REMARK 921   NORMALIZED FREE ENERGY PREDICTED BY IDOCK:   -6.69 KCAL/MOL
REMARK 922        TOTAL FREE ENERGY PREDICTED BY IDOCK:   -7.38 KCAL/MOL
REMARK 923 INTER-LIGAND FREE ENERGY PREDICTED BY IDOCK:   -7.25 KCAL/MOL
REMARK 924 INTRA-LIGAND FREE ENERGY PREDICTED BY IDOCK:   -0.13 KCAL/MOL
REMARK 927      BINDING AFFINITY PREDICTED BY RF-SCORE:    0.00 PKD
ROOT
HETATM    1  C   UNL     1     -10.968  11.900  67.475  1.00  0.00    -0.299 C  
HETATM    2  C   UNL     1     -11.310  10.562  68.153  1.00  0.00    -0.324 C  
HETATM    3  C   UNL     1     -10.464   9.369  67.667  1.00  0.00    -0.328 C  
HETATM    4  C   UNL     1      -9.456   9.706  66.566  1.00  0.00    -0.233 C  
HETATM    5  C   UNL     1     -10.091  10.595  65.531  1.00  0.00    -0.343 A  
HETATM    6  C   UNL     1     -10.859  11.683  65.986  1.00  0.00    -0.339 A  
HETATM    7  C   UNL     1     -11.431  12.568  65.064  1.00  0.00    -0.368 A  
HETATM    8  C   UNL     1     -11.249  12.356  63.691  1.00  0.00    -0.544 A  
HETATM    9  C   UNL     1     -12.084  13.826  65.524  1.00  0.00    -0.410 C  
HETATM   10  N   UNL     1     -11.948  14.103  66.880  1.00  0.00    -0.433 N  
HETATM   11  C   UNL     1     -10.474  11.285  63.242  1.00  0.00    -0.370 A  
HETATM   12  O   UNL     1     -12.571  14.589  64.701  1.00  0.00    -0.607 OA 
HETATM   13  C   UNL     1      -9.891  10.409  64.160  1.00  0.00    -0.379 A  
HETATM   14  C   UNL     1     -12.015  12.970  67.795  1.00  0.00    -0.295 C  
ENDROOT
BRANCH  10  15
HETATM   15  C   UNL     1     -11.499  15.428  67.364  1.00  0.00    -0.195 C  
HETATM   16  C   UNL     1     -10.521  16.197  66.430  1.00  0.00    -0.301 C  
HETATM   17  N   UNL     1      -9.273  16.618  67.126  1.00  0.00    -0.219 NA 
HETATM   18  C   UNL     1      -9.617  17.505  68.254  1.00  0.00    -0.299 C  
HETATM   19  C   UNL     1     -10.602  16.836  69.229  1.00  0.00    -0.336 C  
HETATM   20  C   UNL     1     -10.860  15.376  68.784  1.00  0.00    -0.252 C  
HETATM   21  C   UNL     1      -9.469  14.718  68.739  1.00  0.00    -0.206 C  
HETATM   22  C   UNL     1      -8.607  15.411  67.669  1.00  0.00    -0.167 C  
ENDBRANCH  10  15
TORSDOF 1
ENDMDL
MODEL       16
REMARK 921   NORMALIZED FREE ENERGY PREDICTED BY IDOCK:   -6.63 KCAL/MOL
REMARK 922        TOTAL FREE ENERGY PREDICTED BY IDOCK:   -7.31 KCAL/MOL
REMARK 923 INTER-LIGAND FREE ENERGY PREDICTED BY IDOCK:   -7.07 KCAL/MOL
REMARK 924 INTRA-LIGAND FREE ENERGY PREDICTED BY IDOCK:   -0.24 KCAL/MOL
REMARK 927      BINDING AFFINITY PREDICTED BY RF-SCORE:    0.00 PKD
ROOT
HETATM    1  C   UNL     1     -10.557  10.892  67.331  1.00  0.00    -0.285 C  
HETATM    2  C   UNL     1     -10.759   9.390  67.592  1.00  0.00    -0.295 C  
HETATM    3  C   UNL     1      -9.953   8.468  66.656  1.00  0.00    -0.363 C  
HETATM    4  C   UNL     1      -9.121   9.199  65.600  1.00  0.00    -0.273 C  
HETATM    5  C   UNL     1      -9.921  10.313  64.983  1.00  0.00    -0.393 A  
HETATM    6  C   UNL     1     -10.651  11.151  65.847  1.00  0.00    -0.294 A  
HETATM    7  C   UNL     1     -11.373  12.231  65.328  1.00  0.00    -0.384 A  
HETATM    8  C   UNL     1     -11.379  12.464  63.946  1.00  0.00    -0.502 A  
HETATM    9  C   UNL     1     -11.994  13.236  66.236  1.00  0.00    -0.417 C  
HETATM   10  N   UNL     1     -11.678  13.095  67.582  1.00  0.00    -0.354 N  
HETATM   11  C   UNL     1     -10.642  11.641  63.092  1.00  0.00    -0.341 A  
HETATM   12  O   UNL     1     -12.615  14.178  65.760  1.00  0.00    -0.488 OA 
HETATM   13  C   UNL     1      -9.909  10.572  63.609  1.00  0.00    -0.354 A  
HETATM   14  C   UNL     1     -11.581  11.733  68.097  1.00  0.00    -0.323 C  
ENDROOT
BRANCH  10  15
HETATM   15  C   UNL     1     -11.206  14.236  68.398  1.00  0.00    -0.269 C  
HETATM   16  C   UNL     1     -11.778  15.630  68.012  1.00  0.00    -0.153 C  
HETATM   17  N   UNL     1     -10.712  16.640  67.765  1.00  0.00    -0.340 NA 
HETATM   18  C   UNL     1      -9.901  16.805  68.987  1.00  0.00    -0.260 C  
HETATM   19  C   UNL     1      -9.305  15.468  69.462  1.00  0.00    -0.276 C  
HETATM   20  C   UNL     1      -9.653  14.354  68.445  1.00  0.00    -0.219 C  
HETATM   21  C   UNL     1      -9.098  14.853  67.098  1.00  0.00    -0.236 C  
HETATM   22  C   UNL     1      -9.831  16.140  66.684  1.00  0.00    -0.249 C  
ENDBRANCH  10  15
TORSDOF 1
ENDMDL
MODEL       17
REMARK 921   NORMALIZED FREE ENERGY PREDICTED BY IDOCK:   -6.60 KCAL/MOL
REMARK 922        TOTAL FREE ENERGY PREDICTED BY IDOCK:   -7.29 KCAL/MOL
REMARK 923 INTER-LIGAND FREE ENERGY PREDICTED BY IDOCK:   -6.90 KCAL/MOL
REMARK 924 INTRA-LIGAND FREE ENERGY PREDICTED BY IDOCK:   -0.39 KCAL/MOL
REMARK 927      BINDING AFFINITY PREDICTED BY RF-SCORE:    0.00 PKD
ROOT
HETATM    1  C   UNL     1     -10.457   9.233  69.348  1.00  0.00    -0.229 C  
HETATM    2  C   UNL     1      -9.238   8.369  69.714  1.00  0.00    -0.157 C  
HETATM    3  C   UNL     1      -9.591   6.967  70.249  1.00  0.00    -0.170 C  
HETATM    4  C   UNL     1     -11.090   6.685  70.364  1.00  0.00    -0.374 C  
HETATM    5  C   UNL     1     -11.801   7.871  70.957  1.00  0.00    -0.285 A  
HETATM    6  C   UNL     1     -11.474   9.146  70.460  1.00  0.00    -0.271 A  
HETATM    7  C   UNL     1     -12.141  10.277  70.944  1.00  0.00    -0.468 A  
HETATM    8  C   UNL     1     -13.121  10.136  71.935  1.00  0.00    -0.571 A  
HETATM    9  C   UNL     1     -11.946  11.607  70.300  1.00  0.00    -0.358 C  
HETATM   10  N   UNL     1     -11.192  11.596  69.132  1.00  0.00    -0.246 N  
HETATM   11  C   UNL     1     -13.455   8.868  72.417  1.00  0.00    -0.499 A  
HETATM   12  O   UNL     1     -12.545  12.582  70.735  1.00  0.00    -0.304 OA 
HETATM   13  C   UNL     1     -12.802   7.737  71.924  1.00  0.00    -0.317 A  
HETATM   14  C   UNL     1     -10.052  10.687  69.091  1.00  0.00    -0.216 C  
ENDROOT
BRANCH  10  15
HETATM   15  C   UNL     1     -11.657  12.266  67.896  1.00  0.00    -0.354 C  
HETATM   16  C   UNL     1     -11.050  11.734  66.566  1.00  0.00    -0.310 C  
HETATM   17  N   UNL     1     -10.437  12.813  65.743  1.00  0.00    -0.271 NA 
HETATM   18  C   UNL     1     -11.467  13.815  65.404  1.00  0.00    -0.311 C  
HETATM   19  C   UNL     1     -12.142  14.388  66.663  1.00  0.00    -0.392 C  
HETATM   20  C   UNL     1     -11.460  13.811  67.926  1.00  0.00    -0.347 C  
HETATM   21  C   UNL     1      -9.972  14.179  67.783  1.00  0.00    -0.235 C  
HETATM   22  C   UNL     1      -9.385  13.478  66.546  1.00  0.00    -0.215 C  
ENDBRANCH  10  15
TORSDOF 1
ENDMDL
MODEL       18
REMARK 921   NORMALIZED FREE ENERGY PREDICTED BY IDOCK:   -6.50 KCAL/MOL
REMARK 922        TOTAL FREE ENERGY PREDICTED BY IDOCK:   -7.17 KCAL/MOL
REMARK 923 INTER-LIGAND FREE ENERGY PREDICTED BY IDOCK:   -7.10 KCAL/MOL
REMARK 924 INTRA-LIGAND FREE ENERGY PREDICTED BY IDOCK:   -0.07 KCAL/MOL
REMARK 927      BINDING AFFINITY PREDICTED BY RF-SCORE:    0.00 PKD
ROOT
HETATM    1  C   UNL     1     -11.045  12.772  67.472  1.00  0.00    -0.300 C  
HETATM    2  C   UNL     1     -11.668  11.677  68.355  1.00  0.00    -0.374 C  
HETATM    3  C   UNL     1     -11.087  10.268  68.126  1.00  0.00    -0.324 C  
HETATM    4  C   UNL     1     -10.019  10.187  67.033  1.00  0.00    -0.249 C  
HETATM    5  C   UNL     1     -10.441  10.986  65.830  1.00  0.00    -0.290 A  
HETATM    6  C   UNL     1     -10.968  12.272  66.050  1.00  0.00    -0.327 A  
HETATM    7  C   UNL     1     -11.330  13.074  64.962  1.00  0.00    -0.325 A  
HETATM    8  C   UNL     1     -11.182  12.586  63.657  1.00  0.00    -0.545 A  
HETATM    9  C   UNL     1     -11.710  14.501  65.164  1.00  0.00    -0.376 C  
HETATM   10  N   UNL     1     -11.534  14.985  66.455  1.00  0.00    -0.293 N  
HETATM   11  C   UNL     1     -10.645  11.315  63.440  1.00  0.00    -0.393 A  
HETATM   12  O   UNL     1     -12.016  15.187  64.197  1.00  0.00    -0.467 OA 
HETATM   13  C   UNL     1     -10.268  10.519  64.523  1.00  0.00    -0.355 A  
HETATM   14  C   UNL     1     -11.848  14.073  67.550  1.00  0.00    -0.407 C  
ENDROOT
BRANCH  10  15
HETATM   15  C   UNL     1     -10.821  16.255  66.723  1.00  0.00    -0.125 C  
HETATM   16  C   UNL     1      -9.334  16.308  66.270  1.00  0.00    -0.326 C  
HETATM   17  N   UNL     1      -8.412  16.705  67.370  1.00  0.00    -0.185 NA 
HETATM   18  C   UNL     1      -8.785  18.045  67.863  1.00  0.00    -0.257 C  
HETATM   19  C   UNL     1     -10.254  18.098  68.318  1.00  0.00    -0.402 C  
HETATM   20  C   UNL     1     -10.879  16.686  68.219  1.00  0.00    -0.356 C  
HETATM   21  C   UNL     1      -9.979  15.786  69.086  1.00  0.00    -0.241 C  
HETATM   22  C   UNL     1      -8.564  15.739  68.483  1.00  0.00    -0.183 C  
ENDBRANCH  10  15
TORSDOF 1
ENDMDL
MODEL       19
REMARK 921   NORMALIZED FREE ENERGY PREDICTED BY IDOCK:   -6.44 KCAL/MOL
REMARK 922        TOTAL FREE ENERGY PREDICTED BY IDOCK:   -7.11 KCAL/MOL
REMARK 923 INTER-LIGAND FREE ENERGY PREDICTED BY IDOCK:   -6.85 KCAL/MOL
REMARK 924 INTRA-LIGAND FREE ENERGY PREDICTED BY IDOCK:   -0.27 KCAL/MOL
REMARK 927      BINDING AFFINITY PREDICTED BY RF-SCORE:    0.00 PKD
ROOT
HETATM    1  C   UNL     1     -11.203  12.729  68.617  1.00  0.00    -0.322 C  
HETATM    2  C   UNL     1     -11.887  11.784  69.619  1.00  0.00    -0.407 C  
HETATM    3  C   UNL     1     -11.222  10.399  69.742  1.00  0.00    -0.353 C  
HETATM    4  C   UNL     1     -10.020  10.183  68.820  1.00  0.00    -0.187 C  
HETATM    5  C   UNL     1     -10.318  10.708  67.441  1.00  0.00    -0.262 A  
HETATM    6  C   UNL     1     -10.923  11.974  67.341  1.00  0.00    -0.311 A  
HETATM    7  C   UNL     1     -11.176  12.529  66.081  1.00  0.00    -0.362 A  
HETATM    8  C   UNL     1     -10.841  11.812  64.925  1.00  0.00    -0.353 A  
HETATM    9  C   UNL     1     -11.638  13.940  65.951  1.00  0.00    -0.340 C  
HETATM   10  N   UNL     1     -11.649  14.672  67.134  1.00  0.00    -0.375 N  
HETATM   11  C   UNL     1     -10.228  10.562  65.027  1.00  0.00    -0.365 A  
HETATM   12  O   UNL     1     -11.847  14.407  64.840  1.00  0.00    -0.377 OA 
HETATM   13  C   UNL     1      -9.960  10.013  66.282  1.00  0.00    -0.310 A  
HETATM   14  C   UNL     1     -12.063  13.966  68.342  1.00  0.00    -0.291 C  
ENDROOT
BRANCH  10  15
HETATM   15  C   UNL     1     -11.031  16.014  67.228  1.00  0.00    -0.207 C  
HETATM   16  C   UNL     1     -10.418  16.572  65.912  1.00  0.00    -0.323 C  
HETATM   17  N   UNL     1      -8.998  16.992  66.073  1.00  0.00    -0.515 NA 
HETATM   18  C   UNL     1      -8.912  18.048  67.100  1.00  0.00    -0.255 C  
HETATM   19  C   UNL     1      -9.516  17.593  68.440  1.00  0.00    -0.298 C  
HETATM   20  C   UNL     1      -9.944  16.110  68.339  1.00  0.00    -0.230 C  
HETATM   21  C   UNL     1      -8.668  15.350  67.929  1.00  0.00    -0.160 C  
HETATM   22  C   UNL     1      -8.213  15.824  66.538  1.00  0.00    -0.243 C  
ENDBRANCH  10  15
TORSDOF 1
ENDMDL
MODEL       20
REMARK 921   NORMALIZED FREE ENERGY PREDICTED BY IDOCK:   -6.35 KCAL/MOL
REMARK 922        TOTAL FREE ENERGY PREDICTED BY IDOCK:   -7.02 KCAL/MOL
REMARK 923 INTER-LIGAND FREE ENERGY PREDICTED BY IDOCK:   -6.89 KCAL/MOL
REMARK 924 INTRA-LIGAND FREE ENERGY PREDICTED BY IDOCK:   -0.13 KCAL/MOL
REMARK 927      BINDING AFFINITY PREDICTED BY RF-SCORE:    0.00 PKD
ROOT
HETATM    1  C   UNL     1     -11.057  11.824  67.852  1.00  0.00    -0.302 C  
HETATM    2  C   UNL     1     -11.444  11.994  66.373  1.00  0.00    -0.417 C  
HETATM    3  C   UNL     1     -11.185  13.404  65.806  1.00  0.00    -0.305 C  
HETATM    4  C   UNL     1     -10.627  14.407  66.817  1.00  0.00    -0.282 C  
HETATM    5  C   UNL     1     -11.359  14.291  68.127  1.00  0.00    -0.313 A  
HETATM    6  C   UNL     1     -11.587  12.999  68.636  1.00  0.00    -0.354 A  
HETATM    7  C   UNL     1     -12.220  12.839  69.874  1.00  0.00    -0.245 A  
HETATM    8  C   UNL     1     -12.639  13.966  70.593  1.00  0.00    -0.405 A  
HETATM    9  C   UNL     1     -12.301  11.497  70.517  1.00  0.00    -0.342 C  
HETATM   10  N   UNL     1     -11.590  10.488  69.877  1.00  0.00    -0.283 N  
HETATM   11  C   UNL     1     -12.399  15.247  70.093  1.00  0.00    -0.392 A  
HETATM   12  O   UNL     1     -12.853  11.380  71.603  1.00  0.00    -0.420 OA 
HETATM   13  C   UNL     1     -11.754  15.410  68.866  1.00  0.00    -0.377 A  
HETATM   14  C   UNL     1     -11.589  10.505  68.418  1.00  0.00    -0.128 C  
ENDROOT
BRANCH  10  15
HETATM   15  C   UNL     1     -10.665   9.596  70.613  1.00  0.00    -0.322 C  
HETATM   16  C   UNL     1      -9.930   8.525  69.758  1.00  0.00    -0.191 C  
HETATM   17  N   UNL     1     -10.109   7.145  70.288  1.00  0.00    -0.187 NA 
HETATM   18  C   UNL     1      -9.575   7.074  71.662  1.00  0.00    -0.156 C  
HETATM   19  C   UNL     1     -10.232   8.117  72.584  1.00  0.00    -0.388 C  
HETATM   20  C   UNL     1     -11.343   8.867  71.811  1.00  0.00    -0.431 C  
HETATM   21  C   UNL     1     -12.300   7.767  71.316  1.00  0.00    -0.314 C  
HETATM   22  C   UNL     1     -11.558   6.843  70.334  1.00  0.00    -0.335 C  
ENDBRANCH  10  15
TORSDOF 1
ENDMDL
MODEL       21
REMARK 921   NORMALIZED FREE ENERGY PREDICTED BY IDOCK:   -6.35 KCAL/MOL
REMARK 922        TOTAL FREE ENERGY PREDICTED BY IDOCK:   -7.01 KCAL/MOL
REMARK 923 INTER-LIGAND FREE ENERGY PREDICTED BY IDOCK:   -6.63 KCAL/MOL
REMARK 924 INTRA-LIGAND FREE ENERGY PREDICTED BY IDOCK:   -0.38 KCAL/MOL
REMARK 927      BINDING AFFINITY PREDICTED BY RF-SCORE:    0.00 PKD
ROOT
HETATM    1  C   UNL     1      -9.293  13.929  67.559  1.00  0.00    -0.217 C  
HETATM    2  C   UNL     1      -8.053  13.022  67.476  1.00  0.00    -0.179 C  
HETATM    3  C   UNL     1      -8.369  11.537  67.209  1.00  0.00    -0.154 C  
HETATM    4  C   UNL     1      -9.860  11.208  67.111  1.00  0.00    -0.212 C  
HETATM    5  C   UNL     1     -10.623  11.911  68.201  1.00  0.00    -0.233 A  
HETATM    6  C   UNL     1     -10.328  13.267  68.435  1.00  0.00    -0.254 A  
HETATM    7  C   UNL     1     -11.044  13.980  69.405  1.00  0.00    -0.246 A  
HETATM    8  C   UNL     1     -12.039  13.334  70.150  1.00  0.00    -0.403 A  
HETATM    9  C   UNL     1     -10.881  15.455  69.537  1.00  0.00    -0.267 C  
HETATM   10  N   UNL     1     -10.103  16.057  68.554  1.00  0.00    -0.228 N  
HETATM   11  C   UNL     1     -12.339  11.992  69.906  1.00  0.00    -0.143 A  
HETATM   12  O   UNL     1     -11.522  16.059  70.387  1.00  0.00    -0.349 OA 
HETATM   13  C   UNL     1     -11.638  11.284  68.929  1.00  0.00    -0.386 A  
HETATM   14  C   UNL     1      -8.932  15.317  68.095  1.00  0.00    -0.173 C  
ENDROOT
BRANCH  10  15
HETATM   15  C   UNL     1     -10.565  17.255  67.817  1.00  0.00    -0.367 C  
HETATM   16  C   UNL     1     -10.238  17.285  66.297  1.00  0.00    -0.342 C  
HETATM   17  N   UNL     1      -9.521  18.524  65.887  1.00  0.00    -0.452 NA 
HETATM   18  C   UNL     1     -10.359  19.699  66.195  1.00  0.00    -0.530 C  
HETATM   19  C   UNL     1     -10.752  19.746  67.683  1.00  0.00    -0.460 C  
HETATM   20  C   UNL     1     -10.058  18.590  68.440  1.00  0.00    -0.423 C  
HETATM   21  C   UNL     1      -8.552  18.783  68.176  1.00  0.00    -0.338 C  
HETATM   22  C   UNL     1      -8.269  18.625  66.673  1.00  0.00    -0.278 C  
ENDBRANCH  10  15
TORSDOF 1
ENDMDL
MODEL       22
REMARK 921   NORMALIZED FREE ENERGY PREDICTED BY IDOCK:   -6.32 KCAL/MOL
REMARK 922        TOTAL FREE ENERGY PREDICTED BY IDOCK:   -6.99 KCAL/MOL
REMARK 923 INTER-LIGAND FREE ENERGY PREDICTED BY IDOCK:   -6.73 KCAL/MOL
REMARK 924 INTRA-LIGAND FREE ENERGY PREDICTED BY IDOCK:   -0.26 KCAL/MOL
REMARK 927      BINDING AFFINITY PREDICTED BY RF-SCORE:    0.00 PKD
ROOT
HETATM    1  C   UNL     1     -10.266  17.976  67.320  1.00  0.00    -0.371 C  
HETATM    2  C   UNL     1     -10.425  19.359  67.974  1.00  0.00    -0.512 C  
HETATM    3  C   UNL     1      -9.637  20.486  67.278  1.00  0.00    -0.580 C  
HETATM    4  C   UNL     1      -8.798  20.034  66.081  1.00  0.00    -0.320 C  
HETATM    5  C   UNL     1      -8.074  18.755  66.404  1.00  0.00    -0.296 A  
HETATM    6  C   UNL     1      -8.804  17.732  67.036  1.00  0.00    -0.260 A  
HETATM    7  C   UNL     1      -8.190  16.505  67.314  1.00  0.00    -0.196 A  
HETATM    8  C   UNL     1      -6.845  16.307  66.975  1.00  0.00    -0.235 A  
HETATM    9  C   UNL     1      -8.991  15.349  67.808  1.00  0.00    -0.173 C  
HETATM   10  N   UNL     1     -10.368  15.545  67.823  1.00  0.00    -0.258 N  
HETATM   11  C   UNL     1      -6.126  17.318  66.334  1.00  0.00    -0.241 A  
HETATM   12  O   UNL     1      -8.436  14.283  68.037  1.00  0.00    -0.147 OA 
HETATM   13  C   UNL     1      -6.741  18.537  66.042  1.00  0.00    -0.293 A  
HETATM   14  C   UNL     1     -10.841  16.870  68.209  1.00  0.00    -0.357 C  
ENDROOT
BRANCH  10  15
HETATM   15  C   UNL     1     -11.304  14.561  67.233  1.00  0.00    -0.350 C  
HETATM   16  C   UNL     1     -10.791  13.094  67.163  1.00  0.00    -0.257 C  
HETATM   17  N   UNL     1     -10.878  12.520  65.791  1.00  0.00    -0.270 NA 
HETATM   18  C   UNL     1     -12.284  12.533  65.343  1.00  0.00    -0.412 C  
HETATM   19  C   UNL     1     -12.889  13.947  65.396  1.00  0.00    -0.466 C  
HETATM   20  C   UNL     1     -11.797  14.962  65.811  1.00  0.00    -0.118 C  
HETATM   21  C   UNL     1     -10.674  14.792  64.770  1.00  0.00    -0.380 C  
HETATM   22  C   UNL     1     -10.088  13.374  64.873  1.00  0.00    -0.233 C  
ENDBRANCH  10  15
TORSDOF 1
ENDMDL
MODEL       23
REMARK 921   NORMALIZED FREE ENERGY PREDICTED BY IDOCK:   -6.25 KCAL/MOL
REMARK 922        TOTAL FREE ENERGY PREDICTED BY IDOCK:   -6.91 KCAL/MOL
REMARK 923 INTER-LIGAND FREE ENERGY PREDICTED BY IDOCK:   -6.80 KCAL/MOL
REMARK 924 INTRA-LIGAND FREE ENERGY PREDICTED BY IDOCK:   -0.11 KCAL/MOL
REMARK 927      BINDING AFFINITY PREDICTED BY RF-SCORE:    0.00 PKD
ROOT
HETATM    1  C   UNL     1     -10.845  14.927  68.851  1.00  0.00    -0.253 C  
HETATM    2  C   UNL     1     -11.934  14.103  69.559  1.00  0.00    -0.389 C  
HETATM    3  C   UNL     1     -11.856  12.587  69.294  1.00  0.00    -0.360 C  
HETATM    4  C   UNL     1     -10.737  12.161  68.342  1.00  0.00    -0.252 C  
HETATM    5  C   UNL     1     -10.672  13.092  67.161  1.00  0.00    -0.266 A  
HETATM    6  C   UNL     1     -10.741  14.474  67.415  1.00  0.00    -0.282 A  
HETATM    7  C   UNL     1     -10.636  15.385  66.357  1.00  0.00    -0.307 A  
HETATM    8  C   UNL     1     -10.480  14.914  65.047  1.00  0.00    -0.429 A  
HETATM    9  C   UNL     1     -10.516  16.846  66.622  1.00  0.00    -0.257 C  
HETATM   10  N   UNL     1     -10.372  17.197  67.959  1.00  0.00    -0.336 N  
HETATM   11  C   UNL     1     -10.397  13.542  64.799  1.00  0.00    -0.405 A  
HETATM   12  O   UNL     1     -10.418  17.624  65.682  1.00  0.00    -0.606 OA 
HETATM   13  C   UNL     1     -10.486  12.633  65.854  1.00  0.00    -0.295 A  
HETATM   14  C   UNL     1     -11.142  16.427  68.930  1.00  0.00    -0.328 C  
ENDROOT
BRANCH  10  15
HETATM   15  C   UNL     1      -9.306  18.119  68.414  1.00  0.00    -0.309 C  
HETATM   16  C   UNL     1      -9.080  19.382  67.535  1.00  0.00    -0.302 C  
HETATM   17  N   UNL     1      -7.663  19.536  67.105  1.00  0.00    -0.249 NA 
HETATM   18  C   UNL     1      -6.798  19.649  68.295  1.00  0.00    -0.289 C  
HETATM   19  C   UNL     1      -6.968  18.448  69.241  1.00  0.00    -0.185 C  
HETATM   20  C   UNL     1      -7.929  17.416  68.603  1.00  0.00    -0.271 C  
HETATM   21  C   UNL     1      -7.298  17.067  67.243  1.00  0.00    -0.190 C  
HETATM   22  C   UNL     1      -7.265  18.322  66.353  1.00  0.00    -0.244 C  
ENDBRANCH  10  15
TORSDOF 1
ENDMDL
MODEL       24
REMARK 921   NORMALIZED FREE ENERGY PREDICTED BY IDOCK:   -6.24 KCAL/MOL
REMARK 922        TOTAL FREE ENERGY PREDICTED BY IDOCK:   -6.90 KCAL/MOL
REMARK 923 INTER-LIGAND FREE ENERGY PREDICTED BY IDOCK:   -6.51 KCAL/MOL
REMARK 924 INTRA-LIGAND FREE ENERGY PREDICTED BY IDOCK:   -0.38 KCAL/MOL
REMARK 927      BINDING AFFINITY PREDICTED BY RF-SCORE:    0.00 PKD
ROOT
HETATM    1  C   UNL     1     -10.844  14.750  65.648  1.00  0.00    -0.344 C  
HETATM    2  C   UNL     1     -11.366  14.439  64.235  1.00  0.00    -0.167 C  
HETATM    3  C   UNL     1     -12.102  13.090  64.111  1.00  0.00    -0.497 C  
HETATM    4  C   UNL     1     -12.154  12.270  65.402  1.00  0.00    -0.343 C  
HETATM    5  C   UNL     1     -10.814  12.288  66.087  1.00  0.00    -0.314 A  
HETATM    6  C   UNL     1     -10.153  13.526  66.197  1.00  0.00    -0.307 A  
HETATM    7  C   UNL     1      -8.927  13.605  66.868  1.00  0.00    -0.229 A  
HETATM    8  C   UNL     1      -8.356  12.448  67.413  1.00  0.00    -0.180 A  
HETATM    9  C   UNL     1      -8.306  14.928  67.159  1.00  0.00    -0.221 C  
HETATM   10  N   UNL     1      -9.092  16.034  66.852  1.00  0.00    -0.215 N  
HETATM   11  C   UNL     1      -9.020  11.224  67.316  1.00  0.00    -0.149 A  
HETATM   12  O   UNL     1      -7.237  14.975  67.754  1.00  0.00    -0.133 OA 
HETATM   13  C   UNL     1     -10.250  11.145  66.661  1.00  0.00    -0.274 A  
HETATM   14  C   UNL     1      -9.898  15.953  65.639  1.00  0.00    -0.302 C  
ENDROOT
BRANCH  10  15
HETATM   15  C   UNL     1      -9.312  17.129  67.824  1.00  0.00    -0.245 C  
HETATM   16  C   UNL     1     -10.749  17.722  67.864  1.00  0.00    -0.319 C  
HETATM   17  N   UNL     1     -10.765  19.201  67.691  1.00  0.00    -0.445 NA 
HETATM   18  C   UNL     1      -9.984  19.830  68.773  1.00  0.00    -0.412 C  
HETATM   19  C   UNL     1      -8.544  19.289  68.827  1.00  0.00    -0.375 C  
HETATM   20  C   UNL     1      -8.313  18.312  67.650  1.00  0.00    -0.252 C  
HETATM   21  C   UNL     1      -8.638  19.124  66.382  1.00  0.00    -0.335 C  
HETATM   22  C   UNL     1     -10.121  19.531  66.398  1.00  0.00    -0.455 C  
ENDBRANCH  10  15
TORSDOF 1
ENDMDL
MODEL       25
REMARK 921   NORMALIZED FREE ENERGY PREDICTED BY IDOCK:   -6.22 KCAL/MOL
REMARK 922        TOTAL FREE ENERGY PREDICTED BY IDOCK:   -6.88 KCAL/MOL
REMARK 923 INTER-LIGAND FREE ENERGY PREDICTED BY IDOCK:   -6.99 KCAL/MOL
REMARK 924 INTRA-LIGAND FREE ENERGY PREDICTED BY IDOCK:    0.11 KCAL/MOL
REMARK 927      BINDING AFFINITY PREDICTED BY RF-SCORE:    0.00 PKD
ROOT
HETATM    1  C   UNL     1     -11.112  10.591  69.841  1.00  0.00    -0.371 C  
HETATM    2  C   UNL     1     -10.655   9.540  70.867  1.00  0.00    -0.395 C  
HETATM    3  C   UNL     1     -11.741   9.126  71.880  1.00  0.00    -0.436 C  
HETATM    4  C   UNL     1     -13.075   9.857  71.721  1.00  0.00    -0.553 C  
HETATM    5  C   UNL     1     -12.842  11.326  71.490  1.00  0.00    -0.519 A  
HETATM    6  C   UNL     1     -11.850  11.692  70.561  1.00  0.00    -0.328 A  
HETATM    7  C   UNL     1     -11.628  13.044  70.274  1.00  0.00    -0.060 A  
HETATM    8  C   UNL     1     -12.383  14.027  70.926  1.00  0.00    -0.443 A  
HETATM    9  C   UNL     1     -10.720  13.444  69.162  1.00  0.00    -0.060 C  
HETATM   10  N   UNL     1     -10.253  12.400  68.372  1.00  0.00    -0.225 N  
HETATM   11  C   UNL     1     -13.377  13.661  71.836  1.00  0.00    -0.510 A  
HETATM   12  O   UNL     1     -10.546  14.632  68.923  1.00  0.00    -0.240 OA 
HETATM   13  C   UNL     1     -13.612  12.313  72.112  1.00  0.00    -0.348 A  
HETATM   14  C   UNL     1      -9.925  11.153  69.054  1.00  0.00    -0.137 C  
ENDROOT
BRANCH  10  15
HETATM   15  C   UNL     1     -10.326  12.445  66.894  1.00  0.00    -0.224 C  
HETATM   16  C   UNL     1      -9.716  13.709  66.223  1.00  0.00    -0.283 C  
HETATM   17  N   UNL     1     -10.672  14.390  65.306  1.00  0.00    -0.349 NA 
HETATM   18  C   UNL     1     -11.075  13.456  64.236  1.00  0.00    -0.373 C  
HETATM   19  C   UNL     1     -11.675  12.159  64.807  1.00  0.00    -0.390 C  
HETATM   20  C   UNL     1     -11.773  12.266  66.347  1.00  0.00    -0.431 C  
HETATM   21  C   UNL     1     -12.621  13.525  66.609  1.00  0.00    -0.114 C  
HETATM   22  C   UNL     1     -11.880  14.764  66.078  1.00  0.00    -0.200 C  
ENDBRANCH  10  15
TORSDOF 1
ENDMDL
MODEL       26
REMARK 921   NORMALIZED FREE ENERGY PREDICTED BY IDOCK:   -6.21 KCAL/MOL
REMARK 922        TOTAL FREE ENERGY PREDICTED BY IDOCK:   -6.87 KCAL/MOL
REMARK 923 INTER-LIGAND FREE ENERGY PREDICTED BY IDOCK:   -6.67 KCAL/MOL
REMARK 924 INTRA-LIGAND FREE ENERGY PREDICTED BY IDOCK:   -0.19 KCAL/MOL
REMARK 927      BINDING AFFINITY PREDICTED BY RF-SCORE:    0.00 PKD
ROOT
HETATM    1  C   UNL     1     -10.899  15.659  68.925  1.00  0.00    -0.252 C  
HETATM    2  C   UNL     1     -11.967  15.477  70.017  1.00  0.00    -0.385 C  
HETATM    3  C   UNL     1     -12.345  14.009  70.298  1.00  0.00    -0.425 C  
HETATM    4  C   UNL     1     -11.626  12.984  69.418  1.00  0.00    -0.360 C  
HETATM    5  C   UNL     1     -11.602  13.450  67.987  1.00  0.00    -0.369 A  
HETATM    6  C   UNL     1     -11.253  14.791  67.742  1.00  0.00    -0.323 A  
HETATM    7  C   UNL     1     -11.168  15.261  66.427  1.00  0.00    -0.224 A  
HETATM    8  C   UNL     1     -11.447  14.398  65.359  1.00  0.00    -0.344 A  
HETATM    9  C   UNL     1     -10.619  16.617  66.138  1.00  0.00    -0.215 C  
HETATM   10  N   UNL     1     -10.082  17.284  67.233  1.00  0.00    -0.291 N  
HETATM   11  C   UNL     1     -11.779  13.063  65.604  1.00  0.00    -0.418 A  
HETATM   12  O   UNL     1     -10.547  17.005  64.980  1.00  0.00    -0.703 OA 
HETATM   13  C   UNL     1     -11.849  12.588  66.915  1.00  0.00    -0.404 A  
HETATM   14  C   UNL     1     -10.775  17.127  68.507  1.00  0.00    -0.326 C  
ENDROOT
BRANCH  10  15
HETATM   15  C   UNL     1      -8.740  17.908  67.186  1.00  0.00    -0.243 C  
HETATM   16  C   UNL     1      -7.846  17.506  65.979  1.00  0.00    -0.178 C  
HETATM   17  N   UNL     1      -6.510  16.998  66.397  1.00  0.00    -0.214 NA 
HETATM   18  C   UNL     1      -5.803  18.047  67.157  1.00  0.00    -0.134 C  
HETATM   19  C   UNL     1      -6.623  18.527  68.368  1.00  0.00    -0.235 C  
HETATM   20  C   UNL     1      -7.914  17.682  68.487  1.00  0.00    -0.283 C  
HETATM   21  C   UNL     1      -7.432  16.223  68.587  1.00  0.00    -0.185 C  
HETATM   22  C   UNL     1      -6.709  15.830  67.288  1.00  0.00    -0.162 C  
ENDBRANCH  10  15
TORSDOF 1
ENDMDL
MODEL       27
REMARK 921   NORMALIZED FREE ENERGY PREDICTED BY IDOCK:   -6.20 KCAL/MOL
REMARK 922        TOTAL FREE ENERGY PREDICTED BY IDOCK:   -6.86 KCAL/MOL
REMARK 923 INTER-LIGAND FREE ENERGY PREDICTED BY IDOCK:   -6.76 KCAL/MOL
REMARK 924 INTRA-LIGAND FREE ENERGY PREDICTED BY IDOCK:   -0.09 KCAL/MOL
REMARK 927      BINDING AFFINITY PREDICTED BY RF-SCORE:    0.00 PKD
ROOT
HETATM    1  C   UNL     1     -11.479  12.515  68.956  1.00  0.00    -0.355 C  
HETATM    2  C   UNL     1     -11.841  13.466  67.802  1.00  0.00    -0.395 C  
HETATM    3  C   UNL     1     -11.700  14.963  68.143  1.00  0.00    -0.344 C  
HETATM    4  C   UNL     1     -11.265  15.252  69.581  1.00  0.00    -0.289 C  
HETATM    5  C   UNL     1     -12.017  14.371  70.542  1.00  0.00    -0.395 A  
HETATM    6  C   UNL     1     -12.137  13.006  70.222  1.00  0.00    -0.388 A  
HETATM    7  C   UNL     1     -12.784  12.136  71.106  1.00  0.00    -0.351 A  
HETATM    8  C   UNL     1     -13.326  12.631  72.299  1.00  0.00    -0.527 A  
HETATM    9  C   UNL     1     -12.757  10.663  70.878  1.00  0.00    -0.404 C  
HETATM   10  N   UNL     1     -11.938  10.239  69.838  1.00  0.00    -0.194 N  
HETATM   11  C   UNL     1     -13.193  13.983  72.622  1.00  0.00    -0.606 A  
HETATM   12  O   UNL     1     -13.324   9.919  71.668  1.00  0.00    -0.384 OA 
HETATM   13  C   UNL     1     -12.534  14.851  71.750  1.00  0.00    -0.405 A  
HETATM   14  C   UNL     1     -11.900  11.076  68.644  1.00  0.00    -0.247 C  
ENDROOT
BRANCH  10  15
HETATM   15  C   UNL     1     -10.954   9.147  70.014  1.00  0.00    -0.220 C  
HETATM   16  C   UNL     1      -9.942   9.326  71.182  1.00  0.00    -0.286 C  
HETATM   17  N   UNL     1      -8.526   9.198  70.739  1.00  0.00    -0.201 NA 
HETATM   18  C   UNL     1      -8.314   7.859  70.156  1.00  0.00    -0.127 C  
HETATM   19  C   UNL     1      -9.289   7.579  68.998  1.00  0.00    -0.146 C  
HETATM   20  C   UNL     1     -10.140   8.841  68.721  1.00  0.00    -0.213 C  
HETATM   21  C   UNL     1      -9.121   9.960  68.435  1.00  0.00    -0.123 C  
HETATM   22  C   UNL     1      -8.267  10.211  69.690  1.00  0.00    -0.165 C  
ENDBRANCH  10  15
TORSDOF 1
ENDMDL
MODEL       28
REMARK 921   NORMALIZED FREE ENERGY PREDICTED BY IDOCK:   -6.17 KCAL/MOL
REMARK 922        TOTAL FREE ENERGY PREDICTED BY IDOCK:   -6.82 KCAL/MOL
REMARK 923 INTER-LIGAND FREE ENERGY PREDICTED BY IDOCK:   -6.44 KCAL/MOL
REMARK 924 INTRA-LIGAND FREE ENERGY PREDICTED BY IDOCK:   -0.39 KCAL/MOL
REMARK 927      BINDING AFFINITY PREDICTED BY RF-SCORE:    0.00 PKD
ROOT
HETATM    1  C   UNL     1      -9.719  17.703  67.208  1.00  0.00    -0.284 C  
HETATM    2  C   UNL     1     -10.582  18.976  67.249  1.00  0.00    -0.554 C  
HETATM    3  C   UNL     1      -9.826  20.268  66.881  1.00  0.00    -0.597 C  
HETATM    4  C   UNL     1      -8.340  20.074  66.575  1.00  0.00    -0.353 C  
HETATM    5  C   UNL     1      -7.715  19.150  67.585  1.00  0.00    -0.271 A  
HETATM    6  C   UNL     1      -8.412  17.972  67.912  1.00  0.00    -0.253 A  
HETATM    7  C   UNL     1      -7.852  17.055  68.809  1.00  0.00    -0.253 A  
HETATM    8  C   UNL     1      -6.606  17.323  69.391  1.00  0.00    -0.218 A  
HETATM    9  C   UNL     1      -8.481  15.721  69.023  1.00  0.00    -0.242 C  
HETATM   10  N   UNL     1      -9.542  15.422  68.176  1.00  0.00    -0.202 N  
HETATM   11  C   UNL     1      -5.909  18.485  69.054  1.00  0.00    -0.224 A  
HETATM   12  O   UNL     1      -7.970  14.932  69.807  1.00  0.00    -0.103 OA 
HETATM   13  C   UNL     1      -6.459  19.394  68.148  1.00  0.00    -0.260 A  
HETATM   14  C   UNL     1     -10.448  16.516  67.844  1.00  0.00    -0.313 C  
ENDROOT
BRANCH  10  15
HETATM   15  C   UNL     1      -9.615  14.142  67.436  1.00  0.00    -0.229 C  
HETATM   16  C   UNL     1     -10.153  14.229  65.979  1.00  0.00    -0.318 C  
HETATM   17  N   UNL     1     -11.290  13.300  65.731  1.00  0.00    -0.303 NA 
HETATM   18  C   UNL     1     -10.850  11.912  65.971  1.00  0.00    -0.299 C  
HETATM   19  C   UNL     1     -10.280  11.730  67.388  1.00  0.00    -0.220 C  
HETATM   20  C   UNL     1     -10.435  13.049  68.183  1.00  0.00    -0.252 C  
HETATM   21  C   UNL     1     -11.942  13.368  68.142  1.00  0.00    -0.356 C  
HETATM   22  C   UNL     1     -12.375  13.618  66.688  1.00  0.00    -0.331 C  
ENDBRANCH  10  15
TORSDOF 1
ENDMDL
MODEL       29
REMARK 921   NORMALIZED FREE ENERGY PREDICTED BY IDOCK:   -6.13 KCAL/MOL
REMARK 922        TOTAL FREE ENERGY PREDICTED BY IDOCK:   -6.79 KCAL/MOL
REMARK 923 INTER-LIGAND FREE ENERGY PREDICTED BY IDOCK:   -6.73 KCAL/MOL
REMARK 924 INTRA-LIGAND FREE ENERGY PREDICTED BY IDOCK:   -0.06 KCAL/MOL
REMARK 927      BINDING AFFINITY PREDICTED BY RF-SCORE:    0.00 PKD
ROOT
HETATM    1  C   UNL     1     -11.557  12.142  68.026  1.00  0.00    -0.411 C  
HETATM    2  C   UNL     1     -11.454  13.672  68.141  1.00  0.00    -0.348 C  
HETATM    3  C   UNL     1     -12.005  14.439  66.923  1.00  0.00    -0.425 C  
HETATM    4  C   UNL     1     -12.524  13.552  65.790  1.00  0.00    -0.514 C  
HETATM    5  C   UNL     1     -11.573  12.413  65.541  1.00  0.00    -0.432 A  
HETATM    6  C   UNL     1     -11.078  11.718  66.660  1.00  0.00    -0.364 A  
HETATM    7  C   UNL     1     -10.229  10.620  66.480  1.00  0.00    -0.288 A  
HETATM    8  C   UNL     1      -9.861  10.228  65.186  1.00  0.00    -0.389 A  
HETATM    9  C   UNL     1      -9.847   9.758  67.635  1.00  0.00    -0.165 C  
HETATM   10  N   UNL     1     -10.503  10.040  68.828  1.00  0.00    -0.198 N  
HETATM   11  C   UNL     1     -10.365  10.910  64.077  1.00  0.00    -0.417 A  
HETATM   12  O   UNL     1      -9.109   8.798  67.454  1.00  0.00    -0.131 OA 
HETATM   13  C   UNL     1     -11.225  11.996  64.253  1.00  0.00    -0.421 A  
HETATM   14  C   UNL     1     -10.752  11.445  69.127  1.00  0.00    -0.189 C  
ENDROOT
BRANCH  10  15
HETATM   15  C   UNL     1     -11.152   8.979  69.632  1.00  0.00    -0.067 C  
HETATM   16  C   UNL     1     -11.768   9.434  70.985  1.00  0.00    -0.323 C  
HETATM   17  N   UNL     1     -11.273   8.634  72.140  1.00  0.00    -0.364 NA 
HETATM   18  C   UNL     1     -11.620   7.214  71.937  1.00  0.00    -0.278 C  
HETATM   19  C   UNL     1     -11.067   6.676  70.606  1.00  0.00    -0.349 C  
HETATM   20  C   UNL     1     -10.214   7.768  69.918  1.00  0.00    -0.213 C  
HETATM   21  C   UNL     1      -9.132   8.142  70.948  1.00  0.00    -0.169 C  
HETATM   22  C   UNL     1      -9.797   8.751  72.195  1.00  0.00    -0.277 C  
ENDBRANCH  10  15
TORSDOF 1
ENDMDL
MODEL       30
REMARK 921   NORMALIZED FREE ENERGY PREDICTED BY IDOCK:   -6.06 KCAL/MOL
REMARK 922        TOTAL FREE ENERGY PREDICTED BY IDOCK:   -6.71 KCAL/MOL
REMARK 923 INTER-LIGAND FREE ENERGY PREDICTED BY IDOCK:   -6.31 KCAL/MOL
REMARK 924 INTRA-LIGAND FREE ENERGY PREDICTED BY IDOCK:   -0.40 KCAL/MOL
REMARK 927      BINDING AFFINITY PREDICTED BY RF-SCORE:    0.00 PKD
ROOT
HETATM    1  C   UNL     1      -9.696   8.813  70.610  1.00  0.00    -0.239 C  
HETATM    2  C   UNL     1      -8.726   8.747  71.802  1.00  0.00    -0.223 C  
HETATM    3  C   UNL     1      -9.248   7.932  73.001  1.00  0.00    -0.317 C  
HETATM    4  C   UNL     1     -10.656   7.360  72.821  1.00  0.00    -0.345 C  
HETATM    5  C   UNL     1     -11.566   8.393  72.215  1.00  0.00    -0.453 A  
HETATM    6  C   UNL     1     -11.080   9.130  71.118  1.00  0.00    -0.393 A  
HETATM    7  C   UNL     1     -11.904  10.069  70.488  1.00  0.00    -0.387 A  
HETATM    8  C   UNL     1     -13.205  10.283  70.962  1.00  0.00    -0.399 A  
HETATM    9  C   UNL     1     -11.479  10.720  69.216  1.00  0.00    -0.298 C  
HETATM   10  N   UNL     1     -10.308  10.221  68.657  1.00  0.00    -0.174 N  
HETATM   11  C   UNL     1     -13.691   9.541  72.040  1.00  0.00    -0.435 A  
HETATM   12  O   UNL     1     -12.219  11.533  68.678  1.00  0.00    -0.492 OA 
HETATM   13  C   UNL     1     -12.876   8.593  72.661  1.00  0.00    -0.266 A  
HETATM   14  C   UNL     1      -9.241   9.852  69.580  1.00  0.00    -0.227 C  
ENDROOT
BRANCH  10  15
HETATM   15  C   UNL     1     -10.228   9.833  67.230  1.00  0.00    -0.232 C  
HETATM   16  C   UNL     1      -9.141   8.780  66.873  1.00  0.00    -0.139 C  
HETATM   17  N   UNL     1      -8.238   9.234  65.780  1.00  0.00    -0.114 NA 
HETATM   18  C   UNL     1      -9.033   9.497  64.564  1.00  0.00    -0.212 C  
HETATM   19  C   UNL     1     -10.154  10.519  64.825  1.00  0.00    -0.406 C  
HETATM   20  C   UNL     1     -10.046  11.049  66.274  1.00  0.00    -0.282 C  
HETATM   21  C   UNL     1      -8.623  11.628  66.385  1.00  0.00    -0.143 C  
HETATM   22  C   UNL     1      -7.593  10.501  66.198  1.00  0.00    -0.135 C  
ENDBRANCH  10  15
TORSDOF 1
ENDMDL
MODEL       31
REMARK 921   NORMALIZED FREE ENERGY PREDICTED BY IDOCK:   -6.02 KCAL/MOL
REMARK 922        TOTAL FREE ENERGY PREDICTED BY IDOCK:   -6.67 KCAL/MOL
REMARK 923 INTER-LIGAND FREE ENERGY PREDICTED BY IDOCK:   -6.70 KCAL/MOL
REMARK 924 INTRA-LIGAND FREE ENERGY PREDICTED BY IDOCK:    0.03 KCAL/MOL
REMARK 927      BINDING AFFINITY PREDICTED BY RF-SCORE:    0.00 PKD
ROOT
HETATM    1  C   UNL     1     -11.542  11.597  69.789  1.00  0.00    -0.389 C  
HETATM    2  C   UNL     1     -12.575  11.154  70.839  1.00  0.00    -0.483 C  
HETATM    3  C   UNL     1     -12.192   9.873  71.606  1.00  0.00    -0.482 C  
HETATM    4  C   UNL     1     -10.871   9.236  71.167  1.00  0.00    -0.407 C  
HETATM    5  C   UNL     1     -10.772   9.222  69.665  1.00  0.00    -0.244 A  
HETATM    6  C   UNL     1     -11.122  10.398  68.976  1.00  0.00    -0.297 A  
HETATM    7  C   UNL     1     -11.000  10.453  67.583  1.00  0.00    -0.374 A  
HETATM    8  C   UNL     1     -10.546   9.330  66.879  1.00  0.00    -0.239 A  
HETATM    9  C   UNL     1     -11.183  11.740  66.855  1.00  0.00    -0.327 C  
HETATM   10  N   UNL     1     -11.328  12.863  67.662  1.00  0.00    -0.285 N  
HETATM   11  C   UNL     1     -10.186   8.169  67.566  1.00  0.00    -0.309 A  
HETATM   12  O   UNL     1     -11.065  11.767  65.637  1.00  0.00    -0.305 OA 
HETATM   13  C   UNL     1     -10.291   8.117  68.957  1.00  0.00    -0.229 A  
HETATM   14  C   UNL     1     -12.105  12.699  68.886  1.00  0.00    -0.123 C  
ENDROOT
BRANCH  10  15
HETATM   15  C   UNL     1     -10.531  14.091  67.443  1.00  0.00    -0.263 C  
HETATM   16  C   UNL     1      -9.239  14.223  68.298  1.00  0.00    -0.197 C  
HETATM   17  N   UNL     1      -9.179  15.505  69.055  1.00  0.00    -0.220 NA 
HETATM   18  C   UNL     1      -9.215  16.636  68.107  1.00  0.00    -0.220 C  
HETATM   19  C   UNL     1     -10.456  16.580  67.198  1.00  0.00    -0.300 C  
HETATM   20  C   UNL     1     -11.359  15.398  67.625  1.00  0.00    -0.292 C  
HETATM   21  C   UNL     1     -11.674  15.649  69.111  1.00  0.00    -0.402 C  
HETATM   22  C   UNL     1     -10.372  15.591  69.930  1.00  0.00    -0.312 C  
ENDBRANCH  10  15
TORSDOF 1
ENDMDL
MODEL       32
REMARK 921   NORMALIZED FREE ENERGY PREDICTED BY IDOCK:   -6.00 KCAL/MOL
REMARK 922        TOTAL FREE ENERGY PREDICTED BY IDOCK:   -6.65 KCAL/MOL
REMARK 923 INTER-LIGAND FREE ENERGY PREDICTED BY IDOCK:   -6.31 KCAL/MOL
REMARK 924 INTRA-LIGAND FREE ENERGY PREDICTED BY IDOCK:   -0.34 KCAL/MOL
REMARK 927      BINDING AFFINITY PREDICTED BY RF-SCORE:    0.00 PKD
ROOT
HETATM    1  C   UNL     1     -11.108  10.480  69.717  1.00  0.00    -0.354 C  
HETATM    2  C   UNL     1     -12.168  10.165  70.786  1.00  0.00    -0.434 C  
HETATM    3  C   UNL     1     -11.688   9.207  71.894  1.00  0.00    -0.436 C  
HETATM    4  C   UNL     1     -10.255   8.699  71.723  1.00  0.00    -0.378 C  
HETATM    5  C   UNL     1     -10.006   8.310  70.290  1.00  0.00    -0.188 A  
HETATM    6  C   UNL     1     -10.446   9.194  69.287  1.00  0.00    -0.231 A  
HETATM    7  C   UNL     1     -10.196   8.903  67.941  1.00  0.00    -0.274 A  
HETATM    8  C   UNL     1      -9.522   7.724  67.598  1.00  0.00    -0.168 A  
HETATM    9  C   UNL     1     -10.482   9.910  66.881  1.00  0.00    -0.215 C  
HETATM   10  N   UNL     1     -10.863  11.166  67.342  1.00  0.00    -0.249 N  
HETATM   11  C   UNL     1      -9.074   6.855  68.595  1.00  0.00    -0.131 A  
HETATM   12  O   UNL     1     -10.249   9.638  65.710  1.00  0.00    -0.261 OA 
HETATM   13  C   UNL     1      -9.309   7.151  69.939  1.00  0.00    -0.150 A  
HETATM   14  C   UNL     1     -11.726  11.203  68.516  1.00  0.00    -0.298 C  
ENDROOT
BRANCH  10  15
HETATM   15  C   UNL     1     -10.226  12.406  66.843  1.00  0.00    -0.225 C  
HETATM   16  C   UNL     1      -9.867  13.466  67.923  1.00  0.00    -0.237 C  
HETATM   17  N   UNL     1     -10.435  14.810  67.620  1.00  0.00    -0.252 NA 
HETATM   18  C   UNL     1      -9.910  15.284  66.325  1.00  0.00    -0.294 C  
HETATM   19  C   UNL     1     -10.201  14.285  65.191  1.00  0.00    -0.414 C  
HETATM   20  C   UNL     1     -11.058  13.118  65.734  1.00  0.00    -0.293 C  
HETATM   21  C   UNL     1     -12.313  13.783  66.329  1.00  0.00    -0.479 C  
HETATM   22  C   UNL     1     -11.907  14.684  67.509  1.00  0.00    -0.347 C  
ENDBRANCH  10  15
TORSDOF 1
ENDMDL
MODEL       33
REMARK 921   NORMALIZED FREE ENERGY PREDICTED BY IDOCK:   -5.89 KCAL/MOL
REMARK 922        TOTAL FREE ENERGY PREDICTED BY IDOCK:   -6.53 KCAL/MOL
REMARK 923 INTER-LIGAND FREE ENERGY PREDICTED BY IDOCK:   -6.32 KCAL/MOL
REMARK 924 INTRA-LIGAND FREE ENERGY PREDICTED BY IDOCK:   -0.21 KCAL/MOL
REMARK 927      BINDING AFFINITY PREDICTED BY RF-SCORE:    0.00 PKD
ROOT
HETATM    1  C   UNL     1     -11.176  11.672  68.526  1.00  0.00    -0.312 C  
HETATM    2  C   UNL     1     -11.683  12.120  67.144  1.00  0.00    -0.372 C  
HETATM    3  C   UNL     1     -11.875  13.642  67.001  1.00  0.00    -0.448 C  
HETATM    4  C   UNL     1     -11.569  14.448  68.265  1.00  0.00    -0.359 C  
HETATM    5  C   UNL     1     -12.157  13.768  69.472  1.00  0.00    -0.386 A  
HETATM    6  C   UNL     1     -11.973  12.378  69.595  1.00  0.00    -0.341 A  
HETATM    7  C   UNL     1     -12.458  11.707  70.723  1.00  0.00    -0.425 A  
HETATM    8  C   UNL     1     -13.140  12.420  71.718  1.00  0.00    -0.446 A  
HETATM    9  C   UNL     1     -12.112  10.277  70.963  1.00  0.00    -0.386 C  
HETATM   10  N   UNL     1     -11.180   9.737  70.083  1.00  0.00    -0.260 N  
HETATM   11  C   UNL     1     -13.308  13.801  71.602  1.00  0.00    -0.430 A  
HETATM   12  O   UNL     1     -12.541   9.711  71.960  1.00  0.00    -0.379 OA 
HETATM   13  C   UNL     1     -12.812  14.476  70.485  1.00  0.00    -0.361 A  
HETATM   14  C   UNL     1     -11.272  10.152  68.688  1.00  0.00    -0.168 C  
ENDROOT
BRANCH  10  15
HETATM   15  C   UNL     1      -9.996   8.988  70.563  1.00  0.00    -0.215 C  
HETATM   16  C   UNL     1      -8.618   9.501  70.057  1.00  0.00    -0.215 C  
HETATM   17  N   UNL     1      -7.806   8.429  69.416  1.00  0.00    -0.101 NA 
HETATM   18  C   UNL     1      -7.560   7.351  70.393  1.00  0.00    -0.091 C  
HETATM   19  C   UNL     1      -8.872   6.790  70.968  1.00  0.00    -0.141 C  
HETATM   20  C   UNL     1     -10.076   7.461  70.265  1.00  0.00    -0.197 C  
HETATM   21  C   UNL     1      -9.872   7.182  68.764  1.00  0.00    -0.158 C  
HETATM   22  C   UNL     1      -8.580   7.866  68.285  1.00  0.00    -0.124 C  
ENDBRANCH  10  15
TORSDOF 1
ENDMDL
MODEL       34
REMARK 921   NORMALIZED FREE ENERGY PREDICTED BY IDOCK:   -5.88 KCAL/MOL
REMARK 922        TOTAL FREE ENERGY PREDICTED BY IDOCK:   -6.52 KCAL/MOL
REMARK 923 INTER-LIGAND FREE ENERGY PREDICTED BY IDOCK:   -6.27 KCAL/MOL
REMARK 924 INTRA-LIGAND FREE ENERGY PREDICTED BY IDOCK:   -0.24 KCAL/MOL
REMARK 927      BINDING AFFINITY PREDICTED BY RF-SCORE:    0.00 PKD
ROOT
HETATM    1  C   UNL     1     -10.518  13.799  65.833  1.00  0.00    -0.300 C  
HETATM    2  C   UNL     1     -10.905  14.829  64.758  1.00  0.00    -0.395 C  
HETATM    3  C   UNL     1     -10.645  16.294  65.158  1.00  0.00    -0.327 C  
HETATM    4  C   UNL     1     -10.084  16.482  66.569  1.00  0.00    -0.307 C  
HETATM    5  C   UNL     1     -10.816  15.599  67.543  1.00  0.00    -0.316 A  
HETATM    6  C   UNL     1     -11.046  14.262  67.169  1.00  0.00    -0.318 A  
HETATM    7  C   UNL     1     -11.679  13.387  68.059  1.00  0.00    -0.391 A  
HETATM    8  C   UNL     1     -12.097  13.851  69.313  1.00  0.00    -0.383 A  
HETATM    9  C   UNL     1     -11.762  11.929  67.760  1.00  0.00    -0.292 C  
HETATM   10  N   UNL     1     -11.053  11.511  66.640  1.00  0.00    -0.302 N  
HETATM   11  C   UNL     1     -11.854  15.174  69.689  1.00  0.00    -0.362 A  
HETATM   12  O   UNL     1     -12.314  11.180  68.556  1.00  0.00    -0.561 OA 
HETATM   13  C   UNL     1     -11.209  16.045  68.809  1.00  0.00    -0.360 A  
HETATM   14  C   UNL     1     -11.052  12.406  65.488  1.00  0.00    -0.300 C  
ENDROOT
BRANCH  10  15
HETATM   15  C   UNL     1     -10.129  10.355  66.687  1.00  0.00    -0.224 C  
HETATM   16  C   UNL     1     -10.519   9.214  67.669  1.00  0.00    -0.261 C  
HETATM   17  N   UNL     1      -9.421   8.870  68.615  1.00  0.00    -0.150 NA 
HETATM   18  C   UNL     1      -8.238   8.428  67.851  1.00  0.00    -0.127 C  
HETATM   19  C   UNL     1      -7.786   9.489  66.832  1.00  0.00    -0.098 C  
HETATM   20  C   UNL     1      -8.655  10.760  66.987  1.00  0.00    -0.130 C  
HETATM   21  C   UNL     1      -8.490  11.184  68.458  1.00  0.00    -0.156 C  
HETATM   22  C   UNL     1      -9.057  10.088  69.376  1.00  0.00    -0.215 C  
ENDBRANCH  10  15
TORSDOF 1
ENDMDL
MODEL       35
REMARK 921   NORMALIZED FREE ENERGY PREDICTED BY IDOCK:   -5.87 KCAL/MOL
REMARK 922        TOTAL FREE ENERGY PREDICTED BY IDOCK:   -6.51 KCAL/MOL
REMARK 923 INTER-LIGAND FREE ENERGY PREDICTED BY IDOCK:   -6.13 KCAL/MOL
REMARK 924 INTRA-LIGAND FREE ENERGY PREDICTED BY IDOCK:   -0.37 KCAL/MOL
REMARK 927      BINDING AFFINITY PREDICTED BY RF-SCORE:    0.00 PKD
ROOT
HETATM    1  C   UNL     1     -11.046  12.135  67.778  1.00  0.00    -0.302 C  
HETATM    2  C   UNL     1     -10.879  13.630  68.102  1.00  0.00    -0.262 C  
HETATM    3  C   UNL     1     -11.693  14.572  67.193  1.00  0.00    -0.420 C  
HETATM    4  C   UNL     1     -12.497  13.867  66.098  1.00  0.00    -0.478 C  
HETATM    5  C   UNL     1     -11.665  12.796  65.447  1.00  0.00    -0.425 A  
HETATM    6  C   UNL     1     -10.928  11.939  66.286  1.00  0.00    -0.345 A  
HETATM    7  C   UNL     1     -10.176  10.896  65.733  1.00  0.00    -0.318 A  
HETATM    8  C   UNL     1     -10.148  10.719  64.344  1.00  0.00    -0.419 A  
HETATM    9  C   UNL     1      -9.545   9.868  66.609  1.00  0.00    -0.184 C  
HETATM   10  N   UNL     1      -9.880   9.949  67.956  1.00  0.00    -0.144 N  
HETATM   11  C   UNL     1     -10.892  11.560  63.514  1.00  0.00    -0.473 A  
HETATM   12  O   UNL     1      -8.898   8.960  66.104  1.00  0.00    -0.142 OA 
HETATM   13  C   UNL     1     -11.654  12.592  64.064  1.00  0.00    -0.486 A  
HETATM   14  C   UNL     1     -10.013  11.286  68.523  1.00  0.00    -0.202 C  
ENDROOT
BRANCH  10  15
HETATM   15  C   UNL     1     -10.338   8.765  68.719  1.00  0.00    -0.213 C  
HETATM   16  C   UNL     1     -11.150   9.063  70.011  1.00  0.00    -0.182 C  
HETATM   17  N   UNL     1     -10.585   8.389  71.213  1.00  0.00    -0.213 NA 
HETATM   18  C   UNL     1     -10.586   6.929  71.002  1.00  0.00    -0.220 C  
HETATM   19  C   UNL     1      -9.818   6.535  69.727  1.00  0.00    -0.182 C  
HETATM   20  C   UNL     1      -9.179   7.795  69.097  1.00  0.00    -0.144 C  
HETATM   21  C   UNL     1      -8.297   8.397  70.207  1.00  0.00    -0.124 C  
HETATM   22  C   UNL     1      -9.183   8.835  71.386  1.00  0.00    -0.255 C  
ENDBRANCH  10  15
TORSDOF 1
ENDMDL
MODEL       36
REMARK 921   NORMALIZED FREE ENERGY PREDICTED BY IDOCK:   -5.80 KCAL/MOL
REMARK 922        TOTAL FREE ENERGY PREDICTED BY IDOCK:   -6.44 KCAL/MOL
REMARK 923 INTER-LIGAND FREE ENERGY PREDICTED BY IDOCK:   -6.15 KCAL/MOL
REMARK 924 INTRA-LIGAND FREE ENERGY PREDICTED BY IDOCK:   -0.29 KCAL/MOL
REMARK 927      BINDING AFFINITY PREDICTED BY RF-SCORE:    0.00 PKD
ROOT
HETATM    1  C   UNL     1     -10.507   9.134  67.286  1.00  0.00    -0.335 C  
HETATM    2  C   UNL     1     -10.602   7.663  66.843  1.00  0.00    -0.359 C  
HETATM    3  C   UNL     1     -10.711   6.656  68.004  1.00  0.00    -0.330 C  
HETATM    4  C   UNL     1     -10.666   7.282  69.400  1.00  0.00    -0.236 C  
HETATM    5  C   UNL     1      -9.588   8.330  69.468  1.00  0.00    -0.171 A  
HETATM    6  C   UNL     1      -9.500   9.246  68.404  1.00  0.00    -0.145 A  
HETATM    7  C   UNL     1      -8.546  10.270  68.442  1.00  0.00    -0.125 A  
HETATM    8  C   UNL     1      -7.673  10.368  69.533  1.00  0.00    -0.159 A  
HETATM    9  C   UNL     1      -8.559  11.358  67.423  1.00  0.00    -0.142 C  
HETATM   10  N   UNL     1      -9.648  11.348  66.559  1.00  0.00    -0.193 N  
HETATM   11  C   UNL     1      -7.772   9.467  70.595  1.00  0.00    -0.172 A  
HETATM   12  O   UNL     1      -7.721  12.248  67.479  1.00  0.00    -0.137 OA 
HETATM   13  C   UNL     1      -8.733   8.454  70.566  1.00  0.00    -0.152 A  
HETATM   14  C   UNL     1     -10.126  10.044  66.114  1.00  0.00    -0.247 C  
ENDROOT
BRANCH  10  15
HETATM   15  C   UNL     1     -10.452  12.565  66.302  1.00  0.00    -0.246 C  
HETATM   16  C   UNL     1     -11.994  12.395  66.410  1.00  0.00    -0.274 C  
HETATM   17  N   UNL     1     -12.711  12.860  65.190  1.00  0.00    -0.722 NA 
HETATM   18  C   UNL     1     -12.425  14.292  64.971  1.00  0.00    -0.400 C  
HETATM   19  C   UNL     1     -10.914  14.564  64.869  1.00  0.00    -0.421 C  
HETATM   20  C   UNL     1     -10.141  13.225  64.925  1.00  0.00    -0.247 C  
HETATM   21  C   UNL     1     -10.711  12.382  63.769  1.00  0.00    -0.492 C  
HETATM   22  C   UNL     1     -12.201  12.099  64.026  1.00  0.00    -0.446 C  
ENDBRANCH  10  15
TORSDOF 1
ENDMDL
MODEL       37
REMARK 921   NORMALIZED FREE ENERGY PREDICTED BY IDOCK:   -5.80 KCAL/MOL
REMARK 922        TOTAL FREE ENERGY PREDICTED BY IDOCK:   -6.44 KCAL/MOL
REMARK 923 INTER-LIGAND FREE ENERGY PREDICTED BY IDOCK:   -6.02 KCAL/MOL
REMARK 924 INTRA-LIGAND FREE ENERGY PREDICTED BY IDOCK:   -0.42 KCAL/MOL
REMARK 927      BINDING AFFINITY PREDICTED BY RF-SCORE:    0.00 PKD
ROOT
HETATM    1  C   UNL     1     -10.426  14.776  67.931  1.00  0.00    -0.246 C  
HETATM    2  C   UNL     1     -10.739  16.083  67.181  1.00  0.00    -0.283 C  
HETATM    3  C   UNL     1     -10.738  17.342  68.071  1.00  0.00    -0.367 C  
HETATM    4  C   UNL     1     -10.466  17.077  69.553  1.00  0.00    -0.182 C  
HETATM    5  C   UNL     1     -11.246  15.878  70.021  1.00  0.00    -0.354 A  
HETATM    6  C   UNL     1     -11.238  14.733  69.203  1.00  0.00    -0.287 A  
HETATM    7  C   UNL     1     -11.907  13.575  69.615  1.00  0.00    -0.398 A  
HETATM    8  C   UNL     1     -12.596  13.567  70.835  1.00  0.00    -0.414 A  
HETATM    9  C   UNL     1     -11.754  12.300  68.860  1.00  0.00    -0.328 C  
HETATM   10  N   UNL     1     -10.810  12.324  67.840  1.00  0.00    -0.210 N  
HETATM   11  C   UNL     1     -12.590  14.699  71.653  1.00  0.00    -0.403 A  
HETATM   12  O   UNL     1     -12.342  11.297  69.243  1.00  0.00    -0.342 OA 
HETATM   13  C   UNL     1     -11.911  15.850  71.250  1.00  0.00    -0.502 A  
HETATM   14  C   UNL     1     -10.714  13.551  67.058  1.00  0.00    -0.277 C  
ENDROOT
BRANCH  10  15
HETATM   15  C   UNL     1      -9.774  11.274  67.710  1.00  0.00    -0.173 C  
HETATM   16  C   UNL     1      -8.406  11.737  67.133  1.00  0.00    -0.168 C  
HETATM   17  N   UNL     1      -7.971  10.924  65.963  1.00  0.00    -0.155 NA 
HETATM   18  C   UNL     1      -7.838   9.512  66.370  1.00  0.00    -0.097 C  
HETATM   19  C   UNL     1      -9.143   8.966  66.976  1.00  0.00    -0.161 C  
HETATM   20  C   UNL     1     -10.250  10.044  66.881  1.00  0.00    -0.299 C  
HETATM   21  C   UNL     1     -10.343  10.393  65.383  1.00  0.00    -0.270 C  
HETATM   22  C   UNL     1      -9.015  11.011  64.915  1.00  0.00    -0.101 C  
ENDBRANCH  10  15
TORSDOF 1
ENDMDL
MODEL       38
REMARK 921   NORMALIZED FREE ENERGY PREDICTED BY IDOCK:   -5.74 KCAL/MOL
REMARK 922        TOTAL FREE ENERGY PREDICTED BY IDOCK:   -6.37 KCAL/MOL
REMARK 923 INTER-LIGAND FREE ENERGY PREDICTED BY IDOCK:   -5.96 KCAL/MOL
REMARK 924 INTRA-LIGAND FREE ENERGY PREDICTED BY IDOCK:   -0.42 KCAL/MOL
REMARK 927      BINDING AFFINITY PREDICTED BY RF-SCORE:    0.00 PKD
ROOT
HETATM    1  C   UNL     1     -10.526  11.826  67.246  1.00  0.00    -0.242 C  
HETATM    2  C   UNL     1     -10.058  13.054  68.044  1.00  0.00    -0.235 C  
HETATM    3  C   UNL     1     -10.998  14.272  67.947  1.00  0.00    -0.278 C  
HETATM    4  C   UNL     1     -12.215  14.069  67.043  1.00  0.00    -0.387 C  
HETATM    5  C   UNL     1     -11.810  13.381  65.767  1.00  0.00    -0.412 A  
HETATM    6  C   UNL     1     -10.953  12.269  65.868  1.00  0.00    -0.338 A  
HETATM    7  C   UNL     1     -10.586  11.564  64.716  1.00  0.00    -0.362 A  
HETATM    8  C   UNL     1     -11.059  11.980  63.465  1.00  0.00    -0.519 A  
HETATM    9  C   UNL     1      -9.838  10.278  64.818  1.00  0.00    -0.334 C  
HETATM   10  N   UNL     1      -9.678   9.786  66.109  1.00  0.00    -0.226 N  
HETATM   11  C   UNL     1     -11.921  13.075  63.369  1.00  0.00    -0.592 A  
HETATM   12  O   UNL     1      -9.533   9.675  63.798  1.00  0.00    -0.148 OA 
HETATM   13  C   UNL     1     -12.301  13.770  64.518  1.00  0.00    -0.399 A  
HETATM   14  C   UNL     1      -9.426  10.764  67.161  1.00  0.00    -0.160 C  
ENDROOT
BRANCH  10  15
HETATM   15  C   UNL     1     -10.003   8.384  66.456  1.00  0.00    -0.265 C  
HETATM   16  C   UNL     1     -10.535   8.147  67.898  1.00  0.00    -0.197 C  
HETATM   17  N   UNL     1      -9.759   7.111  68.634  1.00  0.00    -0.140 NA 
HETATM   18  C   UNL     1      -9.835   5.830  67.905  1.00  0.00    -0.127 C  
HETATM   19  C   UNL     1      -9.345   5.970  66.452  1.00  0.00    -0.171 C  
HETATM   20  C   UNL     1      -8.815   7.404  66.219  1.00  0.00    -0.182 C  
HETATM   21  C   UNL     1      -7.717   7.604  67.280  1.00  0.00    -0.113 C  
HETATM   22  C   UNL     1      -8.340   7.535  68.685  1.00  0.00    -0.129 C  
ENDBRANCH  10  15
TORSDOF 1
ENDMDL
MODEL       39
REMARK 921   NORMALIZED FREE ENERGY PREDICTED BY IDOCK:   -5.73 KCAL/MOL
REMARK 922        TOTAL FREE ENERGY PREDICTED BY IDOCK:   -6.36 KCAL/MOL
REMARK 923 INTER-LIGAND FREE ENERGY PREDICTED BY IDOCK:   -6.36 KCAL/MOL
REMARK 924 INTRA-LIGAND FREE ENERGY PREDICTED BY IDOCK:    0.00 KCAL/MOL
REMARK 927      BINDING AFFINITY PREDICTED BY RF-SCORE:    0.00 PKD
ROOT
HETATM    1  C   UNL     1     -10.783  13.174  65.985  1.00  0.00    -0.288 C  
HETATM    2  C   UNL     1     -11.302  13.932  64.752  1.00  0.00    -0.365 C  
HETATM    3  C   UNL     1     -11.078  15.456  64.801  1.00  0.00    -0.416 C  
HETATM    4  C   UNL     1     -10.415  15.963  66.084  1.00  0.00    -0.336 C  
HETATM    5  C   UNL     1     -11.025  15.295  67.287  1.00  0.00    -0.327 A  
HETATM    6  C   UNL     1     -11.222  13.903  67.231  1.00  0.00    -0.329 A  
HETATM    7  C   UNL     1     -11.740  13.226  68.342  1.00  0.00    -0.389 A  
HETATM    8  C   UNL     1     -12.076  13.942  69.498  1.00  0.00    -0.393 A  
HETATM    9  C   UNL     1     -11.780  11.737  68.373  1.00  0.00    -0.325 C  
HETATM   10  N   UNL     1     -11.144  11.104  67.310  1.00  0.00    -0.295 N  
HETATM   11  C   UNL     1     -11.866  15.321  69.556  1.00  0.00    -0.368 A  
HETATM   12  O   UNL     1     -12.231  11.165  69.357  1.00  0.00    -0.333 OA 
HETATM   13  C   UNL     1     -11.334  15.996  68.456  1.00  0.00    -0.382 A  
HETATM   14  C   UNL     1     -11.278  11.725  65.997  1.00  0.00    -0.296 C  
ENDROOT
BRANCH  10  15
HETATM   15  C   UNL     1     -10.168  10.011  67.523  1.00  0.00    -0.212 C  
HETATM   16  C   UNL     1      -8.750  10.449  67.986  1.00  0.00    -0.123 C  
HETATM   17  N   UNL     1      -7.669   9.912  67.113  1.00  0.00    -0.092 NA 
HETATM   18  C   UNL     1      -7.717   8.437  67.126  1.00  0.00    -0.097 C  
HETATM   19  C   UNL     1      -9.096   7.906  66.698  1.00  0.00    -0.199 C  
HETATM   20  C   UNL     1     -10.000   9.089  66.279  1.00  0.00    -0.352 C  
HETATM   21  C   UNL     1      -9.225   9.810  65.160  1.00  0.00    -0.297 C  
HETATM   22  C   UNL     1      -7.911  10.375  65.727  1.00  0.00    -0.150 C  
ENDBRANCH  10  15
TORSDOF 1
ENDMDL
MODEL       40
REMARK 921   NORMALIZED FREE ENERGY PREDICTED BY IDOCK:   -5.69 KCAL/MOL
REMARK 922        TOTAL FREE ENERGY PREDICTED BY IDOCK:   -6.32 KCAL/MOL
REMARK 923 INTER-LIGAND FREE ENERGY PREDICTED BY IDOCK:   -5.95 KCAL/MOL
REMARK 924 INTRA-LIGAND FREE ENERGY PREDICTED BY IDOCK:   -0.37 KCAL/MOL
REMARK 927      BINDING AFFINITY PREDICTED BY RF-SCORE:    0.00 PKD
ROOT
HETATM    1  C   UNL     1      -9.977  10.173  66.750  1.00  0.00    -0.266 C  
HETATM    2  C   UNL     1     -10.624   9.098  67.640  1.00  0.00    -0.307 C  
HETATM    3  C   UNL     1      -9.718   7.886  67.932  1.00  0.00    -0.184 C  
HETATM    4  C   UNL     1      -8.346   7.935  67.256  1.00  0.00    -0.122 C  
HETATM    5  C   UNL     1      -8.483   8.392  65.829  1.00  0.00    -0.169 A  
HETATM    6  C   UNL     1      -9.311   9.502  65.574  1.00  0.00    -0.317 A  
HETATM    7  C   UNL     1      -9.433   9.997  64.271  1.00  0.00    -0.336 A  
HETATM    8  C   UNL     1      -8.744   9.374  63.222  1.00  0.00    -0.220 A  
HETATM    9  C   UNL     1     -10.149  11.278  64.009  1.00  0.00    -0.329 C  
HETATM   10  N   UNL     1     -10.536  11.984  65.143  1.00  0.00    -0.278 N  
HETATM   11  C   UNL     1      -7.912   8.283  63.479  1.00  0.00    -0.154 A  
HETATM   12  O   UNL     1     -10.238  11.696  62.863  1.00  0.00    -0.293 OA 
HETATM   13  C   UNL     1      -7.776   7.797  64.780  1.00  0.00    -0.119 A  
HETATM   14  C   UNL     1     -11.011  11.200  66.278  1.00  0.00    -0.163 C  
ENDROOT
BRANCH  10  15
HETATM   15  C   UNL     1     -10.242  13.426  65.303  1.00  0.00    -0.298 C  
HETATM   16  C   UNL     1      -9.788  13.873  66.722  1.00  0.00    -0.274 C  
HETATM   17  N   UNL     1     -10.611  14.990  67.263  1.00  0.00    -0.274 NA 
HETATM   18  C   UNL     1     -10.507  16.156  66.364  1.00  0.00    -0.301 C  
HETATM   19  C   UNL     1     -10.919  15.805  64.923  1.00  0.00    -0.443 C  
HETATM   20  C   UNL     1     -11.424  14.343  64.869  1.00  0.00    -0.386 C  
HETATM   21  C   UNL     1     -12.575  14.278  65.891  1.00  0.00    -0.376 C  
HETATM   22  C   UNL     1     -12.027  14.555  67.301  1.00  0.00    -0.344 C  
ENDBRANCH  10  15
TORSDOF 1
ENDMDL
MODEL       41
REMARK 921   NORMALIZED FREE ENERGY PREDICTED BY IDOCK:   -5.69 KCAL/MOL
REMARK 922        TOTAL FREE ENERGY PREDICTED BY IDOCK:   -6.32 KCAL/MOL
REMARK 923 INTER-LIGAND FREE ENERGY PREDICTED BY IDOCK:   -6.02 KCAL/MOL
REMARK 924 INTRA-LIGAND FREE ENERGY PREDICTED BY IDOCK:   -0.30 KCAL/MOL
REMARK 927      BINDING AFFINITY PREDICTED BY RF-SCORE:    0.00 PKD
ROOT
HETATM    1  C   UNL     1     -10.119   8.360  66.582  1.00  0.00    -0.358 C  
HETATM    2  C   UNL     1      -9.003   7.473  66.005  1.00  0.00    -0.164 C  
HETATM    3  C   UNL     1      -9.227   5.961  66.200  1.00  0.00    -0.164 C  
HETATM    4  C   UNL     1     -10.498   5.597  66.970  1.00  0.00    -0.344 C  
HETATM    5  C   UNL     1     -10.663   6.500  68.163  1.00  0.00    -0.347 A  
HETATM    6  C   UNL     1     -10.459   7.880  67.972  1.00  0.00    -0.245 A  
HETATM    7  C   UNL     1     -10.648   8.767  69.037  1.00  0.00    -0.191 A  
HETATM    8  C   UNL     1     -11.023   8.276  70.295  1.00  0.00    -0.233 A  
HETATM    9  C   UNL     1     -10.623  10.240  68.812  1.00  0.00    -0.209 C  
HETATM   10  N   UNL     1     -10.549  10.636  67.481  1.00  0.00    -0.233 N  
HETATM   11  C   UNL     1     -11.239   6.909  70.478  1.00  0.00    -0.353 A  
HETATM   12  O   UNL     1     -10.797  10.999  69.757  1.00  0.00    -0.231 OA 
HETATM   13  C   UNL     1     -11.067   6.023  69.413  1.00  0.00    -0.445 A  
HETATM   14  C   UNL     1      -9.706   9.834  66.601  1.00  0.00    -0.201 C  
ENDROOT
BRANCH  10  15
HETATM   15  C   UNL     1     -11.469  11.648  66.915  1.00  0.00    -0.247 C  
HETATM   16  C   UNL     1     -11.498  11.747  65.363  1.00  0.00    -0.176 C  
HETATM   17  N   UNL     1     -11.254  13.132  64.872  1.00  0.00    -0.301 NA 
HETATM   18  C   UNL     1     -12.296  14.032  65.404  1.00  0.00    -0.478 C  
HETATM   19  C   UNL     1     -12.358  13.987  66.941  1.00  0.00    -0.321 C  
HETATM   20  C   UNL     1     -11.227  13.079  67.480  1.00  0.00    -0.320 C  
HETATM   21  C   UNL     1      -9.926  13.681  66.916  1.00  0.00    -0.260 C  
HETATM   22  C   UNL     1      -9.940  13.587  65.381  1.00  0.00    -0.199 C  
ENDBRANCH  10  15
TORSDOF 1
ENDMDL
MODEL       42
REMARK 921   NORMALIZED FREE ENERGY PREDICTED BY IDOCK:   -5.64 KCAL/MOL
REMARK 922        TOTAL FREE ENERGY PREDICTED BY IDOCK:   -6.27 KCAL/MOL
REMARK 923 INTER-LIGAND FREE ENERGY PREDICTED BY IDOCK:   -6.01 KCAL/MOL
REMARK 924 INTRA-LIGAND FREE ENERGY PREDICTED BY IDOCK:   -0.26 KCAL/MOL
REMARK 927      BINDING AFFINITY PREDICTED BY RF-SCORE:    0.00 PKD
ROOT
HETATM    1  C   UNL     1      -9.061  17.107  66.416  1.00  0.00    -0.285 C  
HETATM    2  C   UNL     1      -8.671  18.591  66.523  1.00  0.00    -0.296 C  
HETATM    3  C   UNL     1      -7.162  18.864  66.369  1.00  0.00    -0.258 C  
HETATM    4  C   UNL     1      -6.302  17.613  66.177  1.00  0.00    -0.274 C  
HETATM    5  C   UNL     1      -6.735  16.531  67.129  1.00  0.00    -0.232 A  
HETATM    6  C   UNL     1      -8.115  16.288  67.260  1.00  0.00    -0.203 A  
HETATM    7  C   UNL     1      -8.568  15.260  68.095  1.00  0.00    -0.160 A  
HETATM    8  C   UNL     1      -7.644  14.488  68.811  1.00  0.00    -0.131 A  
HETATM    9  C   UNL     1     -10.005  14.865  68.102  1.00  0.00    -0.222 C  
HETATM   10  N   UNL     1     -10.794  15.479  67.136  1.00  0.00    -0.320 N  
HETATM   11  C   UNL     1      -6.275  14.720  68.669  1.00  0.00    -0.086 A  
HETATM   12  O   UNL     1     -10.378  13.958  68.835  1.00  0.00    -0.225 OA 
HETATM   13  C   UNL     1      -5.820  15.734  67.824  1.00  0.00    -0.168 A  
HETATM   14  C   UNL     1     -10.513  16.881  66.849  1.00  0.00    -0.271 C  
ENDROOT
BRANCH  10  15
HETATM   15  C   UNL     1     -11.695  14.703  66.254  1.00  0.00    -0.320 C  
HETATM   16  C   UNL     1     -12.268  13.388  66.857  1.00  0.00    -0.289 C  
HETATM   17  N   UNL     1     -12.016  12.202  65.992  1.00  0.00    -0.585 NA 
HETATM   18  C   UNL     1     -12.648  12.412  64.675  1.00  0.00    -0.375 C  
HETATM   19  C   UNL     1     -12.156  13.707  64.005  1.00  0.00    -0.474 C  
HETATM   20  C   UNL     1     -11.055  14.357  64.877  1.00  0.00    -0.404 C  
HETATM   21  C   UNL     1      -9.972  13.272  65.030  1.00  0.00    -0.168 C  
HETATM   22  C   UNL     1     -10.554  12.069  65.792  1.00  0.00    -0.263 C  
ENDBRANCH  10  15
TORSDOF 1
ENDMDL
MODEL       43
REMARK 921   NORMALIZED FREE ENERGY PREDICTED BY IDOCK:   -5.55 KCAL/MOL
REMARK 922        TOTAL FREE ENERGY PREDICTED BY IDOCK:   -6.18 KCAL/MOL
REMARK 923 INTER-LIGAND FREE ENERGY PREDICTED BY IDOCK:   -5.76 KCAL/MOL
REMARK 924 INTRA-LIGAND FREE ENERGY PREDICTED BY IDOCK:   -0.41 KCAL/MOL
REMARK 927      BINDING AFFINITY PREDICTED BY RF-SCORE:    0.00 PKD
ROOT
HETATM    1  C   UNL     1     -10.467   9.426  69.005  1.00  0.00    -0.233 C  
HETATM    2  C   UNL     1     -10.817   9.893  67.581  1.00  0.00    -0.318 C  
HETATM    3  C   UNL     1     -11.050  11.411  67.450  1.00  0.00    -0.349 C  
HETATM    4  C   UNL     1     -10.935  12.191  68.762  1.00  0.00    -0.274 C  
HETATM    5  C   UNL     1     -11.640  11.457  69.870  1.00  0.00    -0.402 A  
HETATM    6  C   UNL     1     -11.418  10.072  69.982  1.00  0.00    -0.310 A  
HETATM    7  C   UNL     1     -12.012   9.352  71.025  1.00  0.00    -0.389 A  
HETATM    8  C   UNL     1     -12.839  10.011  71.943  1.00  0.00    -0.524 A  
HETATM    9  C   UNL     1     -11.641   7.930  71.273  1.00  0.00    -0.276 C  
HETATM   10  N   UNL     1     -10.587   7.449  70.504  1.00  0.00    -0.220 N  
HETATM   11  C   UNL     1     -13.047  11.388  71.839  1.00  0.00    -0.505 A  
HETATM   12  O   UNL     1     -12.167   7.320  72.195  1.00  0.00    -0.285 OA 
HETATM   13  C   UNL     1     -12.443  12.111  70.809  1.00  0.00    -0.362 A  
HETATM   14  C   UNL     1     -10.522   7.899  69.118  1.00  0.00    -0.209 C  
ENDROOT
BRANCH  10  15
HETATM   15  C   UNL     1      -9.442   6.731  71.110  1.00  0.00    -0.163 C  
HETATM   16  C   UNL     1      -8.096   6.824  70.337  1.00  0.00    -0.116 C  
HETATM   17  N   UNL     1      -7.508   5.487  70.044  1.00  0.00    -0.068 NA 
HETATM   18  C   UNL     1      -7.256   4.775  71.312  1.00  0.00    -0.056 C  
HETATM   19  C   UNL     1      -8.533   4.650  72.161  1.00  0.00    -0.118 C  
HETATM   20  C   UNL     1      -9.736   5.224  71.376  1.00  0.00    -0.219 C  
HETATM   21  C   UNL     1      -9.772   4.429  70.057  1.00  0.00    -0.286 C  
HETATM   22  C   UNL     1      -8.488   4.704  69.256  1.00  0.00    -0.079 C  
ENDBRANCH  10  15
TORSDOF 1
ENDMDL
MODEL       44
REMARK 921   NORMALIZED FREE ENERGY PREDICTED BY IDOCK:   -5.55 KCAL/MOL
REMARK 922        TOTAL FREE ENERGY PREDICTED BY IDOCK:   -6.17 KCAL/MOL
REMARK 923 INTER-LIGAND FREE ENERGY PREDICTED BY IDOCK:   -5.94 KCAL/MOL
REMARK 924 INTRA-LIGAND FREE ENERGY PREDICTED BY IDOCK:   -0.23 KCAL/MOL
REMARK 927      BINDING AFFINITY PREDICTED BY RF-SCORE:    0.00 PKD
ROOT
HETATM    1  C   UNL     1     -10.455   8.716  69.263  1.00  0.00    -0.226 C  
HETATM    2  C   UNL     1     -10.509   9.232  67.815  1.00  0.00    -0.313 C  
HETATM    3  C   UNL     1     -10.502  10.767  67.686  1.00  0.00    -0.252 C  
HETATM    4  C   UNL     1     -10.483  11.520  69.018  1.00  0.00    -0.175 C  
HETATM    5  C   UNL     1     -11.449  10.893  69.986  1.00  0.00    -0.411 A  
HETATM    6  C   UNL     1     -11.445   9.490  70.098  1.00  0.00    -0.205 A  
HETATM    7  C   UNL     1     -12.290   8.861  71.019  1.00  0.00    -0.214 A  
HETATM    8  C   UNL     1     -13.149   9.630  71.815  1.00  0.00    -0.514 A  
HETATM    9  C   UNL     1     -12.167   7.400  71.287  1.00  0.00    -0.341 C  
HETATM   10  N   UNL     1     -11.085   6.774  70.678  1.00  0.00    -0.272 N  
HETATM   11  C   UNL     1     -13.141  11.023  71.713  1.00  0.00    -0.554 A  
HETATM   12  O   UNL     1     -12.911   6.871  72.102  1.00  0.00    -0.180 OA 
HETATM   13  C   UNL     1     -12.288  11.654  70.806  1.00  0.00    -0.454 A  
HETATM   14  C   UNL     1     -10.742   7.213  69.330  1.00  0.00    -0.231 C  
ENDROOT
BRANCH  10  15
HETATM   15  C   UNL     1     -10.162   5.898  71.435  1.00  0.00    -0.211 C  
HETATM   16  C   UNL     1     -10.802   5.068  72.584  1.00  0.00    -0.226 C  
HETATM   17  N   UNL     1     -10.110   5.263  73.888  1.00  0.00    -0.191 NA 
HETATM   18  C   UNL     1      -8.699   4.850  73.761  1.00  0.00    -0.105 C  
HETATM   19  C   UNL     1      -7.982   5.607  72.629  1.00  0.00    -0.102 C  
HETATM   20  C   UNL     1      -8.938   6.662  72.023  1.00  0.00    -0.139 C  
HETATM   21  C   UNL     1      -9.361   7.549  73.210  1.00  0.00    -0.271 C  
HETATM   22  C   UNL     1     -10.146   6.705  74.229  1.00  0.00    -0.351 C  
ENDBRANCH  10  15
TORSDOF 1
ENDMDL
MODEL       45
REMARK 921   NORMALIZED FREE ENERGY PREDICTED BY IDOCK:   -5.54 KCAL/MOL
REMARK 922        TOTAL FREE ENERGY PREDICTED BY IDOCK:   -6.16 KCAL/MOL
REMARK 923 INTER-LIGAND FREE ENERGY PREDICTED BY IDOCK:   -5.78 KCAL/MOL
REMARK 924 INTRA-LIGAND FREE ENERGY PREDICTED BY IDOCK:   -0.37 KCAL/MOL
REMARK 927      BINDING AFFINITY PREDICTED BY RF-SCORE:    0.00 PKD
ROOT
HETATM    1  C   UNL     1      -8.489   9.888  65.331  1.00  0.00    -0.155 C  
HETATM    2  C   UNL     1      -6.965   9.680  65.358  1.00  0.00    -0.095 C  
HETATM    3  C   UNL     1      -6.510   8.259  64.971  1.00  0.00    -0.052 C  
HETATM    4  C   UNL     1      -7.649   7.285  64.665  1.00  0.00    -0.106 C  
HETATM    5  C   UNL     1      -8.746   7.426  65.685  1.00  0.00    -0.099 A  
HETATM    6  C   UNL     1      -9.155   8.728  66.029  1.00  0.00    -0.265 A  
HETATM    7  C   UNL     1     -10.205   8.913  66.936  1.00  0.00    -0.347 A  
HETATM    8  C   UNL     1     -10.832   7.800  67.511  1.00  0.00    -0.182 A  
HETATM    9  C   UNL     1     -10.777  10.269  67.168  1.00  0.00    -0.241 C  
HETATM   10  N   UNL     1     -10.298  11.268  66.327  1.00  0.00    -0.239 N  
HETATM   11  C   UNL     1     -10.435   6.509  67.158  1.00  0.00    -0.354 A  
HETATM   12  O   UNL     1     -11.700  10.408  67.960  1.00  0.00    -0.383 OA 
HETATM   13  C   UNL     1      -9.398   6.322  66.241  1.00  0.00    -0.155 A  
HETATM   14  C   UNL     1      -8.881  11.216  65.983  1.00  0.00    -0.189 C  
ENDROOT
BRANCH  10  15
HETATM   15  C   UNL     1     -11.209  12.184  65.604  1.00  0.00    -0.335 C  
HETATM   16  C   UNL     1     -10.615  12.877  64.345  1.00  0.00    -0.396 C  
HETATM   17  N   UNL     1     -10.755  14.359  64.385  1.00  0.00    -0.191 NA 
HETATM   18  C   UNL     1     -12.186  14.714  64.468  1.00  0.00    -0.456 C  
HETATM   19  C   UNL     1     -12.869  14.054  65.679  1.00  0.00    -0.442 C  
HETATM   20  C   UNL     1     -11.816  13.291  66.516  1.00  0.00    -0.450 C  
HETATM   21  C   UNL     1     -10.754  14.344  66.884  1.00  0.00    -0.292 C  
HETATM   22  C   UNL     1     -10.079  14.863  65.603  1.00  0.00    -0.359 C  
ENDBRANCH  10  15
TORSDOF 1
ENDMDL
MODEL       46
REMARK 921   NORMALIZED FREE ENERGY PREDICTED BY IDOCK:   -5.50 KCAL/MOL
REMARK 922        TOTAL FREE ENERGY PREDICTED BY IDOCK:   -6.12 KCAL/MOL
REMARK 923 INTER-LIGAND FREE ENERGY PREDICTED BY IDOCK:   -6.66 KCAL/MOL
REMARK 924 INTRA-LIGAND FREE ENERGY PREDICTED BY IDOCK:    0.54 KCAL/MOL
REMARK 927      BINDING AFFINITY PREDICTED BY RF-SCORE:    0.00 PKD
ROOT
HETATM    1  C   UNL     1     -11.143  11.934  68.734  1.00  0.00    -0.296 C  
HETATM    2  C   UNL     1     -11.612  12.858  67.597  1.00  0.00    -0.406 C  
HETATM    3  C   UNL     1     -11.844  14.321  68.021  1.00  0.00    -0.379 C  
HETATM    4  C   UNL     1     -11.609  14.601  69.507  1.00  0.00    -0.350 C  
HETATM    5  C   UNL     1     -12.220  13.512  70.347  1.00  0.00    -0.426 A  
HETATM    6  C   UNL     1     -11.999  12.179  69.951  1.00  0.00    -0.380 A  
HETATM    7  C   UNL     1     -12.505  11.128  70.725  1.00  0.00    -0.479 A  
HETATM    8  C   UNL     1     -13.244  11.409  71.882  1.00  0.00    -0.485 A  
HETATM    9  C   UNL     1     -12.125   9.718  70.431  1.00  0.00    -0.106 C  
HETATM   10  N   UNL     1     -11.146   9.558  69.457  1.00  0.00    -0.191 N  
HETATM   11  C   UNL     1     -13.449  12.731  72.281  1.00  0.00    -0.591 A  
HETATM   12  O   UNL     1     -12.573   8.814  71.125  1.00  0.00    -0.272 OA 
HETATM   13  C   UNL     1     -12.933  13.781  71.519  1.00  0.00    -0.444 A  
HETATM   14  C   UNL     1     -11.199  10.463  68.314  1.00  0.00    -0.267 C  
ENDROOT
BRANCH  10  15
HETATM   15  C   UNL     1      -9.958   8.701  69.676  1.00  0.00    -0.191 C  
HETATM   16  C   UNL     1     -10.238   7.179  69.833  1.00  0.00    -0.207 C  
HETATM   17  N   UNL     1      -9.651   6.613  71.079  1.00  0.00    -0.171 NA 
HETATM   18  C   UNL     1      -8.188   6.807  71.064  1.00  0.00    -0.119 C  
HETATM   19  C   UNL     1      -7.810   8.289  70.891  1.00  0.00    -0.091 C  
HETATM   20  C   UNL     1      -9.093   9.154  70.889  1.00  0.00    -0.316 C  
HETATM   21  C   UNL     1      -9.798   8.831  72.220  1.00  0.00    -0.295 C  
HETATM   22  C   UNL     1     -10.208   7.349  72.238  1.00  0.00    -0.200 C  
ENDBRANCH  10  15
TORSDOF 1
ENDMDL
MODEL       47
REMARK 921   NORMALIZED FREE ENERGY PREDICTED BY IDOCK:   -5.49 KCAL/MOL
REMARK 922        TOTAL FREE ENERGY PREDICTED BY IDOCK:   -6.11 KCAL/MOL
REMARK 923 INTER-LIGAND FREE ENERGY PREDICTED BY IDOCK:   -5.69 KCAL/MOL
REMARK 924 INTRA-LIGAND FREE ENERGY PREDICTED BY IDOCK:   -0.42 KCAL/MOL
REMARK 927      BINDING AFFINITY PREDICTED BY RF-SCORE:    0.00 PKD
ROOT
HETATM    1  C   UNL     1      -9.058  12.579  67.404  1.00  0.00    -0.185 C  
HETATM    2  C   UNL     1      -9.483  11.613  68.523  1.00  0.00    -0.175 C  
HETATM    3  C   UNL     1      -9.480  10.126  68.115  1.00  0.00    -0.151 C  
HETATM    4  C   UNL     1      -9.095   9.864  66.658  1.00  0.00    -0.171 C  
HETATM    5  C   UNL     1      -9.783  10.848  65.751  1.00  0.00    -0.270 A  
HETATM    6  C   UNL     1      -9.778  12.203  66.132  1.00  0.00    -0.254 A  
HETATM    7  C   UNL     1     -10.362  13.165  65.299  1.00  0.00    -0.319 A  
HETATM    8  C   UNL     1     -10.964  12.771  64.097  1.00  0.00    -0.435 A  
HETATM    9  C   UNL     1     -10.201  14.618  65.589  1.00  0.00    -0.359 C  
HETATM   10  N   UNL     1      -9.331  14.923  66.629  1.00  0.00    -0.252 N  
HETATM   11  C   UNL     1     -10.956  11.429  63.714  1.00  0.00    -0.448 A  
HETATM   12  O   UNL     1     -10.714  15.442  64.843  1.00  0.00    -0.420 OA 
HETATM   13  C   UNL     1     -10.361  10.470  64.535  1.00  0.00    -0.275 A  
HETATM   14  C   UNL     1      -9.347  14.033  67.785  1.00  0.00    -0.205 C  
ENDROOT
BRANCH  10  15
HETATM   15  C   UNL     1      -8.258  15.933  66.479  1.00  0.00    -0.272 C  
HETATM   16  C   UNL     1      -6.978  15.694  67.330  1.00  0.00    -0.189 C  
HETATM   17  N   UNL     1      -6.614  16.873  68.163  1.00  0.00    -0.142 NA 
HETATM   18  C   UNL     1      -6.368  18.036  67.287  1.00  0.00    -0.164 C  
HETATM   19  C   UNL     1      -7.580  18.339  66.388  1.00  0.00    -0.285 C  
HETATM   20  C   UNL     1      -8.745  17.388  66.748  1.00  0.00    -0.278 C  
HETATM   21  C   UNL     1      -8.999  17.614  68.250  1.00  0.00    -0.276 C  
HETATM   22  C   UNL     1      -7.756  17.192  69.052  1.00  0.00    -0.164 C  
ENDBRANCH  10  15
TORSDOF 1
ENDMDL
MODEL       48
REMARK 921   NORMALIZED FREE ENERGY PREDICTED BY IDOCK:   -5.49 KCAL/MOL
REMARK 922        TOTAL FREE ENERGY PREDICTED BY IDOCK:   -6.11 KCAL/MOL
REMARK 923 INTER-LIGAND FREE ENERGY PREDICTED BY IDOCK:   -5.93 KCAL/MOL
REMARK 924 INTRA-LIGAND FREE ENERGY PREDICTED BY IDOCK:   -0.18 KCAL/MOL
REMARK 927      BINDING AFFINITY PREDICTED BY RF-SCORE:    0.00 PKD
ROOT
HETATM    1  C   UNL     1     -11.367  12.429  67.158  1.00  0.00    -0.390 C  
HETATM    2  C   UNL     1     -11.921  13.826  66.829  1.00  0.00    -0.465 C  
HETATM    3  C   UNL     1     -12.642  13.920  65.470  1.00  0.00    -0.560 C  
HETATM    4  C   UNL     1     -12.651  12.622  64.660  1.00  0.00    -0.517 C  
HETATM    5  C   UNL     1     -11.294  11.972  64.701  1.00  0.00    -0.377 A  
HETATM    6  C   UNL     1     -10.646  11.889  65.947  1.00  0.00    -0.306 A  
HETATM    7  C   UNL     1      -9.405  11.250  66.047  1.00  0.00    -0.234 A  
HETATM    8  C   UNL     1      -8.805  10.711  64.902  1.00  0.00    -0.204 A  
HETATM    9  C   UNL     1      -8.793  10.985  67.380  1.00  0.00    -0.138 C  
HETATM   10  N   UNL     1      -9.600  11.280  68.473  1.00  0.00    -0.194 N  
HETATM   11  C   UNL     1      -9.456  10.781  63.669  1.00  0.00    -0.325 A  
HETATM   12  O   UNL     1      -7.710  10.419  67.445  1.00  0.00    -0.094 OA 
HETATM   13  C   UNL     1     -10.701  11.404  63.569  1.00  0.00    -0.453 A  
HETATM   14  C   UNL     1     -10.436  12.471  68.373  1.00  0.00    -0.240 C  
ENDROOT
BRANCH  10  15
HETATM   15  C   UNL     1      -9.809  10.312  69.574  1.00  0.00    -0.220 C  
HETATM   16  C   UNL     1      -8.561   9.487  69.998  1.00  0.00    -0.215 C  
HETATM   17  N   UNL     1      -8.811   8.018  69.982  1.00  0.00    -0.142 NA 
HETATM   18  C   UNL     1      -9.908   7.698  70.916  1.00  0.00    -0.176 C  
HETATM   19  C   UNL     1     -11.188   8.486  70.587  1.00  0.00    -0.278 C  
HETATM   20  C   UNL     1     -10.971   9.312  69.297  1.00  0.00    -0.105 C  
HETATM   21  C   UNL     1     -10.568   8.283  68.224  1.00  0.00    -0.157 C  
HETATM   22  C   UNL     1      -9.232   7.628  68.616  1.00  0.00    -0.141 C  
ENDBRANCH  10  15
TORSDOF 1
ENDMDL
MODEL       49
REMARK 921   NORMALIZED FREE ENERGY PREDICTED BY IDOCK:   -5.48 KCAL/MOL
REMARK 922        TOTAL FREE ENERGY PREDICTED BY IDOCK:   -6.10 KCAL/MOL
REMARK 923 INTER-LIGAND FREE ENERGY PREDICTED BY IDOCK:   -5.88 KCAL/MOL
REMARK 924 INTRA-LIGAND FREE ENERGY PREDICTED BY IDOCK:   -0.22 KCAL/MOL
REMARK 927      BINDING AFFINITY PREDICTED BY RF-SCORE:    0.00 PKD
ROOT
HETATM    1  C   UNL     1      -9.672   9.503  65.682  1.00  0.00    -0.361 C  
HETATM    2  C   UNL     1      -8.894   8.197  65.449  1.00  0.00    -0.086 C  
HETATM    3  C   UNL     1      -9.412   6.994  66.260  1.00  0.00    -0.127 C  
HETATM    4  C   UNL     1     -10.586   7.308  67.190  1.00  0.00    -0.416 C  
HETATM    5  C   UNL     1     -10.345   8.604  67.916  1.00  0.00    -0.286 A  
HETATM    6  C   UNL     1      -9.874   9.697  67.165  1.00  0.00    -0.238 A  
HETATM    7  C   UNL     1      -9.680  10.937  67.783  1.00  0.00    -0.183 A  
HETATM    8  C   UNL     1      -9.940  11.081  69.153  1.00  0.00    -0.142 A  
HETATM    9  C   UNL     1      -9.365  12.148  66.974  1.00  0.00    -0.201 C  
HETATM   10  N   UNL     1      -9.428  11.974  65.596  1.00  0.00    -0.188 N  
HETATM   11  C   UNL     1     -10.421   9.999  69.893  1.00  0.00    -0.317 A  
HETATM   12  O   UNL     1      -9.207  13.225  67.535  1.00  0.00    -0.195 OA 
HETATM   13  C   UNL     1     -10.630   8.765  69.275  1.00  0.00    -0.210 A  
HETATM   14  C   UNL     1      -8.944  10.703  65.069  1.00  0.00    -0.199 C  
ENDROOT
BRANCH  10  15
HETATM   15  C   UNL     1     -10.182  12.904  64.725  1.00  0.00    -0.285 C  
HETATM   16  C   UNL     1     -10.162  14.400  65.151  1.00  0.00    -0.391 C  
HETATM   17  N   UNL     1     -11.528  14.979  65.279  1.00  0.00    -0.336 NA 
HETATM   18  C   UNL     1     -12.224  14.885  63.981  1.00  0.00    -0.123 C  
HETATM   19  C   UNL     1     -12.277  13.437  63.464  1.00  0.00    -0.468 C  
HETATM   20  C   UNL     1     -11.668  12.486  64.523  1.00  0.00    -0.423 C  
HETATM   21  C   UNL     1     -12.488  12.732  65.803  1.00  0.00    -0.253 C  
HETATM   22  C   UNL     1     -12.285  14.182  66.273  1.00  0.00    -0.449 C  
ENDBRANCH  10  15
TORSDOF 1
ENDMDL
MODEL       50
REMARK 921   NORMALIZED FREE ENERGY PREDICTED BY IDOCK:   -5.47 KCAL/MOL
REMARK 922        TOTAL FREE ENERGY PREDICTED BY IDOCK:   -6.09 KCAL/MOL
REMARK 923 INTER-LIGAND FREE ENERGY PREDICTED BY IDOCK:   -5.82 KCAL/MOL
REMARK 924 INTRA-LIGAND FREE ENERGY PREDICTED BY IDOCK:   -0.27 KCAL/MOL
REMARK 927      BINDING AFFINITY PREDICTED BY RF-SCORE:    0.00 PKD
ROOT
HETATM    1  C   UNL     1     -10.486   8.467  67.487  1.00  0.00    -0.328 C  
HETATM    2  C   UNL     1     -10.502   7.022  66.960  1.00  0.00    -0.386 C  
HETATM    3  C   UNL     1     -11.007   5.980  67.978  1.00  0.00    -0.340 C  
HETATM    4  C   UNL     1     -11.368   6.551  69.351  1.00  0.00    -0.395 C  
HETATM    5  C   UNL     1     -10.321   7.533  69.800  1.00  0.00    -0.221 A  
HETATM    6  C   UNL     1      -9.869   8.482  68.864  1.00  0.00    -0.181 A  
HETATM    7  C   UNL     1      -8.932   9.448  69.245  1.00  0.00    -0.154 A  
HETATM    8  C   UNL     1      -8.435   9.457  70.555  1.00  0.00    -0.251 A  
HETATM    9  C   UNL     1      -8.584  10.572  68.330  1.00  0.00    -0.127 C  
HETATM   10  N   UNL     1      -9.352  10.655  67.174  1.00  0.00    -0.154 N  
HETATM   11  C   UNL     1      -8.895   8.524  71.487  1.00  0.00    -0.260 A  
HETATM   12  O   UNL     1      -7.767  11.411  68.687  1.00  0.00    -0.124 OA 
HETATM   13  C   UNL     1      -9.841   7.569  71.113  1.00  0.00    -0.180 A  
HETATM   14  C   UNL     1      -9.724   9.397  66.537  1.00  0.00    -0.236 C  
ENDROOT
BRANCH  10  15
HETATM   15  C   UNL     1      -9.986  11.923  66.747  1.00  0.00    -0.195 C  
HETATM   16  C   UNL     1      -9.413  13.219  67.390  1.00  0.00    -0.218 C  
HETATM   17  N   UNL     1     -10.466  14.056  68.029  1.00  0.00    -0.237 NA 
HETATM   18  C   UNL     1     -11.460  14.454  67.014  1.00  0.00    -0.361 C  
HETATM   19  C   UNL     1     -12.072  13.233  66.304  1.00  0.00    -0.472 C  
HETATM   20  C   UNL     1     -11.531  11.934  66.948  1.00  0.00    -0.390 C  
HETATM   21  C   UNL     1     -11.891  12.045  68.441  1.00  0.00    -0.360 C  
HETATM   22  C   UNL     1     -11.152  13.243  69.061  1.00  0.00    -0.244 C  
ENDBRANCH  10  15
TORSDOF 1
ENDMDL
MODEL       51
REMARK 921   NORMALIZED FREE ENERGY PREDICTED BY IDOCK:   -5.47 KCAL/MOL
REMARK 922        TOTAL FREE ENERGY PREDICTED BY IDOCK:   -6.09 KCAL/MOL
REMARK 923 INTER-LIGAND FREE ENERGY PREDICTED BY IDOCK:   -5.81 KCAL/MOL
REMARK 924 INTRA-LIGAND FREE ENERGY PREDICTED BY IDOCK:   -0.27 KCAL/MOL
REMARK 927      BINDING AFFINITY PREDICTED BY RF-SCORE:    0.00 PKD
ROOT
HETATM    1  C   UNL     1      -9.695  12.418  67.256  1.00  0.00    -0.201 C  
HETATM    2  C   UNL     1      -9.550  13.897  67.655  1.00  0.00    -0.215 C  
HETATM    3  C   UNL     1     -10.868  14.696  67.625  1.00  0.00    -0.284 C  
HETATM    4  C   UNL     1     -12.089  13.897  67.165  1.00  0.00    -0.422 C  
HETATM    5  C   UNL     1     -11.742  13.054  65.968  1.00  0.00    -0.442 A  
HETATM    6  C   UNL     1     -10.537  12.327  66.007  1.00  0.00    -0.287 A  
HETATM    7  C   UNL     1     -10.192  11.490  64.940  1.00  0.00    -0.324 A  
HETATM    8  C   UNL     1     -11.039  11.393  63.829  1.00  0.00    -0.417 A  
HETATM    9  C   UNL     1      -9.023  10.571  65.044  1.00  0.00    -0.201 C  
HETATM   10  N   UNL     1      -8.423  10.513  66.297  1.00  0.00    -0.144 N  
HETATM   11  C   UNL     1     -12.241  12.104  63.798  1.00  0.00    -0.630 A  
HETATM   12  O   UNL     1      -8.742   9.842  64.101  1.00  0.00    -0.171 OA 
HETATM   13  C   UNL     1     -12.595  12.927  64.868  1.00  0.00    -0.525 A  
HETATM   14  C   UNL     1      -8.328  11.763  67.041  1.00  0.00    -0.172 C  
ENDROOT
BRANCH  10  15
HETATM   15  C   UNL     1      -8.130   9.223  66.963  1.00  0.00    -0.112 C  
HETATM   16  C   UNL     1      -8.404   7.945  66.120  1.00  0.00    -0.127 C  
HETATM   17  N   UNL     1      -9.293   6.976  66.818  1.00  0.00    -0.151 NA 
HETATM   18  C   UNL     1      -8.662   6.558  68.086  1.00  0.00    -0.117 C  
HETATM   19  C   UNL     1      -8.333   7.763  68.985  1.00  0.00    -0.131 C  
HETATM   20  C   UNL     1      -8.863   9.060  68.328  1.00  0.00    -0.134 C  
HETATM   21  C   UNL     1     -10.369   8.818  68.119  1.00  0.00    -0.266 C  
HETATM   22  C   UNL     1     -10.572   7.653  67.135  1.00  0.00    -0.340 C  
ENDBRANCH  10  15
TORSDOF 1
ENDMDL
MODEL       52
REMARK 921   NORMALIZED FREE ENERGY PREDICTED BY IDOCK:   -5.40 KCAL/MOL
REMARK 922        TOTAL FREE ENERGY PREDICTED BY IDOCK:   -6.02 KCAL/MOL
REMARK 923 INTER-LIGAND FREE ENERGY PREDICTED BY IDOCK:   -5.75 KCAL/MOL
REMARK 924 INTRA-LIGAND FREE ENERGY PREDICTED BY IDOCK:   -0.27 KCAL/MOL
REMARK 927      BINDING AFFINITY PREDICTED BY RF-SCORE:    0.00 PKD
ROOT
HETATM    1  C   UNL     1      -9.002   8.368  71.367  1.00  0.00    -0.237 C  
HETATM    2  C   UNL     1      -8.445   8.168  72.786  1.00  0.00    -0.250 C  
HETATM    3  C   UNL     1      -9.441   7.532  73.776  1.00  0.00    -0.330 C  
HETATM    4  C   UNL     1     -10.826   7.244  73.193  1.00  0.00    -0.401 C  
HETATM    5  C   UNL     1     -11.295   8.407  72.362  1.00  0.00    -0.448 A  
HETATM    6  C   UNL     1     -10.379   8.979  71.460  1.00  0.00    -0.412 A  
HETATM    7  C   UNL     1     -10.780  10.031  70.629  1.00  0.00    -0.325 A  
HETATM    8  C   UNL     1     -12.090  10.523  70.712  1.00  0.00    -0.470 A  
HETATM    9  C   UNL     1      -9.889  10.522  69.541  1.00  0.00    -0.142 C  
HETATM   10  N   UNL     1      -8.735   9.774  69.335  1.00  0.00    -0.159 N  
HETATM   11  C   UNL     1     -13.002   9.945  71.597  1.00  0.00    -0.536 A  
HETATM   12  O   UNL     1     -10.263  11.439  68.821  1.00  0.00    -0.203 OA 
HETATM   13  C   UNL     1     -12.608   8.885  72.416  1.00  0.00    -0.423 A  
HETATM   14  C   UNL     1      -8.072   9.245  70.522  1.00  0.00    -0.174 C  
ENDROOT
BRANCH  10  15
HETATM   15  C   UNL     1      -8.335   9.309  67.988  1.00  0.00    -0.120 C  
HETATM   16  C   UNL     1      -9.254   9.756  66.815  1.00  0.00    -0.148 C  
HETATM   17  N   UNL     1      -9.728   8.611  65.989  1.00  0.00    -0.217 NA 
HETATM   18  C   UNL     1      -8.566   7.907  65.413  1.00  0.00    -0.095 C  
HETATM   19  C   UNL     1      -7.584   7.441  66.502  1.00  0.00    -0.092 C  
HETATM   20  C   UNL     1      -8.166   7.762  67.899  1.00  0.00    -0.123 C  
HETATM   21  C   UNL     1      -9.535   7.056  67.936  1.00  0.00    -0.128 C  
HETATM   22  C   UNL     1     -10.458   7.667  66.868  1.00  0.00    -0.318 C  
ENDBRANCH  10  15
TORSDOF 1
ENDMDL
MODEL       53
REMARK 921   NORMALIZED FREE ENERGY PREDICTED BY IDOCK:   -5.35 KCAL/MOL
REMARK 922        TOTAL FREE ENERGY PREDICTED BY IDOCK:   -5.96 KCAL/MOL
REMARK 923 INTER-LIGAND FREE ENERGY PREDICTED BY IDOCK:   -5.58 KCAL/MOL
REMARK 924 INTRA-LIGAND FREE ENERGY PREDICTED BY IDOCK:   -0.37 KCAL/MOL
REMARK 927      BINDING AFFINITY PREDICTED BY RF-SCORE:    0.00 PKD
ROOT
HETATM    1  C   UNL     1      -9.908  13.174  67.806  1.00  0.00    -0.228 C  
HETATM    2  C   UNL     1      -9.951  13.891  66.446  1.00  0.00    -0.303 C  
HETATM    3  C   UNL     1      -9.694  15.409  66.518  1.00  0.00    -0.292 C  
HETATM    4  C   UNL     1      -9.481  15.954  67.932  1.00  0.00    -0.213 C  
HETATM    5  C   UNL     1     -10.487  15.357  68.879  1.00  0.00    -0.238 A  
HETATM    6  C   UNL     1     -10.711  13.970  68.806  1.00  0.00    -0.272 A  
HETATM    7  C   UNL     1     -11.600  13.358  69.697  1.00  0.00    -0.334 A  
HETATM    8  C   UNL     1     -12.276  14.134  70.648  1.00  0.00    -0.432 A  
HETATM    9  C   UNL     1     -11.709  11.873  69.762  1.00  0.00    -0.331 C  
HETATM   10  N   UNL     1     -10.780  11.176  68.998  1.00  0.00    -0.216 N  
HETATM   11  C   UNL     1     -12.041  15.508  70.729  1.00  0.00    -0.435 A  
HETATM   12  O   UNL     1     -12.488  11.359  70.554  1.00  0.00    -0.318 OA 
HETATM   13  C   UNL     1     -11.143  16.118  69.851  1.00  0.00    -0.357 A  
HETATM   14  C   UNL     1     -10.438  11.741  67.697  1.00  0.00    -0.197 C  
ENDROOT
BRANCH  10  15
HETATM   15  C   UNL     1      -9.978  10.068  69.564  1.00  0.00    -0.228 C  
HETATM   16  C   UNL     1      -8.483  10.023  69.136  1.00  0.00    -0.156 C  
HETATM   17  N   UNL     1      -8.087   8.705  68.566  1.00  0.00    -0.116 NA 
HETATM   18  C   UNL     1      -8.303   7.651  69.576  1.00  0.00    -0.130 C  
HETATM   19  C   UNL     1      -9.757   7.629  70.078  1.00  0.00    -0.172 C  
HETATM   20  C   UNL     1     -10.594   8.664  69.289  1.00  0.00    -0.204 C  
HETATM   21  C   UNL     1     -10.429   8.270  67.809  1.00  0.00    -0.280 C  
HETATM   22  C   UNL     1      -8.954   8.418  67.399  1.00  0.00    -0.134 C  
ENDBRANCH  10  15
TORSDOF 1
ENDMDL
MODEL       54
REMARK 921   NORMALIZED FREE ENERGY PREDICTED BY IDOCK:   -5.32 KCAL/MOL
REMARK 922        TOTAL FREE ENERGY PREDICTED BY IDOCK:   -5.92 KCAL/MOL
REMARK 923 INTER-LIGAND FREE ENERGY PREDICTED BY IDOCK:   -5.67 KCAL/MOL
REMARK 924 INTRA-LIGAND FREE ENERGY PREDICTED BY IDOCK:   -0.25 KCAL/MOL
REMARK 927      BINDING AFFINITY PREDICTED BY RF-SCORE:    0.00 PKD
ROOT
HETATM    1  C   UNL     1     -10.678  12.216  64.966  1.00  0.00    -0.338 C  
HETATM    2  C   UNL     1     -11.682  12.998  64.102  1.00  0.00    -0.470 C  
HETATM    3  C   UNL     1     -12.096  14.362  64.688  1.00  0.00    -0.485 C  
HETATM    4  C   UNL     1     -11.473  14.691  66.046  1.00  0.00    -0.332 C  
HETATM    5  C   UNL     1     -11.520  13.487  66.947  1.00  0.00    -0.374 A  
HETATM    6  C   UNL     1     -11.137  12.247  66.403  1.00  0.00    -0.345 A  
HETATM    7  C   UNL     1     -11.116  11.105  67.212  1.00  0.00    -0.366 A  
HETATM    8  C   UNL     1     -11.494  11.199  68.558  1.00  0.00    -0.371 A  
HETATM    9  C   UNL     1     -10.536   9.828  66.709  1.00  0.00    -0.189 C  
HETATM   10  N   UNL     1      -9.907   9.909  65.472  1.00  0.00    -0.302 N  
HETATM   11  C   UNL     1     -11.860  12.433  69.100  1.00  0.00    -0.352 A  
HETATM   12  O   UNL     1     -10.522   8.844  67.437  1.00  0.00    -0.258 OA 
HETATM   13  C   UNL     1     -11.866  13.576  68.299  1.00  0.00    -0.401 A  
HETATM   14  C   UNL     1     -10.525  10.774  64.473  1.00  0.00    -0.281 C  
ENDROOT
BRANCH  10  15
HETATM   15  C   UNL     1      -8.548   9.365  65.250  1.00  0.00    -0.162 C  
HETATM   16  C   UNL     1      -8.165   8.123  66.105  1.00  0.00    -0.117 C  
HETATM   17  N   UNL     1      -6.894   8.314  66.858  1.00  0.00    -0.068 NA 
HETATM   18  C   UNL     1      -5.795   8.567  65.907  1.00  0.00    -0.047 C  
HETATM   19  C   UNL     1      -6.092   9.773  64.998  1.00  0.00    -0.092 C  
HETATM   20  C   UNL     1      -7.425  10.430  65.427  1.00  0.00    -0.127 C  
HETATM   21  C   UNL     1      -7.236  10.789  66.913  1.00  0.00    -0.115 C  
HETATM   22  C   UNL     1      -7.039   9.502  67.732  1.00  0.00    -0.081 C  
ENDBRANCH  10  15
TORSDOF 1
ENDMDL
MODEL       55
REMARK 921   NORMALIZED FREE ENERGY PREDICTED BY IDOCK:   -5.23 KCAL/MOL
REMARK 922        TOTAL FREE ENERGY PREDICTED BY IDOCK:   -5.84 KCAL/MOL
REMARK 923 INTER-LIGAND FREE ENERGY PREDICTED BY IDOCK:   -5.59 KCAL/MOL
REMARK 924 INTRA-LIGAND FREE ENERGY PREDICTED BY IDOCK:   -0.25 KCAL/MOL
REMARK 927      BINDING AFFINITY PREDICTED BY RF-SCORE:    0.00 PKD
ROOT
HETATM    1  C   UNL     1     -10.674  15.144  65.493  1.00  0.00    -0.379 C  
HETATM    2  C   UNL     1     -10.882  14.003  64.482  1.00  0.00    -0.362 C  
HETATM    3  C   UNL     1     -12.127  13.135  64.751  1.00  0.00    -0.459 C  
HETATM    4  C   UNL     1     -12.923  13.528  65.998  1.00  0.00     0.029 C  
HETATM    5  C   UNL     1     -11.991  13.809  67.146  1.00  0.00    -0.442 A  
HETATM    6  C   UNL     1     -10.859  14.604  66.889  1.00  0.00    -0.305 A  
HETATM    7  C   UNL     1      -9.987  14.935  67.933  1.00  0.00    -0.219 A  
HETATM    8  C   UNL     1     -10.236  14.457  69.226  1.00  0.00    -0.077 A  
HETATM    9  C   UNL     1      -8.893  15.926  67.724  1.00  0.00    -0.175 C  
HETATM   10  N   UNL     1      -8.910  16.577  66.496  1.00  0.00    -0.255 N  
HETATM   11  C   UNL     1     -11.368  13.680  69.482  1.00  0.00    -0.276 A  
HETATM   12  O   UNL     1      -8.147  16.206  68.652  1.00  0.00    -0.179 OA 
HETATM   13  C   UNL     1     -12.248  13.362  68.445  1.00  0.00    -0.127 A  
HETATM   14  C   UNL     1      -9.291  15.783  65.333  1.00  0.00     0.182 C  
ENDROOT
BRANCH  10  15
HETATM   15  C   UNL     1      -8.806  18.051  66.392  1.00  0.00    -0.231 C  
HETATM   16  C   UNL     1      -7.970  18.752  67.500  1.00  0.00    -0.244 C  
HETATM   17  N   UNL     1      -8.721  19.842  68.183  1.00  0.00    -0.308 NA 
HETATM   18  C   UNL     1      -9.112  20.863  67.193  1.00  0.00    -0.074 C  
HETATM   19  C   UNL     1      -9.931  20.258  66.039  1.00  0.00    -0.397 C  
HETATM   20  C   UNL     1     -10.192  18.758  66.320  1.00  0.00    -0.466 C  
HETATM   21  C   UNL     1     -10.900  18.722  67.687  1.00  0.00    -0.382 C  
HETATM   22  C   UNL     1      -9.954  19.266  68.771  1.00  0.00    -0.440 C  
ENDBRANCH  10  15
TORSDOF 1
ENDMDL
MODEL       56
REMARK 921   NORMALIZED FREE ENERGY PREDICTED BY IDOCK:   -5.21 KCAL/MOL
REMARK 922        TOTAL FREE ENERGY PREDICTED BY IDOCK:   -5.81 KCAL/MOL
REMARK 923 INTER-LIGAND FREE ENERGY PREDICTED BY IDOCK:   -5.39 KCAL/MOL
REMARK 924 INTRA-LIGAND FREE ENERGY PREDICTED BY IDOCK:   -0.42 KCAL/MOL
REMARK 927      BINDING AFFINITY PREDICTED BY RF-SCORE:    0.00 PKD
ROOT
HETATM    1  C   UNL     1     -10.466   8.621  70.812  1.00  0.00    -0.249 C  
HETATM    2  C   UNL     1     -11.324   8.616  72.090  1.00  0.00    -0.434 C  
HETATM    3  C   UNL     1     -10.935   7.530  73.112  1.00  0.00    -0.420 C  
HETATM    4  C   UNL     1      -9.792   6.615  72.668  1.00  0.00    -0.180 C  
HETATM    5  C   UNL     1      -9.977   6.205  71.232  1.00  0.00    -0.215 A  
HETATM    6  C   UNL     1     -10.329   7.206  70.307  1.00  0.00    -0.214 A  
HETATM    7  C   UNL     1     -10.465   6.887  68.951  1.00  0.00    -0.225 A  
HETATM    8  C   UNL     1     -10.267   5.567  68.524  1.00  0.00    -0.250 A  
HETATM    9  C   UNL     1     -10.650   7.960  67.933  1.00  0.00    -0.149 C  
HETATM   10  N   UNL     1     -10.528   9.259  68.412  1.00  0.00    -0.210 N  
HETATM   11  C   UNL     1      -9.904   4.579  69.441  1.00  0.00    -0.260 A  
HETATM   12  O   UNL     1     -10.760   7.659  66.752  1.00  0.00    -0.318 OA 
HETATM   13  C   UNL     1      -9.752   4.898  70.791  1.00  0.00    -0.268 A  
HETATM   14  C   UNL     1     -11.074   9.528  69.738  1.00  0.00    -0.191 C  
ENDROOT
BRANCH  10  15
HETATM   15  C   UNL     1      -9.665  10.260  67.744  1.00  0.00    -0.156 C  
HETATM   16  C   UNL     1      -9.029  11.335  68.670  1.00  0.00    -0.147 C  
HETATM   17  N   UNL     1      -9.308  12.725  68.214  1.00  0.00    -0.210 NA 
HETATM   18  C   UNL     1      -8.761  12.913  66.856  1.00  0.00    -0.161 C  
HETATM   19  C   UNL     1      -9.321  11.877  65.865  1.00  0.00    -0.193 C  
HETATM   20  C   UNL     1     -10.381  11.001  66.575  1.00  0.00    -0.295 C  
HETATM   21  C   UNL     1     -11.428  11.994  67.112  1.00  0.00    -0.401 C  
HETATM   22  C   UNL     1     -10.776  12.915  68.157  1.00  0.00    -0.241 C  
ENDBRANCH  10  15
TORSDOF 1
ENDMDL
MODEL       57
REMARK 921   NORMALIZED FREE ENERGY PREDICTED BY IDOCK:   -5.17 KCAL/MOL
REMARK 922        TOTAL FREE ENERGY PREDICTED BY IDOCK:   -5.77 KCAL/MOL
REMARK 923 INTER-LIGAND FREE ENERGY PREDICTED BY IDOCK:   -5.37 KCAL/MOL
REMARK 924 INTRA-LIGAND FREE ENERGY PREDICTED BY IDOCK:   -0.40 KCAL/MOL
REMARK 927      BINDING AFFINITY PREDICTED BY RF-SCORE:    0.00 PKD
ROOT
HETATM    1  C   UNL     1      -9.702  11.206  66.837  1.00  0.00    -0.216 C  
HETATM    2  C   UNL     1      -9.370  12.388  67.764  1.00  0.00    -0.196 C  
HETATM    3  C   UNL     1     -10.580  13.270  68.127  1.00  0.00    -0.259 C  
HETATM    4  C   UNL     1     -11.898  12.848  67.474  1.00  0.00    -0.407 C  
HETATM    5  C   UNL     1     -11.677  12.506  66.025  1.00  0.00    -0.472 A  
HETATM    6  C   UNL     1     -10.571  11.697  65.706  1.00  0.00    -0.320 A  
HETATM    7  C   UNL     1     -10.349  11.310  64.379  1.00  0.00    -0.388 A  
HETATM    8  C   UNL     1     -11.221  11.744  63.372  1.00  0.00    -0.440 A  
HETATM    9  C   UNL     1      -9.299  10.305  64.047  1.00  0.00    -0.289 C  
HETATM   10  N   UNL     1      -8.690   9.701  65.140  1.00  0.00    -0.154 N  
HETATM   11  C   UNL     1     -12.327  12.534  63.693  1.00  0.00    -0.618 A  
HETATM   12  O   UNL     1      -9.127   9.976  62.881  1.00  0.00    -0.245 OA 
HETATM   13  C   UNL     1     -12.559  12.909  65.018  1.00  0.00    -0.538 A  
HETATM   14  C   UNL     1      -8.429  10.545  66.301  1.00  0.00    -0.150 C  
ENDROOT
BRANCH  10  15
HETATM   15  C   UNL     1      -8.546   8.230  65.239  1.00  0.00    -0.132 C  
HETATM   16  C   UNL     1      -8.707   7.627  66.664  1.00  0.00    -0.141 C  
HETATM   17  N   UNL     1      -7.550   6.777  67.062  1.00  0.00    -0.094 NA 
HETATM   18  C   UNL     1      -7.412   5.660  66.108  1.00  0.00    -0.082 C  
HETATM   19  C   UNL     1      -7.266   6.160  64.659  1.00  0.00    -0.064 C  
HETATM   20  C   UNL     1      -7.203   7.706  64.648  1.00  0.00    -0.075 C  
HETATM   21  C   UNL     1      -6.020   8.066  65.565  1.00  0.00    -0.038 C  
HETATM   22  C   UNL     1      -6.319   7.599  67.000  1.00  0.00    -0.054 C  
ENDBRANCH  10  15
TORSDOF 1
ENDMDL
MODEL       58
REMARK 921   NORMALIZED FREE ENERGY PREDICTED BY IDOCK:   -5.13 KCAL/MOL
REMARK 922        TOTAL FREE ENERGY PREDICTED BY IDOCK:   -5.73 KCAL/MOL
REMARK 923 INTER-LIGAND FREE ENERGY PREDICTED BY IDOCK:   -5.32 KCAL/MOL
REMARK 924 INTRA-LIGAND FREE ENERGY PREDICTED BY IDOCK:   -0.41 KCAL/MOL
REMARK 927      BINDING AFFINITY PREDICTED BY RF-SCORE:    0.00 PKD
ROOT
HETATM    1  C   UNL     1     -10.583   9.413  70.283  1.00  0.00    -0.297 C  
HETATM    2  C   UNL     1     -11.408   8.118  70.374  1.00  0.00    -0.181 C  
HETATM    3  C   UNL     1     -11.311   7.396  71.733  1.00  0.00    -0.287 C  
HETATM    4  C   UNL     1     -10.380   8.065  72.747  1.00  0.00    -0.408 C  
HETATM    5  C   UNL     1      -9.103   8.497  72.078  1.00  0.00    -0.317 A  
HETATM    6  C   UNL     1      -9.204   9.157  70.839  1.00  0.00    -0.326 A  
HETATM    7  C   UNL     1      -8.049   9.621  70.199  1.00  0.00    -0.205 A  
HETATM    8  C   UNL     1      -6.795   9.412  70.788  1.00  0.00    -0.109 A  
HETATM    9  C   UNL     1      -8.146  10.484  68.988  1.00  0.00    -0.143 C  
HETATM   10  N   UNL     1      -9.432  10.894  68.654  1.00  0.00    -0.184 N  
HETATM   11  C   UNL     1      -6.698   8.769  72.024  1.00  0.00    -0.048 A  
HETATM   12  O   UNL     1      -7.124  10.886  68.449  1.00  0.00    -0.068 OA 
HETATM   13  C   UNL     1      -7.849   8.319  72.672  1.00  0.00    -0.184 A  
HETATM   14  C   UNL     1     -10.504   9.922  68.841  1.00  0.00    -0.211 C  
ENDROOT
BRANCH  10  15
HETATM   15  C   UNL     1      -9.752  12.312  68.373  1.00  0.00    -0.191 C  
HETATM   16  C   UNL     1     -11.227  12.737  68.621  1.00  0.00    -0.282 C  
HETATM   17  N   UNL     1     -11.845  13.389  67.433  1.00  0.00    -0.372 NA 
HETATM   18  C   UNL     1     -11.075  14.599  67.082  1.00  0.00    -0.326 C  
HETATM   19  C   UNL     1      -9.590  14.280  66.837  1.00  0.00    -0.268 C  
HETATM   20  C   UNL     1      -9.365  12.752  66.930  1.00  0.00    -0.234 C  
HETATM   21  C   UNL     1     -10.324  12.141  65.892  1.00  0.00    -0.286 C  
HETATM   22  C   UNL     1     -11.778  12.447  66.291  1.00  0.00    -0.395 C  
ENDBRANCH  10  15
TORSDOF 1
ENDMDL
MODEL       59
REMARK 921   NORMALIZED FREE ENERGY PREDICTED BY IDOCK:   -5.13 KCAL/MOL
REMARK 922        TOTAL FREE ENERGY PREDICTED BY IDOCK:   -5.73 KCAL/MOL
REMARK 923 INTER-LIGAND FREE ENERGY PREDICTED BY IDOCK:   -5.55 KCAL/MOL
REMARK 924 INTRA-LIGAND FREE ENERGY PREDICTED BY IDOCK:   -0.18 KCAL/MOL
REMARK 927      BINDING AFFINITY PREDICTED BY RF-SCORE:    0.00 PKD
ROOT
HETATM    1  C   UNL     1     -10.853  10.442  68.324  1.00  0.00    -0.299 C  
HETATM    2  C   UNL     1     -11.686  11.628  67.808  1.00  0.00    -0.315 C  
HETATM    3  C   UNL     1     -11.427  11.992  66.333  1.00  0.00    -0.417 C  
HETATM    4  C   UNL     1     -10.358  11.142  65.643  1.00  0.00    -0.311 C  
HETATM    5  C   UNL     1      -9.170  10.959  66.549  1.00  0.00    -0.189 A  
HETATM    6  C   UNL     1      -9.419  10.624  67.893  1.00  0.00    -0.168 A  
HETATM    7  C   UNL     1      -8.348  10.395  68.765  1.00  0.00    -0.134 A  
HETATM    8  C   UNL     1      -7.033  10.517  68.299  1.00  0.00    -0.073 A  
HETATM    9  C   UNL     1      -8.586   9.857  70.134  1.00  0.00    -0.105 C  
HETATM   10  N   UNL     1      -9.896   9.477  70.403  1.00  0.00    -0.257 N  
HETATM   11  C   UNL     1      -6.788  10.835  66.961  1.00  0.00    -0.094 A  
HETATM   12  O   UNL     1      -7.634   9.658  70.878  1.00  0.00    -0.309 OA 
HETATM   13  C   UNL     1      -7.854  11.049  66.086  1.00  0.00    -0.117 A  
HETATM   14  C   UNL     1     -10.953  10.314  69.847  1.00  0.00    -0.303 C  
ENDROOT
BRANCH  10  15
HETATM   15  C   UNL     1     -10.220   8.159  70.994  1.00  0.00    -0.188 C  
HETATM   16  C   UNL     1     -11.190   7.265  70.170  1.00  0.00    -0.239 C  
HETATM   17  N   UNL     1     -12.363   6.806  70.964  1.00  0.00    -0.364 NA 
HETATM   18  C   UNL     1     -11.894   6.020  72.121  1.00  0.00    -0.247 C  
HETATM   19  C   UNL     1     -10.908   6.818  72.992  1.00  0.00    -0.314 C  
HETATM   20  C   UNL     1     -10.781   8.259  72.444  1.00  0.00    -0.411 C  
HETATM   21  C   UNL     1     -12.217   8.816  72.441  1.00  0.00    -0.396 C  
HETATM   22  C   UNL     1     -13.084   7.997  71.470  1.00  0.00    -0.296 C  
ENDBRANCH  10  15
TORSDOF 1
ENDMDL
MODEL       60
REMARK 921   NORMALIZED FREE ENERGY PREDICTED BY IDOCK:   -5.10 KCAL/MOL
REMARK 922        TOTAL FREE ENERGY PREDICTED BY IDOCK:   -5.69 KCAL/MOL
REMARK 923 INTER-LIGAND FREE ENERGY PREDICTED BY IDOCK:   -5.42 KCAL/MOL
REMARK 924 INTRA-LIGAND FREE ENERGY PREDICTED BY IDOCK:   -0.27 KCAL/MOL
REMARK 927      BINDING AFFINITY PREDICTED BY RF-SCORE:    0.00 PKD
ROOT
HETATM    1  C   UNL     1      -7.978  14.143  68.196  1.00  0.00    -0.143 C  
HETATM    2  C   UNL     1      -7.264  12.850  68.626  1.00  0.00    -0.098 C  
HETATM    3  C   UNL     1      -7.598  11.621  67.758  1.00  0.00    -0.121 C  
HETATM    4  C   UNL     1      -8.612  11.883  66.642  1.00  0.00    -0.163 C  
HETATM    5  C   UNL     1      -9.751  12.719  67.158  1.00  0.00    -0.216 A  
HETATM    6  C   UNL     1      -9.435  13.841  67.947  1.00  0.00    -0.214 A  
HETATM    7  C   UNL     1     -10.455  14.679  68.410  1.00  0.00    -0.243 A  
HETATM    8  C   UNL     1     -11.790  14.388  68.099  1.00  0.00    -0.362 A  
HETATM    9  C   UNL     1     -10.132  15.969  69.083  1.00  0.00    -0.242 C  
HETATM   10  N   UNL     1      -8.786  16.321  69.074  1.00  0.00    -0.248 N  
HETATM   11  C   UNL     1     -12.101  13.284  67.304  1.00  0.00    -0.341 A  
HETATM   12  O   UNL     1     -11.040  16.691  69.473  1.00  0.00    -0.287 OA 
HETATM   13  C   UNL     1     -11.084  12.455  66.828  1.00  0.00    -0.333 A  
HETATM   14  C   UNL     1      -7.821  15.242  69.251  1.00  0.00    -0.221 C  
ENDROOT
BRANCH  10  15
HETATM   15  C   UNL     1      -8.334  17.666  68.650  1.00  0.00    -0.267 C  
HETATM   16  C   UNL     1      -9.428  18.771  68.615  1.00  0.00    -0.368 C  
HETATM   17  N   UNL     1      -9.502  19.464  67.299  1.00  0.00    -0.310 NA 
HETATM   18  C   UNL     1      -8.203  20.100  67.006  1.00  0.00    -0.327 C  
HETATM   19  C   UNL     1      -7.048  19.084  67.038  1.00  0.00    -0.213 C  
HETATM   20  C   UNL     1      -7.615  17.662  67.269  1.00  0.00    -0.217 C  
HETATM   21  C   UNL     1      -8.622  17.441  66.125  1.00  0.00    -0.191 C  
HETATM   22  C   UNL     1      -9.774  18.453  66.250  1.00  0.00    -0.294 C  
ENDBRANCH  10  15
TORSDOF 1
ENDMDL
MODEL       61
REMARK 921   NORMALIZED FREE ENERGY PREDICTED BY IDOCK:   -5.03 KCAL/MOL
REMARK 922        TOTAL FREE ENERGY PREDICTED BY IDOCK:   -5.62 KCAL/MOL
REMARK 923 INTER-LIGAND FREE ENERGY PREDICTED BY IDOCK:   -5.22 KCAL/MOL
REMARK 924 INTRA-LIGAND FREE ENERGY PREDICTED BY IDOCK:   -0.40 KCAL/MOL
REMARK 927      BINDING AFFINITY PREDICTED BY RF-SCORE:    0.00 PKD
ROOT
HETATM    1  C   UNL     1     -10.553   8.508  68.603  1.00  0.00    -0.154 C  
HETATM    2  C   UNL     1     -10.764   7.150  67.914  1.00  0.00    -0.258 C  
HETATM    3  C   UNL     1     -10.956   5.967  68.883  1.00  0.00    -0.395 C  
HETATM    4  C   UNL     1     -10.864   6.335  70.366  1.00  0.00    -0.360 C  
HETATM    5  C   UNL     1      -9.706   7.267  70.602  1.00  0.00    -0.175 A  
HETATM    6  C   UNL     1      -9.543   8.345  69.712  1.00  0.00    -0.170 A  
HETATM    7  C   UNL     1      -8.511   9.268  69.916  1.00  0.00    -0.170 A  
HETATM    8  C   UNL     1      -7.635   9.106  70.997  1.00  0.00    -0.124 A  
HETATM    9  C   UNL     1      -8.435  10.514  69.101  1.00  0.00    -0.147 C  
HETATM   10  N   UNL     1      -9.519  10.741  68.261  1.00  0.00    -0.158 N  
HETATM   11  C   UNL     1      -7.808   8.044  71.887  1.00  0.00    -0.127 A  
HETATM   12  O   UNL     1      -7.528  11.312  69.301  1.00  0.00    -0.109 OA 
HETATM   13  C   UNL     1      -8.846   7.131  71.695  1.00  0.00    -0.121 A  
HETATM   14  C   UNL     1     -10.099   9.575  67.603  1.00  0.00    -0.205 C  
ENDROOT
BRANCH  10  15
HETATM   15  C   UNL     1     -10.223  12.043  68.229  1.00  0.00    -0.206 C  
HETATM   16  C   UNL     1     -11.765  11.977  68.036  1.00  0.00    -0.331 C  
HETATM   17  N   UNL     1     -12.238  12.811  66.896  1.00  0.00    -0.439 NA 
HETATM   18  C   UNL     1     -11.869  14.220  67.134  1.00  0.00    -0.425 C  
HETATM   19  C   UNL     1     -10.356  14.385  67.358  1.00  0.00    -0.252 C  
HETATM   20  C   UNL     1      -9.650  13.022  67.161  1.00  0.00    -0.230 C  
HETATM   21  C   UNL     1     -10.035  12.572  65.739  1.00  0.00    -0.272 C  
HETATM   22  C   UNL     1     -11.556  12.352  65.663  1.00  0.00    -0.392 C  
ENDBRANCH  10  15
TORSDOF 1
ENDMDL
MODEL       62
REMARK 921   NORMALIZED FREE ENERGY PREDICTED BY IDOCK:   -5.00 KCAL/MOL
REMARK 922        TOTAL FREE ENERGY PREDICTED BY IDOCK:   -5.59 KCAL/MOL
REMARK 923 INTER-LIGAND FREE ENERGY PREDICTED BY IDOCK:   -5.54 KCAL/MOL
REMARK 924 INTRA-LIGAND FREE ENERGY PREDICTED BY IDOCK:   -0.05 KCAL/MOL
REMARK 927      BINDING AFFINITY PREDICTED BY RF-SCORE:    0.00 PKD
ROOT
HETATM    1  C   UNL     1      -7.919  12.560  67.429  1.00  0.00    -0.180 C  
HETATM    2  C   UNL     1      -6.948  11.858  68.394  1.00  0.00    -0.078 C  
HETATM    3  C   UNL     1      -5.921  10.938  67.705  1.00  0.00    -0.043 C  
HETATM    4  C   UNL     1      -6.064  10.847  66.185  1.00  0.00    -0.135 C  
HETATM    5  C   UNL     1      -7.513  10.704  65.804  1.00  0.00    -0.114 A  
HETATM    6  C   UNL     1      -8.442  11.551  66.437  1.00  0.00    -0.138 A  
HETATM    7  C   UNL     1      -9.795  11.492  66.083  1.00  0.00    -0.250 A  
HETATM    8  C   UNL     1     -10.221  10.578  65.111  1.00  0.00    -0.358 A  
HETATM    9  C   UNL     1     -10.760  12.503  66.601  1.00  0.00    -0.236 C  
HETATM   10  N   UNL     1     -10.193  13.553  67.314  1.00  0.00    -0.240 N  
HETATM   11  C   UNL     1      -9.295   9.749  64.473  1.00  0.00    -0.298 A  
HETATM   12  O   UNL     1     -11.937  12.437  66.273  1.00  0.00    -0.553 OA 
HETATM   13  C   UNL     1      -7.943   9.817  64.813  1.00  0.00    -0.138 A  
HETATM   14  C   UNL     1      -9.070  13.228  68.187  1.00  0.00    -0.207 C  
ENDROOT
BRANCH  10  15
HETATM   15  C   UNL     1     -10.524  14.966  67.019  1.00  0.00    -0.272 C  
HETATM   16  C   UNL     1     -10.049  15.501  65.638  1.00  0.00    -0.376 C  
HETATM   17  N   UNL     1      -9.239  16.745  65.751  1.00  0.00    -0.518 NA 
HETATM   18  C   UNL     1     -10.047  17.800  66.394  1.00  0.00    -0.357 C  
HETATM   19  C   UNL     1     -10.581  17.353  67.767  1.00  0.00    -0.371 C  
HETATM   20  C   UNL     1     -10.019  15.954  68.113  1.00  0.00    -0.222 C  
HETATM   21  C   UNL     1      -8.488  16.110  68.049  1.00  0.00    -0.168 C  
HETATM   22  C   UNL     1      -8.066  16.466  66.613  1.00  0.00    -0.286 C  
ENDBRANCH  10  15
TORSDOF 1
ENDMDL
MODEL       63
REMARK 921   NORMALIZED FREE ENERGY PREDICTED BY IDOCK:   -4.98 KCAL/MOL
REMARK 922        TOTAL FREE ENERGY PREDICTED BY IDOCK:   -5.57 KCAL/MOL
REMARK 923 INTER-LIGAND FREE ENERGY PREDICTED BY IDOCK:   -5.16 KCAL/MOL
REMARK 924 INTRA-LIGAND FREE ENERGY PREDICTED BY IDOCK:   -0.41 KCAL/MOL
REMARK 927      BINDING AFFINITY PREDICTED BY RF-SCORE:    0.00 PKD
ROOT
HETATM    1  C   UNL     1     -10.904  12.475  66.037  1.00  0.00    -0.309 C  
HETATM    2  C   UNL     1     -12.370  12.934  65.948  1.00  0.00    -0.378 C  
HETATM    3  C   UNL     1     -12.584  14.221  65.126  1.00  0.00    -0.384 C  
HETATM    4  C   UNL     1     -11.302  14.847  64.572  1.00  0.00    -0.306 C  
HETATM    5  C   UNL     1     -10.224  14.846  65.622  1.00  0.00    -0.382 A  
HETATM    6  C   UNL     1     -10.035  13.665  66.364  1.00  0.00    -0.299 A  
HETATM    7  C   UNL     1      -9.014  13.596  67.319  1.00  0.00    -0.226 A  
HETATM    8  C   UNL     1      -8.195  14.710  67.543  1.00  0.00    -0.203 A  
HETATM    9  C   UNL     1      -8.676  12.303  67.978  1.00  0.00    -0.181 C  
HETATM   10  N   UNL     1      -9.336  11.189  67.471  1.00  0.00    -0.166 N  
HETATM   11  C   UNL     1      -8.374  15.876  66.795  1.00  0.00    -0.306 A  
HETATM   12  O   UNL     1      -7.775  12.263  68.804  1.00  0.00    -0.100 OA 
HETATM   13  C   UNL     1      -9.382  15.941  65.832  1.00  0.00    -0.353 A  
HETATM   14  C   UNL     1     -10.730  11.368  67.080  1.00  0.00    -0.249 C  
ENDROOT
BRANCH  10  15
HETATM   15  C   UNL     1      -8.609   9.954  67.096  1.00  0.00    -0.125 C  
HETATM   16  C   UNL     1      -9.153   9.198  65.851  1.00  0.00    -0.205 C  
HETATM   17  N   UNL     1      -9.442   7.763  66.130  1.00  0.00    -0.119 NA 
HETATM   18  C   UNL     1      -8.203   7.090  66.566  1.00  0.00    -0.114 C  
HETATM   19  C   UNL     1      -7.576   7.783  67.789  1.00  0.00    -0.113 C  
HETATM   20  C   UNL     1      -8.498   8.930  68.265  1.00  0.00    -0.130 C  
HETATM   21  C   UNL     1      -9.858   8.263  68.543  1.00  0.00    -0.188 C  
HETATM   22  C   UNL     1     -10.427   7.689  67.235  1.00  0.00    -0.326 C  
ENDBRANCH  10  15
TORSDOF 1
ENDMDL
MODEL       64
REMARK 921   NORMALIZED FREE ENERGY PREDICTED BY IDOCK:   -4.97 KCAL/MOL
REMARK 922        TOTAL FREE ENERGY PREDICTED BY IDOCK:   -5.55 KCAL/MOL
REMARK 923 INTER-LIGAND FREE ENERGY PREDICTED BY IDOCK:   -5.37 KCAL/MOL
REMARK 924 INTRA-LIGAND FREE ENERGY PREDICTED BY IDOCK:   -0.18 KCAL/MOL
REMARK 927      BINDING AFFINITY PREDICTED BY RF-SCORE:    0.00 PKD
ROOT
HETATM    1  C   UNL     1     -11.041   8.400  70.889  1.00  0.00    -0.289 C  
HETATM    2  C   UNL     1     -11.671   8.620  72.275  1.00  0.00    -0.428 C  
HETATM    3  C   UNL     1     -12.845   9.619  72.288  1.00  0.00    -0.407 C  
HETATM    4  C   UNL     1     -13.160  10.253  70.932  1.00  0.00    -0.423 C  
HETATM    5  C   UNL     1     -11.889  10.660  70.237  1.00  0.00    -0.430 A  
HETATM    6  C   UNL     1     -10.825   9.740  70.229  1.00  0.00    -0.356 A  
HETATM    7  C   UNL     1      -9.638  10.051  69.555  1.00  0.00    -0.249 A  
HETATM    8  C   UNL     1      -9.509  11.285  68.906  1.00  0.00    -0.102 A  
HETATM    9  C   UNL     1      -8.576   9.021  69.374  1.00  0.00    -0.137 C  
HETATM   10  N   UNL     1      -8.918   7.737  69.783  1.00  0.00    -0.146 N  
HETATM   11  C   UNL     1     -10.571  12.191  68.903  1.00  0.00    -0.179 A  
HETATM   12  O   UNL     1      -7.549   9.312  68.775  1.00  0.00    -0.078 OA 
HETATM   13  C   UNL     1     -11.762  11.877  69.561  1.00  0.00    -0.410 A  
HETATM   14  C   UNL     1      -9.726   7.624  70.992  1.00  0.00    -0.163 C  
ENDROOT
BRANCH  10  15
HETATM   15  C   UNL     1      -8.708   6.558  68.913  1.00  0.00    -0.127 C  
HETATM   16  C   UNL     1      -8.469   6.860  67.406  1.00  0.00    -0.121 C  
HETATM   17  N   UNL     1      -9.404   6.115  66.516  1.00  0.00    -0.151 NA 
HETATM   18  C   UNL     1      -9.226   4.665  66.723  1.00  0.00    -0.126 C  
HETATM   19  C   UNL     1      -9.424   4.269  68.197  1.00  0.00    -0.213 C  
HETATM   20  C   UNL     1      -9.857   5.510  69.014  1.00  0.00    -0.220 C  
HETATM   21  C   UNL     1     -11.132   6.023  68.319  1.00  0.00    -0.259 C  
HETATM   22  C   UNL     1     -10.793   6.473  66.888  1.00  0.00    -0.357 C  
ENDBRANCH  10  15
TORSDOF 1
ENDMDL
MODEL       65
REMARK 921   NORMALIZED FREE ENERGY PREDICTED BY IDOCK:   -4.94 KCAL/MOL
REMARK 922        TOTAL FREE ENERGY PREDICTED BY IDOCK:   -5.52 KCAL/MOL
REMARK 923 INTER-LIGAND FREE ENERGY PREDICTED BY IDOCK:   -5.10 KCAL/MOL
REMARK 924 INTRA-LIGAND FREE ENERGY PREDICTED BY IDOCK:   -0.42 KCAL/MOL
REMARK 927      BINDING AFFINITY PREDICTED BY RF-SCORE:    0.00 PKD
ROOT
HETATM    1  C   UNL     1     -11.295   9.801  70.267  1.00  0.00    -0.333 C  
HETATM    2  C   UNL     1     -12.688  10.274  70.718  1.00  0.00    -0.434 C  
HETATM    3  C   UNL     1     -13.166   9.662  72.050  1.00  0.00    -0.546 C  
HETATM    4  C   UNL     1     -12.196   8.660  72.678  1.00  0.00    -0.274 C  
HETATM    5  C   UNL     1     -11.649   7.733  71.626  1.00  0.00    -0.304 A  
HETATM    6  C   UNL     1     -11.213   8.302  70.416  1.00  0.00    -0.222 A  
HETATM    7  C   UNL     1     -10.651   7.489  69.424  1.00  0.00    -0.225 A  
HETATM    8  C   UNL     1     -10.541   6.108  69.636  1.00  0.00    -0.347 A  
HETATM    9  C   UNL     1     -10.013   8.092  68.220  1.00  0.00    -0.185 C  
HETATM   10  N   UNL     1      -9.895   9.477  68.241  1.00  0.00    -0.151 N  
HETATM   11  C   UNL     1     -10.961   5.547  70.844  1.00  0.00    -0.194 A  
HETATM   12  O   UNL     1      -9.521   7.362  67.369  1.00  0.00    -0.135 OA 
HETATM   13  C   UNL     1     -11.508   6.358  71.840  1.00  0.00    -0.352 A  
HETATM   14  C   UNL     1     -11.004  10.224  68.825  1.00  0.00    -0.243 C  
ENDROOT
BRANCH  10  15
HETATM   15  C   UNL     1      -8.617  10.157  67.934  1.00  0.00    -0.118 C  
HETATM   16  C   UNL     1      -8.383  11.518  68.651  1.00  0.00    -0.123 C  
HETATM   17  N   UNL     1      -8.057  12.618  67.701  1.00  0.00    -0.160 NA 
HETATM   18  C   UNL     1      -6.828  12.277  66.959  1.00  0.00    -0.031 C  
HETATM   19  C   UNL     1      -6.956  10.929  66.229  1.00  0.00    -0.120 C  
HETATM   20  C   UNL     1      -8.390  10.376  66.409  1.00  0.00    -0.139 C  
HETATM   21  C   UNL     1      -9.317  11.480  65.867  1.00  0.00    -0.242 C  
HETATM   22  C   UNL     1      -9.168  12.745  66.729  1.00  0.00    -0.225 C  
ENDBRANCH  10  15
TORSDOF 1
ENDMDL
MODEL       66
REMARK 921   NORMALIZED FREE ENERGY PREDICTED BY IDOCK:   -4.93 KCAL/MOL
REMARK 922        TOTAL FREE ENERGY PREDICTED BY IDOCK:   -5.52 KCAL/MOL
REMARK 923 INTER-LIGAND FREE ENERGY PREDICTED BY IDOCK:   -5.24 KCAL/MOL
REMARK 924 INTRA-LIGAND FREE ENERGY PREDICTED BY IDOCK:   -0.28 KCAL/MOL
REMARK 927      BINDING AFFINITY PREDICTED BY RF-SCORE:    0.00 PKD
ROOT
HETATM    1  C   UNL     1      -9.676  10.860  68.286  1.00  0.00    -0.171 C  
HETATM    2  C   UNL     1     -10.190  10.240  69.597  1.00  0.00    -0.268 C  
HETATM    3  C   UNL     1      -9.172   9.329  70.311  1.00  0.00    -0.273 C  
HETATM    4  C   UNL     1      -7.840   9.162  69.578  1.00  0.00    -0.082 C  
HETATM    5  C   UNL     1      -8.076   8.948  68.107  1.00  0.00    -0.106 A  
HETATM    6  C   UNL     1      -9.005   9.788  67.465  1.00  0.00    -0.138 A  
HETATM    7  C   UNL     1      -9.225   9.662  66.088  1.00  0.00    -0.222 A  
HETATM    8  C   UNL     1      -8.530   8.688  65.358  1.00  0.00    -0.189 A  
HETATM    9  C   UNL     1     -10.058  10.659  65.358  1.00  0.00    -0.291 C  
HETATM   10  N   UNL     1     -10.455  11.762  66.106  1.00  0.00    -0.237 N  
HETATM   11  C   UNL     1      -7.598   7.866  65.994  1.00  0.00    -0.086 A  
HETATM   12  O   UNL     1     -10.231  10.534  64.153  1.00  0.00    -0.342 OA 
HETATM   13  C   UNL     1      -7.365   8.000  67.364  1.00  0.00    -0.089 A  
HETATM   14  C   UNL     1     -10.813  11.519  67.499  1.00  0.00    -0.237 C  
ENDROOT
BRANCH  10  15
HETATM   15  C   UNL     1     -10.279  13.146  65.611  1.00  0.00    -0.286 C  
HETATM   16  C   UNL     1      -9.607  14.141  66.600  1.00  0.00    -0.289 C  
HETATM   17  N   UNL     1     -10.417  15.372  66.814  1.00  0.00    -0.293 NA 
HETATM   18  C   UNL     1     -10.602  16.068  65.526  1.00  0.00    -0.398 C  
HETATM   19  C   UNL     1     -11.246  15.152  64.470  1.00  0.00    -0.283 C  
HETATM   20  C   UNL     1     -11.606  13.791  65.113  1.00  0.00    -0.341 C  
HETATM   21  C   UNL     1     -12.528  14.138  66.297  1.00  0.00    -0.395 C  
HETATM   22  C   UNL     1     -11.750  14.976  67.326  1.00  0.00    -0.223 C  
ENDBRANCH  10  15
TORSDOF 1
ENDMDL
MODEL       67
REMARK 921   NORMALIZED FREE ENERGY PREDICTED BY IDOCK:   -4.93 KCAL/MOL
REMARK 922        TOTAL FREE ENERGY PREDICTED BY IDOCK:   -5.52 KCAL/MOL
REMARK 923 INTER-LIGAND FREE ENERGY PREDICTED BY IDOCK:   -5.20 KCAL/MOL
REMARK 924 INTRA-LIGAND FREE ENERGY PREDICTED BY IDOCK:   -0.32 KCAL/MOL
REMARK 927      BINDING AFFINITY PREDICTED BY RF-SCORE:    0.00 PKD
ROOT
HETATM    1  C   UNL     1     -10.543   7.439  70.440  1.00  0.00    -0.238 C  
HETATM    2  C   UNL     1     -10.187   7.202  71.918  1.00  0.00    -0.208 C  
HETATM    3  C   UNL     1     -11.210   7.776  72.918  1.00  0.00    -0.434 C  
HETATM    4  C   UNL     1     -12.384   8.518  72.276  1.00  0.00    -0.450 C  
HETATM    5  C   UNL     1     -11.894   9.412  71.169  1.00  0.00    -0.413 A  
HETATM    6  C   UNL     1     -10.962   8.877  70.260  1.00  0.00    -0.266 A  
HETATM    7  C   UNL     1     -10.513   9.650  69.184  1.00  0.00    -0.230 A  
HETATM    8  C   UNL     1     -10.980  10.962  69.026  1.00  0.00    -0.285 A  
HETATM    9  C   UNL     1      -9.677   9.044  68.109  1.00  0.00    -0.152 C  
HETATM   10  N   UNL     1      -9.518   7.665  68.189  1.00  0.00    -0.144 N  
HETATM   11  C   UNL     1     -11.916  11.486  69.920  1.00  0.00    -0.426 A  
HETATM   12  O   UNL     1      -9.301   9.737  67.173  1.00  0.00    -0.139 OA 
HETATM   13  C   UNL     1     -12.378  10.711  70.985  1.00  0.00    -0.507 A  
HETATM   14  C   UNL     1      -9.366   7.094  69.523  1.00  0.00    -0.148 C  
ENDROOT
BRANCH  10  15
HETATM   15  C   UNL     1      -9.749   6.783  67.022  1.00  0.00    -0.156 C  
HETATM   16  C   UNL     1     -10.594   5.506  67.293  1.00  0.00    -0.219 C  
HETATM   17  N   UNL     1      -9.909   4.259  66.851  1.00  0.00    -0.213 NA 
HETATM   18  C   UNL     1      -9.647   4.332  65.401  1.00  0.00    -0.187 C  
HETATM   19  C   UNL     1      -8.828   5.582  65.030  1.00  0.00    -0.052 C  
HETATM   20  C   UNL     1      -8.432   6.343  66.317  1.00  0.00    -0.131 C  
HETATM   21  C   UNL     1      -7.667   5.315  67.172  1.00  0.00    -0.096 C  
HETATM   22  C   UNL     1      -8.609   4.162  67.556  1.00  0.00    -0.100 C  
ENDBRANCH  10  15
TORSDOF 1
ENDMDL
MODEL       68
REMARK 921   NORMALIZED FREE ENERGY PREDICTED BY IDOCK:   -4.92 KCAL/MOL
REMARK 922        TOTAL FREE ENERGY PREDICTED BY IDOCK:   -5.51 KCAL/MOL
REMARK 923 INTER-LIGAND FREE ENERGY PREDICTED BY IDOCK:   -5.25 KCAL/MOL
REMARK 924 INTRA-LIGAND FREE ENERGY PREDICTED BY IDOCK:   -0.26 KCAL/MOL
REMARK 927      BINDING AFFINITY PREDICTED BY RF-SCORE:    0.00 PKD
ROOT
HETATM    1  C   UNL     1     -11.296   9.896  70.284  1.00  0.00    -0.357 C  
HETATM    2  C   UNL     1     -12.559  10.101  71.139  1.00  0.00    -0.486 C  
HETATM    3  C   UNL     1     -12.678   9.140  72.338  1.00  0.00    -0.410 C  
HETATM    4  C   UNL     1     -11.544   8.119  72.453  1.00  0.00    -0.463 C  
HETATM    5  C   UNL     1     -11.227   7.535  71.103  1.00  0.00    -0.277 A  
HETATM    6  C   UNL     1     -11.118   8.422  70.016  1.00  0.00    -0.148 A  
HETATM    7  C   UNL     1     -10.778   7.935  68.749  1.00  0.00    -0.082 A  
HETATM    8  C   UNL     1     -10.563   6.563  68.565  1.00  0.00    -0.291 A  
HETATM    9  C   UNL     1     -10.473   8.873  67.632  1.00  0.00    -0.255 C  
HETATM   10  N   UNL     1     -10.412  10.216  67.985  1.00  0.00    -0.194 N  
HETATM   11  C   UNL     1     -10.657   5.686  69.648  1.00  0.00    -0.401 A  
HETATM   12  O   UNL     1     -10.170   8.426  66.533  1.00  0.00    -0.293 OA 
HETATM   13  C   UNL     1     -10.981   6.171  70.916  1.00  0.00    -0.359 A  
HETATM   14  C   UNL     1     -11.378  10.683  68.973  1.00  0.00    -0.277 C  
ENDROOT
BRANCH  10  15
HETATM   15  C   UNL     1      -9.274  11.077  67.590  1.00  0.00    -0.149 C  
HETATM   16  C   UNL     1      -8.557  10.688  66.266  1.00  0.00    -0.153 C  
HETATM   17  N   UNL     1      -7.087  10.516  66.438  1.00  0.00    -0.121 NA 
HETATM   18  C   UNL     1      -6.498  11.780  66.920  1.00  0.00    -0.121 C  
HETATM   19  C   UNL     1      -7.161  12.258  68.224  1.00  0.00    -0.101 C  
HETATM   20  C   UNL     1      -8.189  11.204  68.700  1.00  0.00    -0.152 C  
HETATM   21  C   UNL     1      -7.388   9.896  68.840  1.00  0.00    -0.078 C  
HETATM   22  C   UNL     1      -6.853   9.471  67.462  1.00  0.00    -0.083 C  
ENDBRANCH  10  15
TORSDOF 1
ENDMDL
MODEL       69
REMARK 921   NORMALIZED FREE ENERGY PREDICTED BY IDOCK:   -4.91 KCAL/MOL
REMARK 922        TOTAL FREE ENERGY PREDICTED BY IDOCK:   -5.49 KCAL/MOL
REMARK 923 INTER-LIGAND FREE ENERGY PREDICTED BY IDOCK:   -5.12 KCAL/MOL
REMARK 924 INTRA-LIGAND FREE ENERGY PREDICTED BY IDOCK:   -0.37 KCAL/MOL
REMARK 927      BINDING AFFINITY PREDICTED BY RF-SCORE:    0.00 PKD
ROOT
HETATM    1  C   UNL     1      -9.124   6.872  66.840  1.00  0.00    -0.152 C  
HETATM    2  C   UNL     1      -9.160   5.623  65.942  1.00  0.00    -0.158 C  
HETATM    3  C   UNL     1      -8.178   5.664  64.756  1.00  0.00    -0.134 C  
HETATM    4  C   UNL     1      -7.362   6.953  64.646  1.00  0.00    -0.090 C  
HETATM    5  C   UNL     1      -8.242   8.151  64.881  1.00  0.00    -0.150 A  
HETATM    6  C   UNL     1      -9.133   8.104  65.969  1.00  0.00    -0.218 A  
HETATM    7  C   UNL     1      -9.939   9.211  66.259  1.00  0.00    -0.352 A  
HETATM    8  C   UNL     1      -9.867  10.355  65.455  1.00  0.00    -0.347 A  
HETATM    9  C   UNL     1     -10.747   9.254  67.511  1.00  0.00    -0.203 C  
HETATM   10  N   UNL     1     -10.522   8.208  68.399  1.00  0.00    -0.193 N  
HETATM   11  C   UNL     1      -8.971  10.406  64.385  1.00  0.00    -0.247 A  
HETATM   12  O   UNL     1     -11.440  10.235  67.749  1.00  0.00    -0.351 OA 
HETATM   13  C   UNL     1      -8.155   9.309  64.102  1.00  0.00    -0.145 A  
HETATM   14  C   UNL     1     -10.300   6.887  67.820  1.00  0.00    -0.203 C  
ENDROOT
BRANCH  10  15
HETATM   15  C   UNL     1     -10.257   8.447  69.836  1.00  0.00    -0.201 C  
HETATM   16  C   UNL     1      -9.155   7.559  70.481  1.00  0.00    -0.156 C  
HETATM   17  N   UNL     1      -9.630   6.847  71.700  1.00  0.00    -0.161 NA 
HETATM   18  C   UNL     1     -10.064   7.836  72.706  1.00  0.00    -0.282 C  
HETATM   19  C   UNL     1     -11.147   8.778  72.151  1.00  0.00    -0.406 C  
HETATM   20  C   UNL     1     -11.535   8.337  70.720  1.00  0.00    -0.268 C  
HETATM   21  C   UNL     1     -11.984   6.870  70.860  1.00  0.00    -0.430 C  
HETATM   22  C   UNL     1     -10.798   6.012  71.332  1.00  0.00    -0.270 C  
ENDBRANCH  10  15
TORSDOF 1
ENDMDL
MODEL       70
REMARK 921   NORMALIZED FREE ENERGY PREDICTED BY IDOCK:   -4.91 KCAL/MOL
REMARK 922        TOTAL FREE ENERGY PREDICTED BY IDOCK:   -5.49 KCAL/MOL
REMARK 923 INTER-LIGAND FREE ENERGY PREDICTED BY IDOCK:   -5.47 KCAL/MOL
REMARK 924 INTRA-LIGAND FREE ENERGY PREDICTED BY IDOCK:   -0.02 KCAL/MOL
REMARK 927      BINDING AFFINITY PREDICTED BY RF-SCORE:    0.00 PKD
ROOT
HETATM    1  C   UNL     1      -9.264  12.453  67.612  1.00  0.00    -0.185 C  
HETATM    2  C   UNL     1      -9.342  10.982  68.055  1.00  0.00    -0.163 C  
HETATM    3  C   UNL     1      -9.045   9.965  66.935  1.00  0.00    -0.162 C  
HETATM    4  C   UNL     1      -8.764  10.586  65.566  1.00  0.00    -0.197 C  
HETATM    5  C   UNL     1      -9.747  11.690  65.281  1.00  0.00    -0.255 A  
HETATM    6  C   UNL     1     -10.008  12.614  66.309  1.00  0.00    -0.266 A  
HETATM    7  C   UNL     1     -10.876  13.687  66.079  1.00  0.00    -0.275 A  
HETATM    8  C   UNL     1     -11.496  13.826  64.830  1.00  0.00    -0.351 A  
HETATM    9  C   UNL     1     -11.019  14.777  67.085  1.00  0.00    -0.320 C  
HETATM   10  N   UNL     1     -10.138  14.714  68.159  1.00  0.00    -0.220 N  
HETATM   11  C   UNL     1     -11.224  12.916  63.807  1.00  0.00    -0.452 A  
HETATM   12  O   UNL     1     -11.779  15.710  66.861  1.00  0.00     0.070 OA 
HETATM   13  C   UNL     1     -10.346  11.854  64.028  1.00  0.00    -0.403 A  
HETATM   14  C   UNL     1      -9.833  13.387  68.684  1.00  0.00    -0.112 C  
ENDROOT
BRANCH  10  15
HETATM   15  C   UNL     1      -9.342  15.887  68.587  1.00  0.00    -0.212 C  
HETATM   16  C   UNL     1     -10.126  17.221  68.737  1.00  0.00    -0.337 C  
HETATM   17  N   UNL     1      -9.520  18.335  67.957  1.00  0.00    -0.281 NA 
HETATM   18  C   UNL     1      -8.139  18.565  68.423  1.00  0.00    -0.323 C  
HETATM   19  C   UNL     1      -7.285  17.288  68.330  1.00  0.00    -0.220 C  
HETATM   20  C   UNL     1      -8.111  16.158  67.671  1.00  0.00    -0.163 C  
HETATM   21  C   UNL     1      -8.552  16.725  66.309  1.00  0.00    -0.340 C  
HETATM   22  C   UNL     1      -9.471  17.939  66.530  1.00  0.00    -0.299 C  
ENDBRANCH  10  15
TORSDOF 1
ENDMDL
MODEL       71
REMARK 921   NORMALIZED FREE ENERGY PREDICTED BY IDOCK:   -4.90 KCAL/MOL
REMARK 922        TOTAL FREE ENERGY PREDICTED BY IDOCK:   -5.48 KCAL/MOL
REMARK 923 INTER-LIGAND FREE ENERGY PREDICTED BY IDOCK:   -5.08 KCAL/MOL
REMARK 924 INTRA-LIGAND FREE ENERGY PREDICTED BY IDOCK:   -0.41 KCAL/MOL
REMARK 927      BINDING AFFINITY PREDICTED BY RF-SCORE:    0.00 PKD
ROOT
HETATM    1  C   UNL     1     -10.380  10.034  69.394  1.00  0.00    -0.245 C  
HETATM    2  C   UNL     1     -10.991  10.963  68.332  1.00  0.00    -0.288 C  
HETATM    3  C   UNL     1     -11.900  12.069  68.903  1.00  0.00    -0.356 C  
HETATM    4  C   UNL     1     -12.074  12.032  70.423  1.00  0.00    -0.407 C  
HETATM    5  C   UNL     1     -12.296  10.619  70.889  1.00  0.00    -0.502 A  
HETATM    6  C   UNL     1     -11.459   9.618  70.364  1.00  0.00    -0.325 A  
HETATM    7  C   UNL     1     -11.592   8.295  70.801  1.00  0.00    -0.250 A  
HETATM    8  C   UNL     1     -12.571   7.971  71.750  1.00  0.00    -0.353 A  
HETATM    9  C   UNL     1     -10.597   7.260  70.403  1.00  0.00    -0.226 C  
HETATM   10  N   UNL     1      -9.489   7.736  69.711  1.00  0.00    -0.160 N  
HETATM   11  C   UNL     1     -13.391   8.968  72.281  1.00  0.00    -0.523 A  
HETATM   12  O   UNL     1     -10.728   6.110  70.803  1.00  0.00    -0.237 OA 
HETATM   13  C   UNL     1     -13.250  10.291  71.858  1.00  0.00    -0.550 A  
HETATM   14  C   UNL     1      -9.723   8.809  68.750  1.00  0.00    -0.165 C  
ENDROOT
BRANCH  10  15
HETATM   15  C   UNL     1      -8.108   7.372  70.101  1.00  0.00    -0.131 C  
HETATM   16  C   UNL     1      -7.039   8.488  69.935  1.00  0.00    -0.051 C  
HETATM   17  N   UNL     1      -5.870   8.049  69.122  1.00  0.00    -0.034 NA 
HETATM   18  C   UNL     1      -5.225   6.894  69.776  1.00  0.00    -0.015 C  
HETATM   19  C   UNL     1      -6.215   5.738  70.003  1.00  0.00    -0.027 C  
HETATM   20  C   UNL     1      -7.584   6.097  69.376  1.00  0.00    -0.098 C  
HETATM   21  C   UNL     1      -7.282   6.391  67.894  1.00  0.00    -0.087 C  
HETATM   22  C   UNL     1      -6.359   7.618  67.791  1.00  0.00    -0.050 C  
ENDBRANCH  10  15
TORSDOF 1
ENDMDL
MODEL       72
REMARK 921   NORMALIZED FREE ENERGY PREDICTED BY IDOCK:   -4.90 KCAL/MOL
REMARK 922        TOTAL FREE ENERGY PREDICTED BY IDOCK:   -5.48 KCAL/MOL
REMARK 923 INTER-LIGAND FREE ENERGY PREDICTED BY IDOCK:   -5.28 KCAL/MOL
REMARK 924 INTRA-LIGAND FREE ENERGY PREDICTED BY IDOCK:   -0.20 KCAL/MOL
REMARK 927      BINDING AFFINITY PREDICTED BY RF-SCORE:    0.00 PKD
ROOT
HETATM    1  C   UNL     1     -11.118  10.762  68.191  1.00  0.00    -0.337 C  
HETATM    2  C   UNL     1     -11.630  12.022  67.472  1.00  0.00    -0.401 C  
HETATM    3  C   UNL     1     -11.328  12.060  65.962  1.00  0.00    -0.398 C  
HETATM    4  C   UNL     1     -10.536  10.860  65.438  1.00  0.00    -0.291 C  
HETATM    5  C   UNL     1      -9.411  10.525  66.380  1.00  0.00    -0.197 A  
HETATM    6  C   UNL     1      -9.699  10.491  67.757  1.00  0.00    -0.180 A  
HETATM    7  C   UNL     1      -8.699  10.137  68.670  1.00  0.00    -0.128 A  
HETATM    8  C   UNL     1      -7.411   9.835  68.210  1.00  0.00    -0.079 A  
HETATM    9  C   UNL     1      -9.028   9.911  70.106  1.00  0.00    -0.114 C  
HETATM   10  N   UNL     1     -10.384   9.934  70.415  1.00  0.00    -0.282 N  
HETATM   11  C   UNL     1      -7.131   9.856  66.842  1.00  0.00    -0.090 A  
HETATM   12  O   UNL     1      -8.140   9.596  70.887  1.00  0.00    -0.293 OA 
HETATM   13  C   UNL     1      -8.130  10.193  65.928  1.00  0.00    -0.136 A  
HETATM   14  C   UNL     1     -11.204  10.914  69.712  1.00  0.00    -0.281 C  
ENDROOT
BRANCH  10  15
HETATM   15  C   UNL     1     -11.022   8.860  71.211  1.00  0.00    -0.293 C  
HETATM   16  C   UNL     1     -10.167   8.277  72.371  1.00  0.00    -0.327 C  
HETATM   17  N   UNL     1     -10.041   6.794  72.303  1.00  0.00    -0.174 NA 
HETATM   18  C   UNL     1     -11.383   6.184  72.375  1.00  0.00    -0.296 C  
HETATM   19  C   UNL     1     -12.313   6.718  71.271  1.00  0.00    -0.395 C  
HETATM   20  C   UNL     1     -11.522   7.669  70.341  1.00  0.00    -0.192 C  
HETATM   21  C   UNL     1     -10.339   6.831  69.822  1.00  0.00    -0.226 C  
HETATM   22  C   UNL     1      -9.434   6.434  71.000  1.00  0.00    -0.171 C  
ENDBRANCH  10  15
TORSDOF 1
ENDMDL
MODEL       73
REMARK 921   NORMALIZED FREE ENERGY PREDICTED BY IDOCK:   -4.90 KCAL/MOL
REMARK 922        TOTAL FREE ENERGY PREDICTED BY IDOCK:   -5.48 KCAL/MOL
REMARK 923 INTER-LIGAND FREE ENERGY PREDICTED BY IDOCK:   -5.21 KCAL/MOL
REMARK 924 INTRA-LIGAND FREE ENERGY PREDICTED BY IDOCK:   -0.27 KCAL/MOL
REMARK 927      BINDING AFFINITY PREDICTED BY RF-SCORE:    0.00 PKD
ROOT
HETATM    1  C   UNL     1     -11.271   9.911  69.834  1.00  0.00    -0.298 C  
HETATM    2  C   UNL     1     -11.900  11.181  69.235  1.00  0.00    -0.422 C  
HETATM    3  C   UNL     1     -11.583  11.404  67.743  1.00  0.00    -0.325 C  
HETATM    4  C   UNL     1     -10.666  10.350  67.120  1.00  0.00    -0.316 C  
HETATM    5  C   UNL     1      -9.525  10.035  68.049  1.00  0.00    -0.150 A  
HETATM    6  C   UNL     1      -9.826   9.830  69.408  1.00  0.00    -0.217 A  
HETATM    7  C   UNL     1      -8.808   9.486  70.305  1.00  0.00    -0.281 A  
HETATM    8  C   UNL     1      -7.489   9.364  69.847  1.00  0.00    -0.100 A  
HETATM    9  C   UNL     1      -9.131   9.082  71.702  1.00  0.00    -0.108 C  
HETATM   10  N   UNL     1     -10.486   8.937  71.980  1.00  0.00    -0.340 N  
HETATM   11  C   UNL     1      -7.195   9.553  68.495  1.00  0.00    -0.071 A  
HETATM   12  O   UNL     1      -8.226   8.778  72.468  1.00  0.00    -0.387 OA 
HETATM   13  C   UNL     1      -8.211   9.880  67.596  1.00  0.00    -0.114 A  
HETATM   14  C   UNL     1     -11.393   9.897  71.361  1.00  0.00    -0.274 C  
ENDROOT
BRANCH  10  15
HETATM   15  C   UNL     1     -11.021   7.729  72.648  1.00  0.00    -0.364 C  
HETATM   16  C   UNL     1      -9.999   6.905  73.482  1.00  0.00    -0.262 C  
HETATM   17  N   UNL     1      -9.964   5.468  73.092  1.00  0.00    -0.170 NA 
HETATM   18  C   UNL     1     -11.300   4.873  73.292  1.00  0.00    -0.327 C  
HETATM   19  C   UNL     1     -12.388   5.637  72.517  1.00  0.00     0.161 C  
HETATM   20  C   UNL     1     -11.734   6.751  71.666  1.00  0.00    -0.357 C  
HETATM   21  C   UNL     1     -10.710   6.026  70.772  1.00  0.00    -0.340 C  
HETATM   22  C   UNL     1      -9.626   5.380  71.652  1.00  0.00    -0.150 C  
ENDBRANCH  10  15
TORSDOF 1
ENDMDL
MODEL       74
REMARK 921   NORMALIZED FREE ENERGY PREDICTED BY IDOCK:   -4.85 KCAL/MOL
REMARK 922        TOTAL FREE ENERGY PREDICTED BY IDOCK:   -5.43 KCAL/MOL
REMARK 923 INTER-LIGAND FREE ENERGY PREDICTED BY IDOCK:   -5.01 KCAL/MOL
REMARK 924 INTRA-LIGAND FREE ENERGY PREDICTED BY IDOCK:   -0.42 KCAL/MOL
REMARK 927      BINDING AFFINITY PREDICTED BY RF-SCORE:    0.00 PKD
ROOT
HETATM    1  C   UNL     1      -9.424  13.612  68.296  1.00  0.00    -0.213 C  
HETATM    2  C   UNL     1      -8.416  14.572  68.950  1.00  0.00    -0.110 C  
HETATM    3  C   UNL     1      -8.889  16.037  69.025  1.00  0.00    -0.244 C  
HETATM    4  C   UNL     1     -10.261  16.298  68.400  1.00  0.00    -0.249 C  
HETATM    5  C   UNL     1     -10.382  15.579  67.084  1.00  0.00    -0.272 A  
HETATM    6  C   UNL     1      -9.949  14.241  67.028  1.00  0.00    -0.258 A  
HETATM    7  C   UNL     1     -10.085  13.512  65.841  1.00  0.00    -0.311 A  
HETATM    8  C   UNL     1     -10.635  14.124  64.707  1.00  0.00    -0.439 A  
HETATM    9  C   UNL     1      -9.810  12.047  65.813  1.00  0.00    -0.242 C  
HETATM   10  N   UNL     1      -9.565  11.466  67.052  1.00  0.00    -0.175 N  
HETATM   11  C   UNL     1     -11.077  15.447  64.769  1.00  0.00    -0.416 A  
HETATM   12  O   UNL     1      -9.942  11.428  64.766  1.00  0.00    -0.241 OA 
HETATM   13  C   UNL     1     -10.958  16.171  65.956  1.00  0.00    -0.056 A  
HETATM   14  C   UNL     1      -8.788  12.250  68.006  1.00  0.00    -0.182 C  
ENDROOT
BRANCH  10  15
HETATM   15  C   UNL     1     -10.266  10.237  67.491  1.00  0.00    -0.210 C  
HETATM   16  C   UNL     1     -10.451  10.073  69.026  1.00  0.00    -0.214 C  
HETATM   17  N   UNL     1      -9.931   8.772  69.532  1.00  0.00    -0.190 NA 
HETATM   18  C   UNL     1     -10.647   7.666  68.866  1.00  0.00    -0.159 C  
HETATM   19  C   UNL     1     -10.537   7.755  67.334  1.00  0.00    -0.345 C  
HETATM   20  C   UNL     1      -9.611   8.933  66.947  1.00  0.00    -0.248 C  
HETATM   21  C   UNL     1      -8.277   8.646  67.662  1.00  0.00    -0.110 C  
HETATM   22  C   UNL     1      -8.494   8.673  69.185  1.00  0.00    -0.124 C  
ENDBRANCH  10  15
TORSDOF 1
ENDMDL
MODEL       75
REMARK 921   NORMALIZED FREE ENERGY PREDICTED BY IDOCK:   -4.76 KCAL/MOL
REMARK 922        TOTAL FREE ENERGY PREDICTED BY IDOCK:   -5.34 KCAL/MOL
REMARK 923 INTER-LIGAND FREE ENERGY PREDICTED BY IDOCK:   -4.92 KCAL/MOL
REMARK 924 INTRA-LIGAND FREE ENERGY PREDICTED BY IDOCK:   -0.42 KCAL/MOL
REMARK 927      BINDING AFFINITY PREDICTED BY RF-SCORE:    0.00 PKD
ROOT
HETATM    1  C   UNL     1      -8.624  10.498  68.859  1.00  0.00    -0.153 C  
HETATM    2  C   UNL     1      -7.303  10.631  69.635  1.00  0.00    -0.133 C  
HETATM    3  C   UNL     1      -6.629   9.288  69.977  1.00  0.00    -0.051 C  
HETATM    4  C   UNL     1      -7.405   8.050  69.524  1.00  0.00    -0.086 C  
HETATM    5  C   UNL     1      -8.869   8.209  69.833  1.00  0.00    -0.139 A  
HETATM    6  C   UNL     1      -9.475   9.438  69.514  1.00  0.00    -0.187 A  
HETATM    7  C   UNL     1     -10.845   9.621  69.737  1.00  0.00    -0.274 A  
HETATM    8  C   UNL     1     -11.604   8.582  70.292  1.00  0.00     0.004 A  
HETATM    9  C   UNL     1     -11.540  10.839  69.234  1.00  0.00    -0.305 C  
HETATM   10  N   UNL     1     -10.771  11.671  68.428  1.00  0.00    -0.206 N  
HETATM   11  C   UNL     1     -11.004   7.358  70.595  1.00  0.00    -0.274 A  
HETATM   12  O   UNL     1     -12.740  10.975  69.433  1.00  0.00    -0.279 OA 
HETATM   13  C   UNL     1      -9.641   7.169  70.359  1.00  0.00    -0.169 A  
HETATM   14  C   UNL     1      -9.369  11.835  68.796  1.00  0.00    -0.009 C  
ENDROOT
BRANCH  10  15
HETATM   15  C   UNL     1     -11.261  12.161  67.119  1.00  0.00    -0.314 C  
HETATM   16  C   UNL     1     -10.170  12.435  66.045  1.00  0.00    -0.245 C  
HETATM   17  N   UNL     1     -10.255  13.811  65.479  1.00  0.00    -0.313 NA 
HETATM   18  C   UNL     1     -11.575  13.999  64.846  1.00  0.00    -0.367 C  
HETATM   19  C   UNL     1     -12.725  13.728  65.831  1.00  0.00    -0.452 C  
HETATM   20  C   UNL     1     -12.147  13.437  67.236  1.00  0.00    -0.352 C  
HETATM   21  C   UNL     1     -11.293  14.670  67.584  1.00  0.00    -0.350 C  
HETATM   22  C   UNL     1     -10.126  14.785  66.588  1.00  0.00    -0.264 C  
ENDBRANCH  10  15
TORSDOF 1
ENDMDL
MODEL       76
REMARK 921   NORMALIZED FREE ENERGY PREDICTED BY IDOCK:   -4.76 KCAL/MOL
REMARK 922        TOTAL FREE ENERGY PREDICTED BY IDOCK:   -5.33 KCAL/MOL
REMARK 923 INTER-LIGAND FREE ENERGY PREDICTED BY IDOCK:   -5.06 KCAL/MOL
REMARK 924 INTRA-LIGAND FREE ENERGY PREDICTED BY IDOCK:   -0.27 KCAL/MOL
REMARK 927      BINDING AFFINITY PREDICTED BY RF-SCORE:    0.00 PKD
ROOT
HETATM    1  C   UNL     1      -9.881  10.693  68.481  1.00  0.00    -0.175 C  
HETATM    2  C   UNL     1      -9.987   9.422  69.341  1.00  0.00    -0.189 C  
HETATM    3  C   UNL     1      -8.746   8.510  69.282  1.00  0.00    -0.133 C  
HETATM    4  C   UNL     1      -7.636   9.000  68.350  1.00  0.00    -0.090 C  
HETATM    5  C   UNL     1      -8.221   9.487  67.052  1.00  0.00    -0.113 A  
HETATM    6  C   UNL     1      -9.352  10.322  67.117  1.00  0.00    -0.175 A  
HETATM    7  C   UNL     1      -9.905  10.841  65.941  1.00  0.00    -0.290 A  
HETATM    8  C   UNL     1      -9.339  10.514  64.702  1.00  0.00    -0.294 A  
HETATM    9  C   UNL     1     -10.980  11.872  65.998  1.00  0.00    -0.309 C  
HETATM   10  N   UNL     1     -11.267  12.360  67.268  1.00  0.00    -0.284 N  
HETATM   11  C   UNL     1      -8.207   9.698  64.641  1.00  0.00    -0.149 A  
HETATM   12  O   UNL     1     -11.445  12.318  64.957  1.00  0.00    -0.320 OA 
HETATM   13  C   UNL     1      -7.645   9.192  65.813  1.00  0.00    -0.091 A  
HETATM   14  C   UNL     1     -11.234  11.402  68.367  1.00  0.00    -0.263 C  
ENDROOT
BRANCH  10  15
HETATM   15  C   UNL     1     -11.344  13.813  67.547  1.00  0.00    -0.309 C  
HETATM   16  C   UNL     1     -11.487  14.736  66.304  1.00  0.00    -0.316 C  
HETATM   17  N   UNL     1     -10.449  15.803  66.258  1.00  0.00    -0.300 NA 
HETATM   18  C   UNL     1     -10.558  16.645  67.465  1.00  0.00    -0.311 C  
HETATM   19  C   UNL     1     -10.447  15.812  68.754  1.00  0.00    -0.228 C  
HETATM   20  C   UNL     1     -10.148  14.337  68.395  1.00  0.00    -0.243 C  
HETATM   21  C   UNL     1      -8.856  14.382  67.558  1.00  0.00    -0.197 C  
HETATM   22  C   UNL     1      -9.114  15.160  66.256  1.00  0.00    -0.278 C  
ENDBRANCH  10  15
TORSDOF 1
ENDMDL
MODEL       77
REMARK 921   NORMALIZED FREE ENERGY PREDICTED BY IDOCK:   -4.74 KCAL/MOL
REMARK 922        TOTAL FREE ENERGY PREDICTED BY IDOCK:   -5.31 KCAL/MOL
REMARK 923 INTER-LIGAND FREE ENERGY PREDICTED BY IDOCK:   -5.21 KCAL/MOL
REMARK 924 INTRA-LIGAND FREE ENERGY PREDICTED BY IDOCK:   -0.10 KCAL/MOL
REMARK 927      BINDING AFFINITY PREDICTED BY RF-SCORE:    0.00 PKD
ROOT
HETATM    1  C   UNL     1     -11.216  13.095  68.584  1.00  0.00    -0.314 C  
HETATM    2  C   UNL     1     -11.562  12.203  67.380  1.00  0.00    -0.410 C  
HETATM    3  C   UNL     1     -10.587  11.030  67.157  1.00  0.00    -0.294 C  
HETATM    4  C   UNL     1      -9.419  10.973  68.143  1.00  0.00    -0.172 C  
HETATM    5  C   UNL     1      -8.842  12.348  68.349  1.00  0.00    -0.129 A  
HETATM    6  C   UNL     1      -9.741  13.411  68.555  1.00  0.00    -0.156 A  
HETATM    7  C   UNL     1      -9.254  14.700  68.799  1.00  0.00    -0.184 A  
HETATM    8  C   UNL     1      -7.872  14.930  68.822  1.00  0.00    -0.149 A  
HETATM    9  C   UNL     1     -10.179  15.796  69.205  1.00  0.00    -0.248 C  
HETATM   10  N   UNL     1     -11.489  15.405  69.455  1.00  0.00    -0.295 N  
HETATM   11  C   UNL     1      -6.981  13.871  68.633  1.00  0.00    -0.108 A  
HETATM   12  O   UNL     1      -9.731  16.914  69.422  1.00  0.00    -0.154 OA 
HETATM   13  C   UNL     1      -7.464  12.582  68.404  1.00  0.00    -0.127 A  
HETATM   14  C   UNL     1     -12.050  14.380  68.583  1.00  0.00    -0.239 C  
ENDROOT
BRANCH  10  15
HETATM   15  C   UNL     1     -12.201  15.803  70.692  1.00  0.00    -0.384 C  
HETATM   16  C   UNL     1     -11.427  15.579  72.022  1.00  0.00    -0.428 C  
HETATM   17  N   UNL     1     -12.204  14.780  73.010  1.00  0.00    -0.272 NA 
HETATM   18  C   UNL     1     -13.462  15.482  73.328  1.00  0.00    -0.409 C  
HETATM   19  C   UNL     1     -14.292  15.768  72.065  1.00  0.00    -0.300 C  
HETATM   20  C   UNL     1     -13.600  15.134  70.835  1.00  0.00    -0.397 C  
HETATM   21  C   UNL     1     -13.463  13.638  71.178  1.00  0.00    -0.118 C  
HETATM   22  C   UNL     1     -12.541  13.473  72.398  1.00  0.00     0.075 C  
ENDBRANCH  10  15
TORSDOF 1
ENDMDL
MODEL       78
REMARK 921   NORMALIZED FREE ENERGY PREDICTED BY IDOCK:   -4.70 KCAL/MOL
REMARK 922        TOTAL FREE ENERGY PREDICTED BY IDOCK:   -5.27 KCAL/MOL
REMARK 923 INTER-LIGAND FREE ENERGY PREDICTED BY IDOCK:   -4.88 KCAL/MOL
REMARK 924 INTRA-LIGAND FREE ENERGY PREDICTED BY IDOCK:   -0.40 KCAL/MOL
REMARK 927      BINDING AFFINITY PREDICTED BY RF-SCORE:    0.00 PKD
ROOT
HETATM    1  C   UNL     1     -10.638  10.746  69.395  1.00  0.00    -0.254 C  
HETATM    2  C   UNL     1     -11.757   9.733  69.692  1.00  0.00     0.049 C  
HETATM    3  C   UNL     1     -11.520   8.875  70.951  1.00  0.00    -0.339 C  
HETATM    4  C   UNL     1     -10.196   9.145  71.669  1.00  0.00    -0.372 C  
HETATM    5  C   UNL     1      -9.077   9.267  70.671  1.00  0.00    -0.309 A  
HETATM    6  C   UNL     1      -9.303  10.055  69.527  1.00  0.00    -0.247 A  
HETATM    7  C   UNL     1      -8.277  10.240  68.593  1.00  0.00    -0.116 A  
HETATM    8  C   UNL     1      -7.034   9.626  68.793  1.00  0.00    -0.066 A  
HETATM    9  C   UNL     1      -8.432  11.218  67.479  1.00  0.00    -0.131 C  
HETATM   10  N   UNL     1      -9.577  12.006  67.536  1.00  0.00    -0.175 N  
HETATM   11  C   UNL     1      -6.807   8.856  69.936  1.00  0.00    -0.046 A  
HETATM   12  O   UNL     1      -7.520  11.370  66.677  1.00  0.00    -0.145 OA 
HETATM   13  C   UNL     1      -7.823   8.683  70.877  1.00  0.00    -0.129 A  
HETATM   14  C   UNL     1     -10.799  11.360  68.002  1.00  0.00    -0.217 C  
ENDROOT
BRANCH  10  15
HETATM   15  C   UNL     1      -9.520  13.478  67.388  1.00  0.00    -0.225 C  
HETATM   16  C   UNL     1     -10.501  14.289  68.282  1.00  0.00    -0.247 C  
HETATM   17  N   UNL     1     -11.347  15.232  67.499  1.00  0.00    -0.324 NA 
HETATM   18  C   UNL     1     -10.480  16.192  66.788  1.00  0.00    -0.294 C  
HETATM   19  C   UNL     1      -9.456  15.479  65.887  1.00  0.00    -0.377 C  
HETATM   20  C   UNL     1      -9.712  13.953  65.917  1.00  0.00    -0.237 C  
HETATM   21  C   UNL     1     -11.176  13.782  65.470  1.00  0.00    -0.303 C  
HETATM   22  C   UNL     1     -12.108  14.455  66.492  1.00  0.00    -0.372 C  
ENDBRANCH  10  15
TORSDOF 1
ENDMDL
MODEL       79
REMARK 921   NORMALIZED FREE ENERGY PREDICTED BY IDOCK:   -4.69 KCAL/MOL
REMARK 922        TOTAL FREE ENERGY PREDICTED BY IDOCK:   -5.26 KCAL/MOL
REMARK 923 INTER-LIGAND FREE ENERGY PREDICTED BY IDOCK:   -4.98 KCAL/MOL
REMARK 924 INTRA-LIGAND FREE ENERGY PREDICTED BY IDOCK:   -0.27 KCAL/MOL
REMARK 927      BINDING AFFINITY PREDICTED BY RF-SCORE:    0.00 PKD
ROOT
HETATM    1  C   UNL     1     -10.957  12.416  66.033  1.00  0.00    -0.324 C  
HETATM    2  C   UNL     1     -12.388  12.981  66.009  1.00  0.00    -0.387 C  
HETATM    3  C   UNL     1     -12.534  14.308  65.237  1.00  0.00    -0.428 C  
HETATM    4  C   UNL     1     -11.228  14.859  64.662  1.00  0.00    -0.349 C  
HETATM    5  C   UNL     1     -10.120  14.744  65.674  1.00  0.00    -0.393 A  
HETATM    6  C   UNL     1      -9.995  13.528  66.370  1.00  0.00    -0.296 A  
HETATM    7  C   UNL     1      -8.952  13.352  67.287  1.00  0.00    -0.221 A  
HETATM    8  C   UNL     1      -8.047  14.396  67.520  1.00  0.00    -0.204 A  
HETATM    9  C   UNL     1      -8.689  12.016  67.891  1.00  0.00    -0.170 C  
HETATM   10  N   UNL     1      -9.443  10.970  67.371  1.00  0.00    -0.159 N  
HETATM   11  C   UNL     1      -8.164  15.597  66.817  1.00  0.00    -0.300 A  
HETATM   12  O   UNL     1      -7.767  11.883  68.685  1.00  0.00    -0.129 OA 
HETATM   13  C   UNL     1      -9.194  15.769  65.891  1.00  0.00    -0.337 A  
HETATM   14  C   UNL     1     -10.832  11.263  67.034  1.00  0.00    -0.280 C  
ENDROOT
BRANCH  10  15
HETATM   15  C   UNL     1      -8.820   9.701  66.931  1.00  0.00    -0.131 C  
HETATM   16  C   UNL     1      -7.296   9.561  67.207  1.00  0.00    -0.087 C  
HETATM   17  N   UNL     1      -6.520   9.219  65.982  1.00  0.00    -0.068 NA 
HETATM   18  C   UNL     1      -7.004   7.934  65.439  1.00  0.00    -0.059 C  
HETATM   19  C   UNL     1      -8.515   7.968  65.152  1.00  0.00    -0.117 C  
HETATM   20  C   UNL     1      -9.064   9.389  65.425  1.00  0.00    -0.280 C  
HETATM   21  C   UNL     1      -8.228  10.321  64.528  1.00  0.00    -0.158 C  
HETATM   22  C   UNL     1      -6.754  10.272  64.967  1.00  0.00    -0.108 C  
ENDBRANCH  10  15
TORSDOF 1
ENDMDL
MODEL       80
REMARK 921   NORMALIZED FREE ENERGY PREDICTED BY IDOCK:   -4.67 KCAL/MOL
REMARK 922        TOTAL FREE ENERGY PREDICTED BY IDOCK:   -5.24 KCAL/MOL
REMARK 923 INTER-LIGAND FREE ENERGY PREDICTED BY IDOCK:   -4.82 KCAL/MOL
REMARK 924 INTRA-LIGAND FREE ENERGY PREDICTED BY IDOCK:   -0.42 KCAL/MOL
REMARK 927      BINDING AFFINITY PREDICTED BY RF-SCORE:    0.00 PKD
ROOT
HETATM    1  C   UNL     1     -10.056  10.880  66.148  1.00  0.00    -0.291 C  
HETATM    2  C   UNL     1     -10.037  12.413  66.022  1.00  0.00    -0.269 C  
HETATM    3  C   UNL     1     -10.554  12.947  64.673  1.00  0.00    -0.384 C  
HETATM    4  C   UNL     1     -10.962  11.865  63.671  1.00  0.00    -0.511 C  
HETATM    5  C   UNL     1      -9.942  10.758  63.653  1.00  0.00    -0.405 A  
HETATM    6  C   UNL     1      -9.479  10.276  64.891  1.00  0.00    -0.337 A  
HETATM    7  C   UNL     1      -8.566   9.215  64.930  1.00  0.00    -0.208 A  
HETATM    8  C   UNL     1      -8.106   8.649  63.734  1.00  0.00    -0.163 A  
HETATM    9  C   UNL     1      -8.210   8.568  66.224  1.00  0.00    -0.109 C  
HETATM   10  N   UNL     1      -8.947   8.994  67.324  1.00  0.00    -0.126 N  
HETATM   11  C   UNL     1      -8.578   9.119  62.507  1.00  0.00    -0.220 A  
HETATM   12  O   UNL     1      -7.416   7.637  66.235  1.00  0.00    -0.080 OA 
HETATM   13  C   UNL     1      -9.500  10.166  62.466  1.00  0.00    -0.269 A  
HETATM   14  C   UNL     1      -9.282  10.412  67.384  1.00  0.00    -0.142 C  
ENDROOT
BRANCH  10  15
HETATM   15  C   UNL     1      -9.587   8.036  68.254  1.00  0.00    -0.146 C  
HETATM   16  C   UNL     1     -10.878   8.536  68.962  1.00  0.00    -0.001 C  
HETATM   17  N   UNL     1     -10.807   8.407  70.444  1.00  0.00    -0.233 NA 
HETATM   18  C   UNL     1     -10.611   6.989  70.804  1.00  0.00    -0.219 C  
HETATM   19  C   UNL     1      -9.361   6.396  70.130  1.00  0.00    -0.164 C  
HETATM   20  C   UNL     1      -8.616   7.506  69.350  1.00  0.00    -0.133 C  
HETATM   21  C   UNL     1      -8.315   8.598  70.394  1.00  0.00    -0.133 C  
HETATM   22  C   UNL     1      -9.637   9.177  70.927  1.00  0.00    -0.279 C  
ENDBRANCH  10  15
TORSDOF 1
ENDMDL
MODEL       81
REMARK 921   NORMALIZED FREE ENERGY PREDICTED BY IDOCK:   -4.67 KCAL/MOL
REMARK 922        TOTAL FREE ENERGY PREDICTED BY IDOCK:   -5.24 KCAL/MOL
REMARK 923 INTER-LIGAND FREE ENERGY PREDICTED BY IDOCK:   -5.13 KCAL/MOL
REMARK 924 INTRA-LIGAND FREE ENERGY PREDICTED BY IDOCK:   -0.11 KCAL/MOL
REMARK 927      BINDING AFFINITY PREDICTED BY RF-SCORE:    0.00 PKD
ROOT
HETATM    1  C   UNL     1      -9.112  12.154  65.671  1.00  0.00     0.132 C  
HETATM    2  C   UNL     1      -9.200  10.658  65.320  1.00  0.00    -0.230 C  
HETATM    3  C   UNL     1      -9.789  10.366  63.927  1.00  0.00    -0.332 C  
HETATM    4  C   UNL     1     -10.225  11.606  63.144  1.00  0.00    -0.396 C  
HETATM    5  C   UNL     1     -10.967  12.557  64.043  1.00  0.00    -0.443 A  
HETATM    6  C   UNL     1     -10.418  12.820  65.312  1.00  0.00    -0.312 A  
HETATM    7  C   UNL     1     -11.043  13.734  66.168  1.00  0.00    -0.296 A  
HETATM    8  C   UNL     1     -12.222  14.373  65.763  1.00  0.00    -0.353 A  
HETATM    9  C   UNL     1     -10.381  14.167  67.431  1.00  0.00    -0.256 C  
HETATM   10  N   UNL     1      -9.076  13.716  67.602  1.00  0.00    -0.197 N  
HETATM   11  C   UNL     1     -12.757  14.123  64.497  1.00  0.00    -0.089 A  
HETATM   12  O   UNL     1     -10.941  14.974  68.161  1.00  0.00    -0.261 OA 
HETATM   13  C   UNL     1     -12.127  13.222  63.636  1.00  0.00    -0.551 A  
HETATM   14  C   UNL     1      -8.783  12.360  67.152  1.00  0.00    -0.195 C  
ENDROOT
BRANCH  10  15
HETATM   15  C   UNL     1      -7.975  14.633  67.974  1.00  0.00    -0.136 C  
HETATM   16  C   UNL     1      -8.300  15.666  69.090  1.00  0.00    -0.251 C  
HETATM   17  N   UNL     1      -8.006  17.068  68.679  1.00  0.00    -0.249 NA 
HETATM   18  C   UNL     1      -6.573  17.191  68.348  1.00  0.00    -0.164 C  
HETATM   19  C   UNL     1      -6.150  16.189  67.259  1.00  0.00    -0.167 C  
HETATM   20  C   UNL     1      -7.391  15.413  66.758  1.00  0.00     0.203 C  
HETATM   21  C   UNL     1      -8.374  16.496  66.274  1.00  0.00    -0.364 C  
HETATM   22  C   UNL     1      -8.795  17.376  67.463  1.00  0.00    -0.224 C  
ENDBRANCH  10  15
TORSDOF 1
ENDMDL
MODEL       82
REMARK 921   NORMALIZED FREE ENERGY PREDICTED BY IDOCK:   -4.65 KCAL/MOL
REMARK 922        TOTAL FREE ENERGY PREDICTED BY IDOCK:   -5.22 KCAL/MOL
REMARK 923 INTER-LIGAND FREE ENERGY PREDICTED BY IDOCK:   -4.87 KCAL/MOL
REMARK 924 INTRA-LIGAND FREE ENERGY PREDICTED BY IDOCK:   -0.35 KCAL/MOL
REMARK 927      BINDING AFFINITY PREDICTED BY RF-SCORE:    0.00 PKD
ROOT
HETATM    1  C   UNL     1      -9.625  14.365  67.472  1.00  0.00    -0.215 C  
HETATM    2  C   UNL     1     -10.760  13.819  66.589  1.00  0.00    -0.277 C  
HETATM    3  C   UNL     1     -11.397  12.514  67.107  1.00  0.00    -0.381 C  
HETATM    4  C   UNL     1     -10.768  11.961  68.387  1.00  0.00    -0.248 C  
HETATM    5  C   UNL     1      -9.267  12.035  68.307  1.00  0.00    -0.192 A  
HETATM    6  C   UNL     1      -8.697  13.232  67.835  1.00  0.00    -0.192 A  
HETATM    7  C   UNL     1      -7.305  13.370  67.787  1.00  0.00    -0.158 A  
HETATM    8  C   UNL     1      -6.485  12.309  68.194  1.00  0.00    -0.062 A  
HETATM    9  C   UNL     1      -6.683  14.687  67.472  1.00  0.00    -0.122 C  
HETATM   10  N   UNL     1      -7.568  15.755  67.384  1.00  0.00    -0.171 N  
HETATM   11  C   UNL     1      -7.054  11.128  68.676  1.00  0.00    -0.090 A  
HETATM   12  O   UNL     1      -5.463  14.788  67.443  1.00  0.00    -0.338 OA 
HETATM   13  C   UNL     1      -8.442  10.993  68.739  1.00  0.00    -0.144 A  
HETATM   14  C   UNL     1      -8.862  15.490  66.765  1.00  0.00    -0.265 C  
ENDROOT
BRANCH  10  15
HETATM   15  C   UNL     1      -7.333  17.027  68.104  1.00  0.00    -0.192 C  
HETATM   16  C   UNL     1      -8.576  17.942  68.291  1.00  0.00    -0.275 C  
HETATM   17  N   UNL     1      -8.351  19.328  67.793  1.00  0.00    -0.292 NA 
HETATM   18  C   UNL     1      -7.224  19.935  68.527  1.00  0.00    -0.296 C  
HETATM   19  C   UNL     1      -5.946  19.086  68.417  1.00  0.00    -0.228 C  
HETATM   20  C   UNL     1      -6.198  17.888  67.472  1.00  0.00    -0.171 C  
HETATM   21  C   UNL     1      -6.659  18.515  66.142  1.00  0.00    -0.267 C  
HETATM   22  C   UNL     1      -7.989  19.258  66.358  1.00  0.00    -0.299 C  
ENDBRANCH  10  15
TORSDOF 1
ENDMDL
MODEL       83
REMARK 921   NORMALIZED FREE ENERGY PREDICTED BY IDOCK:   -4.63 KCAL/MOL
REMARK 922        TOTAL FREE ENERGY PREDICTED BY IDOCK:   -5.20 KCAL/MOL
REMARK 923 INTER-LIGAND FREE ENERGY PREDICTED BY IDOCK:   -4.95 KCAL/MOL
REMARK 924 INTRA-LIGAND FREE ENERGY PREDICTED BY IDOCK:   -0.25 KCAL/MOL
REMARK 927      BINDING AFFINITY PREDICTED BY RF-SCORE:    0.00 PKD
ROOT
HETATM    1  C   UNL     1     -11.509  14.106  70.384  1.00  0.00    -0.149 C  
HETATM    2  C   UNL     1     -12.821  14.248  71.173  1.00  0.00    -0.429 C  
HETATM    3  C   UNL     1     -13.322  12.939  71.814  1.00  0.00    -0.451 C  
HETATM    4  C   UNL     1     -12.454  11.713  71.525  1.00  0.00    -0.238 C  
HETATM    5  C   UNL     1     -12.054  11.686  70.075  1.00  0.00    -0.395 A  
HETATM    6  C   UNL     1     -11.596  12.886  69.500  1.00  0.00    -0.348 A  
HETATM    7  C   UNL     1     -11.166  12.904  68.169  1.00  0.00    -0.305 A  
HETATM    8  C   UNL     1     -11.210  11.728  67.408  1.00  0.00    -0.357 A  
HETATM    9  C   UNL     1     -10.503  14.112  67.600  1.00  0.00    -0.245 C  
HETATM   10  N   UNL     1     -10.225  15.122  68.515  1.00  0.00    -0.226 N  
HETATM   11  C   UNL     1     -11.651  10.535  67.983  1.00  0.00    -0.107 A  
HETATM   12  O   UNL     1     -10.128  14.103  66.435  1.00  0.00    -0.276 OA 
HETATM   13  C   UNL     1     -12.065  10.512  69.316  1.00  0.00    -0.120 A  
HETATM   14  C   UNL     1     -11.220  15.361  69.555  1.00  0.00    -0.285 C  
ENDROOT
BRANCH  10  15
HETATM   15  C   UNL     1      -8.887  15.750  68.603  1.00  0.00    -0.199 C  
HETATM   16  C   UNL     1      -8.086  15.830  67.272  1.00  0.00    -0.188 C  
HETATM   17  N   UNL     1      -6.726  15.234  67.384  1.00  0.00    -0.254 NA 
HETATM   18  C   UNL     1      -5.960  15.953  68.420  1.00  0.00    -0.106 C  
HETATM   19  C   UNL     1      -6.686  15.945  69.777  1.00  0.00    -0.126 C  
HETATM   20  C   UNL     1      -7.969  15.087  69.673  1.00  0.00    -0.069 C  
HETATM   21  C   UNL     1      -7.489  13.701  69.204  1.00  0.00     0.098 C  
HETATM   22  C   UNL     1      -6.865  13.820  67.803  1.00  0.00    -0.173 C  
ENDBRANCH  10  15
TORSDOF 1
ENDMDL
MODEL       84
REMARK 921   NORMALIZED FREE ENERGY PREDICTED BY IDOCK:   -4.63 KCAL/MOL
REMARK 922        TOTAL FREE ENERGY PREDICTED BY IDOCK:   -5.19 KCAL/MOL
REMARK 923 INTER-LIGAND FREE ENERGY PREDICTED BY IDOCK:   -4.78 KCAL/MOL
REMARK 924 INTRA-LIGAND FREE ENERGY PREDICTED BY IDOCK:   -0.41 KCAL/MOL
REMARK 927      BINDING AFFINITY PREDICTED BY RF-SCORE:    0.00 PKD
ROOT
HETATM    1  C   UNL     1     -10.939   9.252  70.837  1.00  0.00    -0.368 C  
HETATM    2  C   UNL     1     -11.964  10.315  71.268  1.00  0.00    -0.457 C  
HETATM    3  C   UNL     1     -12.363  11.302  70.153  1.00  0.00    -0.354 C  
HETATM    4  C   UNL     1     -11.644  11.084  68.820  1.00  0.00    -0.386 C  
HETATM    5  C   UNL     1     -10.180  10.828  69.051  1.00  0.00    -0.229 A  
HETATM    6  C   UNL     1      -9.827   9.923  70.070  1.00  0.00    -0.291 A  
HETATM    7  C   UNL     1      -8.480   9.614  70.293  1.00  0.00    -0.221 A  
HETATM    8  C   UNL     1      -7.488  10.219  69.511  1.00  0.00    -0.142 A  
HETATM    9  C   UNL     1      -8.098   8.522  71.233  1.00  0.00    -0.136 C  
HETATM   10  N   UNL     1      -9.156   7.771  71.732  1.00  0.00    -0.132 N  
HETATM   11  C   UNL     1      -7.841  11.105  68.491  1.00  0.00    -0.136 A  
HETATM   12  O   UNL     1      -6.915   8.263  71.408  1.00  0.00    -0.053 OA 
HETATM   13  C   UNL     1      -9.184  11.404  68.257  1.00  0.00    -0.183 A  
HETATM   14  C   UNL     1     -10.386   8.490  72.046  1.00  0.00    -0.338 C  
ENDROOT
BRANCH  10  15
HETATM   15  C   UNL     1      -9.144   6.291  71.706  1.00  0.00    -0.144 C  
HETATM   16  C   UNL     1     -10.536   5.601  71.646  1.00  0.00    -0.241 C  
HETATM   17  N   UNL     1     -10.727   4.596  72.729  1.00  0.00    -0.211 NA 
HETATM   18  C   UNL     1      -9.695   3.548  72.612  1.00  0.00    -0.142 C  
HETATM   19  C   UNL     1      -8.274   4.139  72.642  1.00  0.00    -0.096 C  
HETATM   20  C   UNL     1      -8.352   5.664  72.892  1.00  0.00    -0.119 C  
HETATM   21  C   UNL     1      -9.128   5.815  74.213  1.00  0.00    -0.124 C  
HETATM   22  C   UNL     1     -10.557   5.275  74.035  1.00  0.00    -0.278 C  
ENDBRANCH  10  15
TORSDOF 1
ENDMDL
MODEL       85
REMARK 921   NORMALIZED FREE ENERGY PREDICTED BY IDOCK:   -4.60 KCAL/MOL
REMARK 922        TOTAL FREE ENERGY PREDICTED BY IDOCK:   -5.17 KCAL/MOL
REMARK 923 INTER-LIGAND FREE ENERGY PREDICTED BY IDOCK:   -4.98 KCAL/MOL
REMARK 924 INTRA-LIGAND FREE ENERGY PREDICTED BY IDOCK:   -0.19 KCAL/MOL
REMARK 927      BINDING AFFINITY PREDICTED BY RF-SCORE:    0.00 PKD
ROOT
HETATM    1  C   UNL     1      -9.244   8.009  66.178  1.00  0.00    -0.219 C  
HETATM    2  C   UNL     1      -8.630   6.663  65.755  1.00  0.00    -0.147 C  
HETATM    3  C   UNL     1      -9.457   5.430  66.169  1.00  0.00    -0.171 C  
HETATM    4  C   UNL     1     -10.725   5.748  66.963  1.00  0.00    -0.369 C  
HETATM    5  C   UNL     1     -10.440   6.794  68.006  1.00  0.00    -0.253 A  
HETATM    6  C   UNL     1      -9.687   7.917  67.617  1.00  0.00    -0.196 A  
HETATM    7  C   UNL     1      -9.435   8.942  68.536  1.00  0.00    -0.152 A  
HETATM    8  C   UNL     1      -9.921   8.837  69.846  1.00  0.00    -0.193 A  
HETATM    9  C   UNL     1      -8.806  10.220  68.096  1.00  0.00    -0.123 C  
HETATM   10  N   UNL     1      -8.637  10.355  66.723  1.00  0.00    -0.124 N  
HETATM   11  C   UNL     1     -10.681   7.729  70.226  1.00  0.00    -0.237 A  
HETATM   12  O   UNL     1      -8.602  11.106  68.916  1.00  0.00    -0.153 OA 
HETATM   13  C   UNL     1     -10.947   6.713  69.307  1.00  0.00    -0.346 A  
HETATM   14  C   UNL     1      -8.250   9.158  65.984  1.00  0.00    -0.115 C  
ENDROOT
BRANCH  10  15
HETATM   15  C   UNL     1      -9.075  11.570  65.999  1.00  0.00    -0.198 C  
HETATM   16  C   UNL     1      -8.864  12.918  66.745  1.00  0.00    -0.147 C  
HETATM   17  N   UNL     1     -10.113  13.724  66.840  1.00  0.00    -0.256 NA 
HETATM   18  C   UNL     1     -10.605  14.027  65.482  1.00  0.00    -0.318 C  
HETATM   19  C   UNL     1     -10.826  12.749  64.655  1.00  0.00    -0.361 C  
HETATM   20  C   UNL     1     -10.562  11.507  65.539  1.00  0.00    -0.334 C  
HETATM   21  C   UNL     1     -11.516  11.657  66.739  1.00  0.00    -0.299 C  
HETATM   22  C   UNL     1     -11.141  12.917  67.539  1.00  0.00    -0.269 C  
ENDBRANCH  10  15
TORSDOF 1
ENDMDL
MODEL       86
REMARK 921   NORMALIZED FREE ENERGY PREDICTED BY IDOCK:   -4.60 KCAL/MOL
REMARK 922        TOTAL FREE ENERGY PREDICTED BY IDOCK:   -5.17 KCAL/MOL
REMARK 923 INTER-LIGAND FREE ENERGY PREDICTED BY IDOCK:   -4.90 KCAL/MOL
REMARK 924 INTRA-LIGAND FREE ENERGY PREDICTED BY IDOCK:   -0.26 KCAL/MOL
REMARK 927      BINDING AFFINITY PREDICTED BY RF-SCORE:    0.00 PKD
ROOT
HETATM    1  C   UNL     1      -8.186  16.508  68.084  1.00  0.00    -0.181 C  
HETATM    2  C   UNL     1      -6.994  17.372  68.529  1.00  0.00    -0.215 C  
HETATM    3  C   UNL     1      -7.389  18.702  69.201  1.00  0.00    -0.199 C  
HETATM    4  C   UNL     1      -8.896  18.958  69.275  1.00  0.00     0.076 C  
HETATM    5  C   UNL     1      -9.552  18.599  67.970  1.00  0.00    -0.348 A  
HETATM    6  C   UNL     1      -9.186  17.381  67.367  1.00  0.00    -0.236 A  
HETATM    7  C   UNL     1      -9.802  16.978  66.176  1.00  0.00    -0.297 A  
HETATM    8  C   UNL     1     -10.770  17.798  65.581  1.00  0.00    -0.064 A  
HETATM    9  C   UNL     1      -9.569  15.614  65.625  1.00  0.00    -0.284 C  
HETATM   10  N   UNL     1      -8.836  14.761  66.442  1.00  0.00    -0.193 N  
HETATM   11  C   UNL     1     -11.142  18.999  66.189  1.00  0.00     0.159 A  
HETATM   12  O   UNL     1     -10.124  15.279  64.586  1.00  0.00    -0.147 OA 
HETATM   13  C   UNL     1     -10.540  19.396  67.384  1.00  0.00    -0.603 A  
HETATM   14  C   UNL     1      -7.731  15.351  67.189  1.00  0.00    -0.211 C  
ENDROOT
BRANCH  10  15
HETATM   15  C   UNL     1      -9.296  13.388  66.751  1.00  0.00    -0.256 C  
HETATM   16  C   UNL     1     -10.624  12.948  66.071  1.00  0.00    -0.270 C  
HETATM   17  N   UNL     1     -11.630  12.445  67.047  1.00  0.00    -0.372 NA 
HETATM   18  C   UNL     1     -11.078  11.278  67.763  1.00  0.00    -0.271 C  
HETATM   19  C   UNL     1      -9.745  11.612  68.456  1.00  0.00    -0.187 C  
HETATM   20  C   UNL     1      -9.431  13.117  68.279  1.00  0.00    -0.210 C  
HETATM   21  C   UNL     1     -10.651  13.854  68.864  1.00  0.00    -0.228 C  
HETATM   22  C   UNL     1     -11.902  13.514  68.036  1.00  0.00    -0.365 C  
ENDBRANCH  10  15
TORSDOF 1
ENDMDL
MODEL       87
REMARK 921   NORMALIZED FREE ENERGY PREDICTED BY IDOCK:   -4.58 KCAL/MOL
REMARK 922        TOTAL FREE ENERGY PREDICTED BY IDOCK:   -5.14 KCAL/MOL
REMARK 923 INTER-LIGAND FREE ENERGY PREDICTED BY IDOCK:   -5.03 KCAL/MOL
REMARK 924 INTRA-LIGAND FREE ENERGY PREDICTED BY IDOCK:   -0.11 KCAL/MOL
REMARK 927      BINDING AFFINITY PREDICTED BY RF-SCORE:    0.00 PKD
ROOT
HETATM    1  C   UNL     1      -8.597   8.888  68.780  1.00  0.00    -0.136 C  
HETATM    2  C   UNL     1      -7.247   8.182  68.991  1.00  0.00    -0.074 C  
HETATM    3  C   UNL     1      -7.252   6.682  68.636  1.00  0.00    -0.085 C  
HETATM    4  C   UNL     1      -8.606   6.139  68.173  1.00  0.00    -0.115 C  
HETATM    5  C   UNL     1      -9.708   6.665  69.053  1.00  0.00    -0.142 A  
HETATM    6  C   UNL     1      -9.695   8.036  69.368  1.00  0.00    -0.170 A  
HETATM    7  C   UNL     1     -10.724   8.585  70.142  1.00  0.00    -0.240 A  
HETATM    8  C   UNL     1     -11.755   7.761  70.614  1.00  0.00    -0.191 A  
HETATM    9  C   UNL     1     -10.831  10.060  70.328  1.00  0.00    -0.313 C  
HETATM   10  N   UNL     1      -9.945  10.819  69.572  1.00  0.00    -0.123 N  
HETATM   11  C   UNL     1     -11.774   6.404  70.287  1.00  0.00    -0.389 A  
HETATM   12  O   UNL     1     -11.743  10.518  71.002  1.00  0.00    -0.338 OA 
HETATM   13  C   UNL     1     -10.757   5.857  69.503  1.00  0.00    -0.414 A  
HETATM   14  C   UNL     1      -8.597  10.286  69.405  1.00  0.00    -0.156 C  
ENDROOT
BRANCH  10  15
HETATM   15  C   UNL     1     -10.399  11.970  68.759  1.00  0.00    -0.160 C  
HETATM   16  C   UNL     1     -11.735  11.772  67.989  1.00  0.00    -0.293 C  
HETATM   17  N   UNL     1     -11.608  12.060  66.533  1.00  0.00    -0.507 NA 
HETATM   18  C   UNL     1     -11.177  13.459  66.346  1.00  0.00    -0.304 C  
HETATM   19  C   UNL     1      -9.865  13.758  67.092  1.00  0.00    -0.242 C  
HETATM   20  C   UNL     1      -9.328  12.459  67.738  1.00  0.00    -0.196 C  
HETATM   21  C   UNL     1      -9.182  11.461  66.574  1.00  0.00    -0.200 C  
HETATM   22  C   UNL     1     -10.565  11.171  65.968  1.00  0.00    -0.239 C  
ENDBRANCH  10  15
TORSDOF 1
ENDMDL
MODEL       88
REMARK 921   NORMALIZED FREE ENERGY PREDICTED BY IDOCK:   -4.57 KCAL/MOL
REMARK 922        TOTAL FREE ENERGY PREDICTED BY IDOCK:   -5.13 KCAL/MOL
REMARK 923 INTER-LIGAND FREE ENERGY PREDICTED BY IDOCK:   -4.76 KCAL/MOL
REMARK 924 INTRA-LIGAND FREE ENERGY PREDICTED BY IDOCK:   -0.37 KCAL/MOL
REMARK 927      BINDING AFFINITY PREDICTED BY RF-SCORE:    0.00 PKD
ROOT
HETATM    1  C   UNL     1      -7.244  15.324  68.346  1.00  0.00    -0.114 C  
HETATM    2  C   UNL     1      -6.002  15.121  69.230  1.00  0.00    -0.106 C  
HETATM    3  C   UNL     1      -5.222  13.822  68.943  1.00  0.00    -0.072 C  
HETATM    4  C   UNL     1      -5.836  12.936  67.857  1.00  0.00    -0.123 C  
HETATM    5  C   UNL     1      -7.327  12.844  68.038  1.00  0.00    -0.120 A  
HETATM    6  C   UNL     1      -8.028  14.036  68.297  1.00  0.00    -0.146 A  
HETATM    7  C   UNL     1      -9.422  14.012  68.425  1.00  0.00    -0.213 A  
HETATM    8  C   UNL     1     -10.111  12.798  68.310  1.00  0.00    -0.237 A  
HETATM    9  C   UNL     1     -10.199  15.282  68.510  1.00  0.00    -0.224 C  
HETATM   10  N   UNL     1      -9.461  16.443  68.308  1.00  0.00    -0.213 N  
HETATM   11  C   UNL     1      -9.414  11.618  68.038  1.00  0.00    -0.185 A  
HETATM   12  O   UNL     1     -11.417  15.238  68.614  1.00  0.00    -0.301 OA 
HETATM   13  C   UNL     1      -8.026  11.642  67.895  1.00  0.00    -0.132 A  
HETATM   14  C   UNL     1      -8.113  16.474  68.864  1.00  0.00    -0.240 C  
ENDROOT
BRANCH  10  15
HETATM   15  C   UNL     1      -9.903  17.493  67.362  1.00  0.00    -0.297 C  
HETATM   16  C   UNL     1      -8.785  18.140  66.496  1.00  0.00    -0.268 C  
HETATM   17  N   UNL     1      -8.766  19.626  66.598  1.00  0.00    -0.331 NA 
HETATM   18  C   UNL     1     -10.063  20.165  66.143  1.00  0.00    -0.415 C  
HETATM   19  C   UNL     1     -11.239  19.565  66.933  1.00  0.00    -0.044 C  
HETATM   20  C   UNL     1     -10.697  18.643  68.051  1.00  0.00    -0.273 C  
HETATM   21  C   UNL     1      -9.760  19.534  68.889  1.00  0.00    -0.497 C  
HETATM   22  C   UNL     1      -8.579  19.997  68.020  1.00  0.00    -0.210 C  
ENDBRANCH  10  15
TORSDOF 1
ENDMDL
MODEL       89
REMARK 921   NORMALIZED FREE ENERGY PREDICTED BY IDOCK:   -4.54 KCAL/MOL
REMARK 922        TOTAL FREE ENERGY PREDICTED BY IDOCK:   -5.10 KCAL/MOL
REMARK 923 INTER-LIGAND FREE ENERGY PREDICTED BY IDOCK:   -4.82 KCAL/MOL
REMARK 924 INTRA-LIGAND FREE ENERGY PREDICTED BY IDOCK:   -0.28 KCAL/MOL
REMARK 927      BINDING AFFINITY PREDICTED BY RF-SCORE:    0.00 PKD
ROOT
HETATM    1  C   UNL     1     -10.041  10.927  66.416  1.00  0.00    -0.280 C  
HETATM    2  C   UNL     1     -10.676  11.240  65.050  1.00  0.00    -0.322 C  
HETATM    3  C   UNL     1     -10.956  12.736  64.807  1.00  0.00    -0.334 C  
HETATM    4  C   UNL     1     -10.595  13.652  65.978  1.00  0.00    -0.290 C  
HETATM    5  C   UNL     1     -11.052  13.045  67.277  1.00  0.00    -0.303 A  
HETATM    6  C   UNL     1     -10.789  11.679  67.489  1.00  0.00    -0.287 A  
HETATM    7  C   UNL     1     -11.150  11.078  68.701  1.00  0.00    -0.294 A  
HETATM    8  C   UNL     1     -11.789  11.837  69.691  1.00  0.00    -0.407 A  
HETATM    9  C   UNL     1     -10.714   9.689  69.019  1.00  0.00    -0.211 C  
HETATM   10  N   UNL     1      -9.826   9.123  68.111  1.00  0.00    -0.159 N  
HETATM   11  C   UNL     1     -12.036  13.195  69.484  1.00  0.00    -0.354 A  
HETATM   12  O   UNL     1     -11.035   9.186  70.088  1.00  0.00    -0.236 OA 
HETATM   13  C   UNL     1     -11.662  13.801  68.283  1.00  0.00    -0.394 A  
HETATM   14  C   UNL     1     -10.047   9.422  66.700  1.00  0.00    -0.262 C  
ENDROOT
BRANCH  10  15
HETATM   15  C   UNL     1      -8.572   8.469  68.548  1.00  0.00    -0.138 C  
HETATM   16  C   UNL     1      -8.389   8.311  70.084  1.00  0.00    -0.124 C  
HETATM   17  N   UNL     1      -7.101   8.880  70.571  1.00  0.00    -0.055 NA 
HETATM   18  C   UNL     1      -5.978   8.190  69.905  1.00  0.00    -0.022 C  
HETATM   19  C   UNL     1      -6.083   8.275  68.372  1.00  0.00    -0.046 C  
HETATM   20  C   UNL     1      -7.294   9.158  67.984  1.00  0.00    -0.083 C  
HETATM   21  C   UNL     1      -7.045  10.510  68.678  1.00  0.00    -0.077 C  
HETATM   22  C   UNL     1      -7.051  10.314  70.203  1.00  0.00    -0.148 C  
ENDBRANCH  10  15
TORSDOF 1
ENDMDL
MODEL       90
REMARK 921   NORMALIZED FREE ENERGY PREDICTED BY IDOCK:   -4.51 KCAL/MOL
REMARK 922        TOTAL FREE ENERGY PREDICTED BY IDOCK:   -5.07 KCAL/MOL
REMARK 923 INTER-LIGAND FREE ENERGY PREDICTED BY IDOCK:   -4.66 KCAL/MOL
REMARK 924 INTRA-LIGAND FREE ENERGY PREDICTED BY IDOCK:   -0.42 KCAL/MOL
REMARK 927      BINDING AFFINITY PREDICTED BY RF-SCORE:    0.00 PKD
ROOT
HETATM    1  C   UNL     1     -10.962  10.619  68.892  1.00  0.00    -0.296 C  
HETATM    2  C   UNL     1     -11.689  11.126  70.149  1.00  0.00    -0.439 C  
HETATM    3  C   UNL     1     -12.255  12.554  70.023  1.00  0.00    -0.262 C  
HETATM    4  C   UNL     1     -11.964  13.242  68.688  1.00  0.00    -0.345 C  
HETATM    5  C   UNL     1     -10.535  13.006  68.279  1.00  0.00    -0.258 A  
HETATM    6  C   UNL     1     -10.030  11.697  68.395  1.00  0.00    -0.201 A  
HETATM    7  C   UNL     1      -8.723  11.414  67.983  1.00  0.00    -0.148 A  
HETATM    8  C   UNL     1      -7.917  12.440  67.471  1.00  0.00    -0.173 A  
HETATM    9  C   UNL     1      -8.234  10.008  67.920  1.00  0.00    -0.113 C  
HETATM   10  N   UNL     1      -9.198   9.034  68.153  1.00  0.00    -0.136 N  
HETATM   11  C   UNL     1      -8.425  13.734  67.343  1.00  0.00    -0.209 A  
HETATM   12  O   UNL     1      -7.089   9.782  67.549  1.00  0.00    -0.086 OA 
HETATM   13  C   UNL     1      -9.733  14.016  67.739  1.00  0.00    -0.228 A  
HETATM   14  C   UNL     1     -10.196   9.324  69.176  1.00  0.00    -0.206 C  
ENDROOT
BRANCH  10  15
HETATM   15  C   UNL     1      -9.376   7.878  67.244  1.00  0.00    -0.148 C  
HETATM   16  C   UNL     1     -10.825   7.327  67.122  1.00  0.00    -0.308 C  
HETATM   17  N   UNL     1     -10.909   5.865  67.395  1.00  0.00    -0.283 NA 
HETATM   18  C   UNL     1     -10.063   5.137  66.430  1.00  0.00    -0.239 C  
HETATM   19  C   UNL     1      -8.605   5.629  66.463  1.00  0.00    -0.119 C  
HETATM   20  C   UNL     1      -8.438   6.682  67.585  1.00  0.00    -0.121 C  
HETATM   21  C   UNL     1      -8.896   5.972  68.873  1.00  0.00    -0.120 C  
HETATM   22  C   UNL     1     -10.387   5.611  68.759  1.00  0.00    -0.218 C  
ENDBRANCH  10  15
TORSDOF 1
ENDMDL
MODEL       91
REMARK 921   NORMALIZED FREE ENERGY PREDICTED BY IDOCK:   -4.49 KCAL/MOL
REMARK 922        TOTAL FREE ENERGY PREDICTED BY IDOCK:   -5.05 KCAL/MOL
REMARK 923 INTER-LIGAND FREE ENERGY PREDICTED BY IDOCK:   -4.79 KCAL/MOL
REMARK 924 INTRA-LIGAND FREE ENERGY PREDICTED BY IDOCK:   -0.26 KCAL/MOL
REMARK 927      BINDING AFFINITY PREDICTED BY RF-SCORE:    0.00 PKD
ROOT
HETATM    1  C   UNL     1     -10.310   9.485  69.875  1.00  0.00    -0.265 C  
HETATM    2  C   UNL     1     -10.772   9.249  71.324  1.00  0.00    -0.422 C  
HETATM    3  C   UNL     1     -12.164   9.826  71.648  1.00  0.00    -0.488 C  
HETATM    4  C   UNL     1     -12.833  10.570  70.491  1.00  0.00    -0.339 C  
HETATM    5  C   UNL     1     -11.839  11.461  69.798  1.00  0.00    -0.435 A  
HETATM    6  C   UNL     1     -10.572  10.924  69.503  1.00  0.00    -0.217 A  
HETATM    7  C   UNL     1      -9.628  11.695  68.816  1.00  0.00    -0.083 A  
HETATM    8  C   UNL     1      -9.944  13.007  68.439  1.00  0.00    -0.216 A  
HETATM    9  C   UNL     1      -8.358  11.086  68.330  1.00  0.00    -0.139 C  
HETATM   10  N   UNL     1      -8.266   9.707  68.481  1.00  0.00    -0.104 N  
HETATM   11  C   UNL     1     -11.206  13.534  68.719  1.00  0.00    -0.311 A  
HETATM   12  O   UNL     1      -7.550  11.778  67.725  1.00  0.00    -0.112 OA 
HETATM   13  C   UNL     1     -12.155  12.761  69.390  1.00  0.00    -0.248 A  
HETATM   14  C   UNL     1      -8.828   9.138  69.701  1.00  0.00    -0.151 C  
ENDROOT
BRANCH  10  15
HETATM   15  C   UNL     1      -7.861   8.824  67.363  1.00  0.00    -0.098 C  
HETATM   16  C   UNL     1      -6.910   9.458  66.308  1.00  0.00    -0.086 C  
HETATM   17  N   UNL     1      -7.429   9.331  64.918  1.00  0.00    -0.104 NA 
HETATM   18  C   UNL     1      -7.591   7.903  64.584  1.00  0.00    -0.109 C  
HETATM   19  C   UNL     1      -8.505   7.181  65.590  1.00  0.00    -0.141 C  
HETATM   20  C   UNL     1      -9.071   8.204  66.604  1.00  0.00    -0.202 C  
HETATM   21  C   UNL     1      -9.786   9.266  65.747  1.00  0.00    -0.339 C  
HETATM   22  C   UNL     1      -8.760   9.980  64.851  1.00  0.00    -0.182 C  
ENDBRANCH  10  15
TORSDOF 1
ENDMDL
MODEL       92
REMARK 921   NORMALIZED FREE ENERGY PREDICTED BY IDOCK:   -4.45 KCAL/MOL
REMARK 922        TOTAL FREE ENERGY PREDICTED BY IDOCK:   -5.00 KCAL/MOL
REMARK 923 INTER-LIGAND FREE ENERGY PREDICTED BY IDOCK:   -5.64 KCAL/MOL
REMARK 924 INTRA-LIGAND FREE ENERGY PREDICTED BY IDOCK:    0.64 KCAL/MOL
REMARK 927      BINDING AFFINITY PREDICTED BY RF-SCORE:    0.00 PKD
ROOT
HETATM    1  C   UNL     1      -7.436  16.269  67.513  1.00  0.00    -0.172 C  
HETATM    2  C   UNL     1      -6.314  16.786  66.596  1.00  0.00    -0.153 C  
HETATM    3  C   UNL     1      -5.649  18.090  67.079  1.00  0.00    -0.157 C  
HETATM    4  C   UNL     1      -6.242  18.673  68.363  1.00  0.00    -0.217 C  
HETATM    5  C   UNL     1      -7.745  18.616  68.317  1.00  0.00    -0.321 A  
HETATM    6  C   UNL     1      -8.342  17.420  67.877  1.00  0.00    -0.230 A  
HETATM    7  C   UNL     1      -9.736  17.299  67.862  1.00  0.00    -0.273 A  
HETATM    8  C   UNL     1     -10.533  18.377  68.269  1.00  0.00    -0.329 A  
HETATM    9  C   UNL     1     -10.381  15.985  67.583  1.00  0.00    -0.284 C  
HETATM   10  N   UNL     1      -9.511  14.904  67.493  1.00  0.00    -0.198 N  
HETATM   11  C   UNL     1      -9.939  19.559  68.718  1.00  0.00    -0.547 A  
HETATM   12  O   UNL     1     -11.602  15.900  67.582  1.00  0.00    -0.157 OA 
HETATM   13  C   UNL     1      -8.548  19.676  68.749  1.00  0.00    -0.277 A  
HETATM   14  C   UNL     1      -8.228  15.143  66.842  1.00  0.00    -0.199 C  
ENDROOT
BRANCH  10  15
HETATM   15  C   UNL     1      -9.747  13.647  68.240  1.00  0.00    -0.231 C  
HETATM   16  C   UNL     1      -9.142  12.360  67.610  1.00  0.00    -0.186 C  
HETATM   17  N   UNL     1     -10.152  11.281  67.426  1.00  0.00    -0.185 NA 
HETATM   18  C   UNL     1     -10.728  10.920  68.736  1.00  0.00    -0.207 C  
HETATM   19  C   UNL     1     -11.337  12.140  69.448  1.00  0.00    -0.311 C  
HETATM   20  C   UNL     1     -11.255  13.377  68.522  1.00  0.00    -0.316 C  
HETATM   21  C   UNL     1     -11.991  12.963  67.233  1.00  0.00    -0.371 C  
HETATM   22  C   UNL     1     -11.241  11.799  66.564  1.00  0.00    -0.321 C  
ENDBRANCH  10  15
TORSDOF 1
ENDMDL
MODEL       93
REMARK 921   NORMALIZED FREE ENERGY PREDICTED BY IDOCK:   -4.43 KCAL/MOL
REMARK 922        TOTAL FREE ENERGY PREDICTED BY IDOCK:   -4.99 KCAL/MOL
REMARK 923 INTER-LIGAND FREE ENERGY PREDICTED BY IDOCK:   -4.99 KCAL/MOL
REMARK 924 INTRA-LIGAND FREE ENERGY PREDICTED BY IDOCK:   -0.00 KCAL/MOL
REMARK 927      BINDING AFFINITY PREDICTED BY RF-SCORE:    0.00 PKD
ROOT
HETATM    1  C   UNL     1      -9.653  12.144  67.817  1.00  0.00    -0.195 C  
HETATM    2  C   UNL     1      -9.431  13.596  68.273  1.00  0.00    -0.213 C  
HETATM    3  C   UNL     1     -10.541  14.574  67.842  1.00  0.00    -0.243 C  
HETATM    4  C   UNL     1     -11.654  13.948  67.000  1.00  0.00    -0.394 C  
HETATM    5  C   UNL     1     -11.069  13.033  65.958  1.00  0.00    -0.301 A  
HETATM    6  C   UNL     1     -10.058  12.142  66.363  1.00  0.00    -0.242 A  
HETATM    7  C   UNL     1      -9.515  11.237  65.444  1.00  0.00    -0.251 A  
HETATM    8  C   UNL     1      -9.969  11.235  64.118  1.00  0.00    -0.350 A  
HETATM    9  C   UNL     1      -8.585  10.163  65.894  1.00  0.00    -0.147 C  
HETATM   10  N   UNL     1      -8.431  10.051  67.271  1.00  0.00    -0.122 N  
HETATM   11  C   UNL     1     -10.983  12.110  63.722  1.00  0.00    -0.494 A  
HETATM   12  O   UNL     1      -8.128   9.378  65.074  1.00  0.00    -0.118 OA 
HETATM   13  C   UNL     1     -11.537  13.003  64.641  1.00  0.00    -0.389 A  
HETATM   14  C   UNL     1      -8.398  11.294  68.034  1.00  0.00    -0.136 C  
ENDROOT
BRANCH  10  15
HETATM   15  C   UNL     1      -8.554   8.750  67.967  1.00  0.00    -0.134 C  
HETATM   16  C   UNL     1     -10.002   8.212  68.149  1.00  0.00    -0.186 C  
HETATM   17  N   UNL     1     -10.319   7.882  69.566  1.00  0.00    -0.213 NA 
HETATM   18  C   UNL     1      -9.385   6.846  70.048  1.00  0.00    -0.158 C  
HETATM   19  C   UNL     1      -7.917   7.281  69.890  1.00  0.00    -0.122 C  
HETATM   20  C   UNL     1      -7.861   8.735  69.362  1.00  0.00    -0.095 C  
HETATM   21  C   UNL     1      -8.662   9.564  70.384  1.00  0.00    -0.265 C  
HETATM   22  C   UNL     1     -10.128   9.101  70.387  1.00  0.00    -0.218 C  
ENDBRANCH  10  15
TORSDOF 1
ENDMDL
MODEL       94
REMARK 921   NORMALIZED FREE ENERGY PREDICTED BY IDOCK:   -4.43 KCAL/MOL
REMARK 922        TOTAL FREE ENERGY PREDICTED BY IDOCK:   -4.99 KCAL/MOL
REMARK 923 INTER-LIGAND FREE ENERGY PREDICTED BY IDOCK:   -4.74 KCAL/MOL
REMARK 924 INTRA-LIGAND FREE ENERGY PREDICTED BY IDOCK:   -0.25 KCAL/MOL
REMARK 927      BINDING AFFINITY PREDICTED BY RF-SCORE:    0.00 PKD
ROOT
HETATM    1  C   UNL     1     -10.502   6.338  70.969  1.00  0.00    -0.274 C  
HETATM    2  C   UNL     1     -11.646   6.203  71.988  1.00  0.00    -0.364 C  
HETATM    3  C   UNL     1     -11.407   5.135  73.073  1.00  0.00    -0.381 C  
HETATM    4  C   UNL     1     -10.094   4.363  72.933  1.00  0.00    -0.214 C  
HETATM    5  C   UNL     1      -9.865   3.979  71.496  1.00  0.00    -0.251 A  
HETATM    6  C   UNL     1     -10.083   4.962  70.514  1.00  0.00    -0.312 A  
HETATM    7  C   UNL     1      -9.837   4.670  69.167  1.00  0.00    -0.242 A  
HETATM    8  C   UNL     1      -9.390   3.393  68.802  1.00  0.00    -0.234 A  
HETATM    9  C   UNL     1      -9.879   5.746  68.137  1.00  0.00    -0.135 C  
HETATM   10  N   UNL     1     -10.029   7.037  68.632  1.00  0.00    -0.152 N  
HETATM   11  C   UNL     1      -9.160   2.424  69.780  1.00  0.00    -0.180 A  
HETATM   12  O   UNL     1      -9.654   5.470  66.966  1.00  0.00    -0.125 OA 
HETATM   13  C   UNL     1      -9.390   2.717  71.125  1.00  0.00    -0.211 A  
HETATM   14  C   UNL     1     -10.917   7.205  69.777  1.00  0.00    -0.231 C  
ENDROOT
BRANCH  10  15
HETATM   15  C   UNL     1      -9.145   8.145  68.205  1.00  0.00    -0.134 C  
HETATM   16  C   UNL     1      -8.472   8.956  69.348  1.00  0.00    -0.124 C  
HETATM   17  N   UNL     1      -8.716  10.421  69.234  1.00  0.00    -0.164 NA 
HETATM   18  C   UNL     1      -8.175  10.909  67.950  1.00  0.00    -0.114 C  
HETATM   19  C   UNL     1      -8.770  10.148  66.753  1.00  0.00    -0.133 C  
HETATM   20  C   UNL     1      -9.848   9.156  67.252  1.00  0.00    -0.244 C  
HETATM   21  C   UNL     1     -10.865  10.021  68.021  1.00  0.00    -0.311 C  
HETATM   22  C   UNL     1     -10.179  10.656  69.243  1.00  0.00    -0.213 C  
ENDBRANCH  10  15
TORSDOF 1
ENDMDL
MODEL       95
REMARK 921   NORMALIZED FREE ENERGY PREDICTED BY IDOCK:   -4.43 KCAL/MOL
REMARK 922        TOTAL FREE ENERGY PREDICTED BY IDOCK:   -4.99 KCAL/MOL
REMARK 923 INTER-LIGAND FREE ENERGY PREDICTED BY IDOCK:   -4.79 KCAL/MOL
REMARK 924 INTRA-LIGAND FREE ENERGY PREDICTED BY IDOCK:   -0.19 KCAL/MOL
REMARK 927      BINDING AFFINITY PREDICTED BY RF-SCORE:    0.00 PKD
ROOT
HETATM    1  C   UNL     1      -9.743  16.488  68.311  1.00  0.00    -0.231 C  
HETATM    2  C   UNL     1     -10.643  17.445  69.110  1.00  0.00    -0.161 C  
HETATM    3  C   UNL     1     -10.112  18.889  69.203  1.00  0.00    -0.212 C  
HETATM    4  C   UNL     1      -8.762  19.119  68.522  1.00  0.00    -0.401 C  
HETATM    5  C   UNL     1      -7.817  17.992  68.841  1.00  0.00    -0.197 A  
HETATM    6  C   UNL     1      -8.312  16.678  68.750  1.00  0.00    -0.252 A  
HETATM    7  C   UNL     1      -7.461  15.593  68.990  1.00  0.00    -0.181 A  
HETATM    8  C   UNL     1      -6.123  15.821  69.336  1.00  0.00    -0.138 A  
HETATM    9  C   UNL     1      -7.912  14.199  68.715  1.00  0.00    -0.102 C  
HETATM   10  N   UNL     1      -9.146  14.088  68.084  1.00  0.00    -0.186 N  
HETATM   11  C   UNL     1      -5.630  17.125  69.411  1.00  0.00    -0.182 A  
HETATM   12  O   UNL     1      -7.149  13.265  68.925  1.00  0.00    -0.103 OA 
HETATM   13  C   UNL     1      -6.472  18.208  69.158  1.00  0.00    -0.257 A  
HETATM   14  C   UNL     1     -10.181  15.032  68.490  1.00  0.00    -0.227 C  
ENDROOT
BRANCH  10  15
HETATM   15  C   UNL     1      -9.336  13.241  66.885  1.00  0.00    -0.244 C  
HETATM   16  C   UNL     1     -10.740  13.313  66.219  1.00  0.00    -0.286 C  
HETATM   17  N   UNL     1     -11.366  11.972  66.051  1.00  0.00    -0.342 NA 
HETATM   18  C   UNL     1     -10.502  11.131  65.201  1.00  0.00    -0.277 C  
HETATM   19  C   UNL     1      -9.077  11.015  65.771  1.00  0.00    -0.219 C  
HETATM   20  C   UNL     1      -9.005  11.740  67.137  1.00  0.00    -0.177 C  
HETATM   21  C   UNL     1     -10.090  11.074  68.003  1.00  0.00    -0.198 C  
HETATM   22  C   UNL     1     -11.474  11.334  67.384  1.00  0.00    -0.221 C  
ENDBRANCH  10  15
TORSDOF 1
ENDMDL
MODEL       96
REMARK 921   NORMALIZED FREE ENERGY PREDICTED BY IDOCK:   -4.42 KCAL/MOL
REMARK 922        TOTAL FREE ENERGY PREDICTED BY IDOCK:   -4.98 KCAL/MOL
REMARK 923 INTER-LIGAND FREE ENERGY PREDICTED BY IDOCK:   -4.56 KCAL/MOL
REMARK 924 INTRA-LIGAND FREE ENERGY PREDICTED BY IDOCK:   -0.42 KCAL/MOL
REMARK 927      BINDING AFFINITY PREDICTED BY RF-SCORE:    0.00 PKD
ROOT
HETATM    1  C   UNL     1      -8.389  10.793  69.104  1.00  0.00    -0.111 C  
HETATM    2  C   UNL     1      -6.960  11.356  69.014  1.00  0.00    -0.106 C  
HETATM    3  C   UNL     1      -6.863  12.738  68.340  1.00  0.00    -0.091 C  
HETATM    4  C   UNL     1      -8.195  13.299  67.837  1.00  0.00    -0.163 C  
HETATM    5  C   UNL     1      -8.985  12.223  67.142  1.00  0.00    -0.192 A  
HETATM    6  C   UNL     1      -9.070  10.966  67.768  1.00  0.00    -0.149 A  
HETATM    7  C   UNL     1      -9.833   9.947  67.188  1.00  0.00    -0.235 A  
HETATM    8  C   UNL     1     -10.497  10.178  65.976  1.00  0.00    -0.165 A  
HETATM    9  C   UNL     1     -10.090   8.677  67.924  1.00  0.00    -0.203 C  
HETATM   10  N   UNL     1      -9.649   8.656  69.243  1.00  0.00    -0.164 N  
HETATM   11  C   UNL     1     -10.424  11.431  65.363  1.00  0.00    -0.336 A  
HETATM   12  O   UNL     1     -10.766   7.801  67.401  1.00  0.00    -0.278 OA 
HETATM   13  C   UNL     1      -9.676  12.454  65.948  1.00  0.00    -0.237 A  
HETATM   14  C   UNL     1      -8.381   9.320  69.525  1.00  0.00    -0.131 C  
ENDROOT
BRANCH  10  15
HETATM   15  C   UNL     1     -10.527   8.221  70.353  1.00  0.00    -0.215 C  
HETATM   16  C   UNL     1     -10.300   8.933  71.717  1.00  0.00    -0.356 C  
HETATM   17  N   UNL     1     -10.071   7.975  72.834  1.00  0.00    -0.303 NA 
HETATM   18  C   UNL     1     -11.246   7.093  72.972  1.00  0.00    -0.239 C  
HETATM   19  C   UNL     1     -11.563   6.355  71.659  1.00  0.00    -0.363 C  
HETATM   20  C   UNL     1     -10.480   6.684  70.604  1.00  0.00    -0.253 C  
HETATM   21  C   UNL     1      -9.147   6.273  71.255  1.00  0.00    -0.148 C  
HETATM   22  C   UNL     1      -8.895   7.138  72.502  1.00  0.00    -0.123 C  
ENDBRANCH  10  15
TORSDOF 1
ENDMDL
MODEL       97
REMARK 921   NORMALIZED FREE ENERGY PREDICTED BY IDOCK:   -4.39 KCAL/MOL
REMARK 922        TOTAL FREE ENERGY PREDICTED BY IDOCK:   -4.95 KCAL/MOL
REMARK 923 INTER-LIGAND FREE ENERGY PREDICTED BY IDOCK:   -4.53 KCAL/MOL
REMARK 924 INTRA-LIGAND FREE ENERGY PREDICTED BY IDOCK:   -0.42 KCAL/MOL
REMARK 927      BINDING AFFINITY PREDICTED BY RF-SCORE:    0.00 PKD
ROOT
HETATM    1  C   UNL     1     -10.444   9.959  68.394  1.00  0.00    -0.239 C  
HETATM    2  C   UNL     1     -11.485  11.048  68.706  1.00  0.00    -0.372 C  
HETATM    3  C   UNL     1     -11.914  11.113  70.185  1.00  0.00    -0.449 C  
HETATM    4  C   UNL     1     -11.264  10.061  71.086  1.00  0.00    -0.339 C  
HETATM    5  C   UNL     1     -11.264   8.719  70.405  1.00  0.00    -0.247 A  
HETATM    6  C   UNL     1     -10.868   8.671  69.055  1.00  0.00    -0.043 A  
HETATM    7  C   UNL     1     -10.804   7.441  68.390  1.00  0.00    -0.068 A  
HETATM    8  C   UNL     1     -11.150   6.264  69.067  1.00  0.00    -0.446 A  
HETATM    9  C   UNL     1     -10.210   7.345  67.026  1.00  0.00    -0.287 C  
HETATM   10  N   UNL     1      -9.613   8.510  66.556  1.00  0.00    -0.216 N  
HETATM   11  C   UNL     1     -11.528   6.313  70.411  1.00  0.00    -0.414 A  
HETATM   12  O   UNL     1     -10.157   6.258  66.466  1.00  0.00    -0.167 OA 
HETATM   13  C   UNL     1     -11.578   7.536  71.080  1.00  0.00    -0.304 A  
HETATM   14  C   UNL     1     -10.274   9.768  66.884  1.00  0.00    -0.245 C  
ENDROOT
BRANCH  10  15
HETATM   15  C   UNL     1      -8.249   8.511  65.980  1.00  0.00    -0.118 C  
HETATM   16  C   UNL     1      -7.436   9.823  66.165  1.00  0.00    -0.101 C  
HETATM   17  N   UNL     1      -6.912  10.360  64.878  1.00  0.00    -0.092 NA 
HETATM   18  C   UNL     1      -6.025   9.359  64.254  1.00  0.00    -0.077 C  
HETATM   19  C   UNL     1      -6.740   8.012  64.048  1.00  0.00    -0.066 C  
HETATM   20  C   UNL     1      -8.224   8.143  64.467  1.00  0.00    -0.118 C  
HETATM   21  C   UNL     1      -8.783   9.294  63.610  1.00  0.00    -0.188 C  
HETATM   22  C   UNL     1      -8.056  10.602  63.969  1.00  0.00     0.066 C  
ENDBRANCH  10  15
TORSDOF 1
ENDMDL
MODEL       98
REMARK 921   NORMALIZED FREE ENERGY PREDICTED BY IDOCK:   -4.38 KCAL/MOL
REMARK 922        TOTAL FREE ENERGY PREDICTED BY IDOCK:   -4.94 KCAL/MOL
REMARK 923 INTER-LIGAND FREE ENERGY PREDICTED BY IDOCK:   -4.66 KCAL/MOL
REMARK 924 INTRA-LIGAND FREE ENERGY PREDICTED BY IDOCK:   -0.27 KCAL/MOL
REMARK 927      BINDING AFFINITY PREDICTED BY RF-SCORE:    0.00 PKD
ROOT
HETATM    1  C   UNL     1     -10.492   7.811  68.509  1.00  0.00    -0.202 C  
HETATM    2  C   UNL     1     -11.102   6.425  68.780  1.00  0.00    -0.404 C  
HETATM    3  C   UNL     1     -10.854   5.889  70.204  1.00  0.00    -0.402 C  
HETATM    4  C   UNL     1     -10.011   6.804  71.094  1.00  0.00    -0.194 C  
HETATM    5  C   UNL     1      -8.837   7.344  70.324  1.00  0.00    -0.147 A  
HETATM    6  C   UNL     1      -9.075   7.834  69.027  1.00  0.00    -0.144 A  
HETATM    7  C   UNL     1      -8.025   8.392  68.287  1.00  0.00    -0.119 A  
HETATM    8  C   UNL     1      -6.737   8.445  68.837  1.00  0.00    -0.053 A  
HETATM    9  C   UNL     1      -8.291   9.084  66.995  1.00  0.00    -0.116 C  
HETATM   10  N   UNL     1      -9.634   9.252  66.677  1.00  0.00    -0.187 N  
HETATM   11  C   UNL     1      -6.506   7.972  70.131  1.00  0.00    -0.036 A  
HETATM   12  O   UNL     1      -7.359   9.571  66.368  1.00  0.00    -0.092 OA 
HETATM   13  C   UNL     1      -7.555   7.429  70.876  1.00  0.00    -0.083 A  
HETATM   14  C   UNL     1     -10.534   8.156  67.018  1.00  0.00    -0.326 C  
ENDROOT
BRANCH  10  15
HETATM   15  C   UNL     1     -10.179  10.563  66.257  1.00  0.00    -0.235 C  
HETATM   16  C   UNL     1      -9.129  11.639  65.858  1.00  0.00    -0.149 C  
HETATM   17  N   UNL     1      -9.304  12.916  66.604  1.00  0.00    -0.245 NA 
HETATM   18  C   UNL     1     -10.645  13.465  66.328  1.00  0.00    -0.291 C  
HETATM   19  C   UNL     1     -11.757  12.459  66.674  1.00  0.00    -0.438 C  
HETATM   20  C   UNL     1     -11.133  11.196  67.313  1.00  0.00    -0.366 C  
HETATM   21  C   UNL     1     -10.342  11.710  68.531  1.00  0.00    -0.224 C  
HETATM   22  C   UNL     1      -9.206  12.630  68.055  1.00  0.00    -0.208 C  
ENDBRANCH  10  15
TORSDOF 1
ENDMDL
MODEL       99
REMARK 921   NORMALIZED FREE ENERGY PREDICTED BY IDOCK:   -4.38 KCAL/MOL
REMARK 922        TOTAL FREE ENERGY PREDICTED BY IDOCK:   -4.93 KCAL/MOL
REMARK 923 INTER-LIGAND FREE ENERGY PREDICTED BY IDOCK:   -4.66 KCAL/MOL
REMARK 924 INTRA-LIGAND FREE ENERGY PREDICTED BY IDOCK:   -0.27 KCAL/MOL
REMARK 927      BINDING AFFINITY PREDICTED BY RF-SCORE:    0.00 PKD
ROOT
HETATM    1  C   UNL     1      -8.159  10.830  68.997  1.00  0.00    -0.140 C  
HETATM    2  C   UNL     1      -6.835  11.506  68.604  1.00  0.00    -0.077 C  
HETATM    3  C   UNL     1      -6.969  12.992  68.219  1.00  0.00    -0.101 C  
HETATM    4  C   UNL     1      -8.399  13.535  68.252  1.00  0.00    -0.165 C  
HETATM    5  C   UNL     1      -9.346  12.550  67.623  1.00  0.00    -0.189 A  
HETATM    6  C   UNL     1      -9.217  11.196  67.984  1.00  0.00    -0.159 A  
HETATM    7  C   UNL     1     -10.105  10.246  67.465  1.00  0.00    -0.239 A  
HETATM    8  C   UNL     1     -11.109  10.647  66.574  1.00  0.00    -0.012 A  
HETATM    9  C   UNL     1     -10.105   8.847  67.977  1.00  0.00    -0.195 C  
HETATM   10  N   UNL     1      -9.284   8.617  69.075  1.00  0.00    -0.145 N  
HETATM   11  C   UNL     1     -11.245  11.993  66.228  1.00  0.00    -0.394 A  
HETATM   12  O   UNL     1     -10.895   8.035  67.514  1.00  0.00    -0.202 OA 
HETATM   13  C   UNL     1     -10.371  12.944  66.757  1.00  0.00    -0.250 A  
HETATM   14  C   UNL     1      -8.001   9.311  69.097  1.00  0.00    -0.097 C  
ENDROOT
BRANCH  10  15
HETATM   15  C   UNL     1      -9.776   7.920  70.286  1.00  0.00    -0.183 C  
HETATM   16  C   UNL     1     -11.074   7.083  70.107  1.00  0.00    -0.285 C  
HETATM   17  N   UNL     1     -12.133   7.448  71.090  1.00  0.00    -0.321 NA 
HETATM   18  C   UNL     1     -11.629   7.220  72.458  1.00  0.00    -0.245 C  
HETATM   19  C   UNL     1     -10.327   7.996  72.725  1.00  0.00    -0.408 C  
HETATM   20  C   UNL     1      -9.987   8.875  71.498  1.00  0.00    -0.391 C  
HETATM   21  C   UNL     1     -11.224   9.767  71.287  1.00  0.00    -0.417 C  
HETATM   22  C   UNL     1     -12.438   8.889  70.939  1.00  0.00    -0.045 C  
ENDBRANCH  10  15
TORSDOF 1
ENDMDL
MODEL      100
REMARK 921   NORMALIZED FREE ENERGY PREDICTED BY IDOCK:   -4.37 KCAL/MOL
REMARK 922        TOTAL FREE ENERGY PREDICTED BY IDOCK:   -4.93 KCAL/MOL
REMARK 923 INTER-LIGAND FREE ENERGY PREDICTED BY IDOCK:   -4.51 KCAL/MOL
REMARK 924 INTRA-LIGAND FREE ENERGY PREDICTED BY IDOCK:   -0.42 KCAL/MOL
REMARK 927      BINDING AFFINITY PREDICTED BY RF-SCORE:    0.00 PKD
ROOT
HETATM    1  C   UNL     1     -10.078  10.044  67.713  1.00  0.00    -0.222 C  
HETATM    2  C   UNL     1     -10.026  11.436  68.366  1.00  0.00    -0.206 C  
HETATM    3  C   UNL     1     -10.827  12.520  67.619  1.00  0.00    -0.255 C  
HETATM    4  C   UNL     1     -11.504  12.041  66.333  1.00  0.00    -0.417 C  
HETATM    5  C   UNL     1     -10.564  11.177  65.537  1.00  0.00    -0.289 A  
HETATM    6  C   UNL     1      -9.840  10.188  66.230  1.00  0.00    -0.288 A  
HETATM    7  C   UNL     1      -8.989   9.327  65.528  1.00  0.00    -0.251 A  
HETATM    8  C   UNL     1      -8.849   9.463  64.141  1.00  0.00    -0.216 A  
HETATM    9  C   UNL     1      -8.362   8.158  66.209  1.00  0.00    -0.119 C  
HETATM   10  N   UNL     1      -8.799   7.924  67.508  1.00  0.00    -0.128 N  
HETATM   11  C   UNL     1      -9.580  10.435  63.454  1.00  0.00    -0.361 A  
HETATM   12  O   UNL     1      -7.627   7.413  65.575  1.00  0.00    -0.084 OA 
HETATM   13  C   UNL     1     -10.441  11.285  64.149  1.00  0.00    -0.431 A  
HETATM   14  C   UNL     1      -9.053   9.095  68.340  1.00  0.00    -0.132 C  
ENDROOT
BRANCH  10  15
HETATM   15  C   UNL     1      -9.239   6.583  67.955  1.00  0.00    -0.110 C  
HETATM   16  C   UNL     1     -10.285   6.559  69.105  1.00  0.00    -0.180 C  
HETATM   17  N   UNL     1      -9.856   5.715  70.255  1.00  0.00    -0.183 NA 
HETATM   18  C   UNL     1      -9.653   4.328  69.796  1.00  0.00    -0.209 C  
HETATM   19  C   UNL     1      -8.643   4.251  68.638  1.00  0.00    -0.111 C  
HETATM   20  C   UNL     1      -8.056   5.657  68.367  1.00  0.00    -0.103 C  
HETATM   21  C   UNL     1      -7.448   6.104  69.709  1.00  0.00    -0.081 C  
HETATM   22  C   UNL     1      -8.563   6.233  70.761  1.00  0.00    -0.135 C  
ENDBRANCH  10  15
TORSDOF 1
ENDMDL
MODEL      101
REMARK 921   NORMALIZED FREE ENERGY PREDICTED BY IDOCK:   -4.32 KCAL/MOL
REMARK 922        TOTAL FREE ENERGY PREDICTED BY IDOCK:   -4.87 KCAL/MOL
REMARK 923 INTER-LIGAND FREE ENERGY PREDICTED BY IDOCK:   -4.88 KCAL/MOL
REMARK 924 INTRA-LIGAND FREE ENERGY PREDICTED BY IDOCK:    0.01 KCAL/MOL
REMARK 927      BINDING AFFINITY PREDICTED BY RF-SCORE:    0.00 PKD
ROOT
HETATM    1  C   UNL     1     -10.161   6.790  68.869  1.00  0.00    -0.170 C  
HETATM    2  C   UNL     1     -10.495   5.700  67.837  1.00  0.00    -0.274 C  
HETATM    3  C   UNL     1      -9.876   5.931  66.445  1.00  0.00    -0.161 C  
HETATM    4  C   UNL     1      -9.068   7.224  66.311  1.00  0.00    -0.186 C  
HETATM    5  C   UNL     1      -9.800   8.366  66.962  1.00  0.00    -0.296 A  
HETATM    6  C   UNL     1     -10.358   8.145  68.234  1.00  0.00    -0.241 A  
HETATM    7  C   UNL     1     -11.006   9.189  68.904  1.00  0.00    -0.016 A  
HETATM    8  C   UNL     1     -11.110  10.447  68.295  1.00  0.00    -0.338 A  
HETATM    9  C   UNL     1     -11.436   9.031  70.322  1.00  0.00    -0.124 C  
HETATM   10  N   UNL     1     -11.019   7.859  70.941  1.00  0.00    -0.239 N  
HETATM   11  C   UNL     1     -10.542  10.669  67.039  1.00  0.00    -0.317 A  
HETATM   12  O   UNL     1     -11.995   9.960  70.890  1.00  0.00    -0.300 OA 
HETATM   13  C   UNL     1      -9.882   9.633  66.376  1.00  0.00    -0.309 A  
HETATM   14  C   UNL     1     -11.020   6.647  70.128  1.00  0.00    -0.305 C  
ENDROOT
BRANCH  10  15
HETATM   15  C   UNL     1     -10.360   7.867  72.267  1.00  0.00    -0.253 C  
HETATM   16  C   UNL     1      -8.856   8.263  72.274  1.00  0.00    -0.209 C  
HETATM   17  N   UNL     1      -7.999   7.251  72.953  1.00  0.00    -0.100 NA 
HETATM   18  C   UNL     1      -8.437   7.099  74.355  1.00  0.00    -0.191 C  
HETATM   19  C   UNL     1      -9.926   6.726  74.451  1.00  0.00    -0.310 C  
HETATM   20  C   UNL     1     -10.502   6.517  73.030  1.00  0.00    -0.258 C  
HETATM   21  C   UNL     1      -9.615   5.429  72.393  1.00  0.00    -0.172 C  
HETATM   22  C   UNL     1      -8.174   5.950  72.267  1.00  0.00    -0.111 C  
ENDBRANCH  10  15
TORSDOF 1
ENDMDL
MODEL      102
REMARK 921   NORMALIZED FREE ENERGY PREDICTED BY IDOCK:   -4.29 KCAL/MOL
REMARK 922        TOTAL FREE ENERGY PREDICTED BY IDOCK:   -4.84 KCAL/MOL
REMARK 923 INTER-LIGAND FREE ENERGY PREDICTED BY IDOCK:   -4.44 KCAL/MOL
REMARK 924 INTRA-LIGAND FREE ENERGY PREDICTED BY IDOCK:   -0.40 KCAL/MOL
REMARK 927      BINDING AFFINITY PREDICTED BY RF-SCORE:    0.00 PKD
ROOT
HETATM    1  C   UNL     1      -8.638  12.575  67.434  1.00  0.00    -0.187 C  
HETATM    2  C   UNL     1      -7.647  13.745  67.558  1.00  0.00    -0.185 C  
HETATM    3  C   UNL     1      -8.266  15.047  68.102  1.00  0.00    -0.140 C  
HETATM    4  C   UNL     1      -9.766  14.970  68.389  1.00  0.00    -0.216 C  
HETATM    5  C   UNL     1     -10.477  14.260  67.269  1.00  0.00    -0.269 A  
HETATM    6  C   UNL     1      -9.905  13.070  66.782  1.00  0.00    -0.243 A  
HETATM    7  C   UNL     1     -10.552  12.346  65.774  1.00  0.00    -0.288 A  
HETATM    8  C   UNL     1     -11.759  12.818  65.243  1.00  0.00    -0.403 A  
HETATM    9  C   UNL     1     -10.065  10.994  65.378  1.00  0.00    -0.269 C  
HETATM   10  N   UNL     1      -9.046  10.476  66.170  1.00  0.00    -0.158 N  
HETATM   11  C   UNL     1     -12.333  13.991  65.738  1.00  0.00    -0.506 A  
HETATM   12  O   UNL     1     -10.650  10.375  64.500  1.00  0.00    -0.149 OA 
HETATM   13  C   UNL     1     -11.698  14.707  66.754  1.00  0.00    -0.355 A  
HETATM   14  C   UNL     1      -8.033  11.414  66.639  1.00  0.00    -0.148 C  
ENDROOT
BRANCH  10  15
HETATM   15  C   UNL     1      -9.113   9.107  66.731  1.00  0.00    -0.144 C  
HETATM   16  C   UNL     1      -8.288   8.864  68.027  1.00  0.00    -0.121 C  
HETATM   17  N   UNL     1      -7.359   7.706  67.908  1.00  0.00    -0.100 NA 
HETATM   18  C   UNL     1      -8.135   6.482  67.625  1.00  0.00    -0.118 C  
HETATM   19  C   UNL     1      -9.003   6.634  66.364  1.00  0.00    -0.161 C  
HETATM   20  C   UNL     1      -8.721   8.004  65.702  1.00  0.00    -0.156 C  
HETATM   21  C   UNL     1      -7.205   8.016  65.433  1.00  0.00    -0.064 C  
HETATM   22  C   UNL     1      -6.445   7.952  66.768  1.00  0.00    -0.055 C  
ENDBRANCH  10  15
TORSDOF 1
ENDMDL
MODEL      103
REMARK 921   NORMALIZED FREE ENERGY PREDICTED BY IDOCK:   -4.26 KCAL/MOL
REMARK 922        TOTAL FREE ENERGY PREDICTED BY IDOCK:   -4.81 KCAL/MOL
REMARK 923 INTER-LIGAND FREE ENERGY PREDICTED BY IDOCK:   -4.54 KCAL/MOL
REMARK 924 INTRA-LIGAND FREE ENERGY PREDICTED BY IDOCK:   -0.26 KCAL/MOL
REMARK 927      BINDING AFFINITY PREDICTED BY RF-SCORE:    0.00 PKD
ROOT
HETATM    1  C   UNL     1      -8.282   4.818  70.518  1.00  0.00    -0.090 C  
HETATM    2  C   UNL     1      -6.996   4.237  69.906  1.00  0.00    -0.042 C  
HETATM    3  C   UNL     1      -7.191   2.893  69.176  1.00  0.00    -0.045 C  
HETATM    4  C   UNL     1      -8.618   2.344  69.217  1.00  0.00    -0.116 C  
HETATM    5  C   UNL     1      -9.195   2.491  70.599  1.00  0.00    -0.203 A  
HETATM    6  C   UNL     1      -9.014   3.723  71.255  1.00  0.00    -0.160 A  
HETATM    7  C   UNL     1      -9.573   3.928  72.522  1.00  0.00    -0.188 A  
HETATM    8  C   UNL     1     -10.296   2.899  73.138  1.00  0.00    -0.234 A  
HETATM    9  C   UNL     1      -9.555   5.280  73.150  1.00  0.00    -0.145 C  
HETATM   10  N   UNL     1      -9.090   6.306  72.336  1.00  0.00    -0.139 N  
HETATM   11  C   UNL     1     -10.488   1.683  72.479  1.00  0.00    -0.229 A  
HETATM   12  O   UNL     1     -10.056   5.438  74.255  1.00  0.00    -0.203 OA 
HETATM   13  C   UNL     1      -9.944   1.481  71.210  1.00  0.00    -0.139 A  
HETATM   14  C   UNL     1      -7.973   5.992  71.452  1.00  0.00    -0.113 C  
ENDROOT
BRANCH  10  15
HETATM   15  C   UNL     1      -9.838   7.573  72.171  1.00  0.00    -0.169 C  
HETATM   16  C   UNL     1     -11.148   7.700  73.000  1.00  0.00    -0.381 C  
HETATM   17  N   UNL     1     -12.329   8.042  72.158  1.00  0.00    -0.321 NA 
HETATM   18  C   UNL     1     -12.091   9.333  71.482  1.00  0.00    -0.361 C  
HETATM   19  C   UNL     1     -10.798   9.311  70.648  1.00  0.00    -0.339 C  
HETATM   20  C   UNL     1     -10.181   7.893  70.685  1.00  0.00    -0.199 C  
HETATM   21  C   UNL     1     -11.287   6.958  70.162  1.00  0.00    -0.364 C  
HETATM   22  C   UNL     1     -12.488   6.995  71.123  1.00  0.00    -0.362 C  
ENDBRANCH  10  15
TORSDOF 1
ENDMDL
MODEL      104
REMARK 921   NORMALIZED FREE ENERGY PREDICTED BY IDOCK:   -4.25 KCAL/MOL
REMARK 922        TOTAL FREE ENERGY PREDICTED BY IDOCK:   -4.79 KCAL/MOL
REMARK 923 INTER-LIGAND FREE ENERGY PREDICTED BY IDOCK:   -4.48 KCAL/MOL
REMARK 924 INTRA-LIGAND FREE ENERGY PREDICTED BY IDOCK:   -0.31 KCAL/MOL
REMARK 927      BINDING AFFINITY PREDICTED BY RF-SCORE:    0.00 PKD
ROOT
HETATM    1  C   UNL     1     -10.123  14.790  66.962  1.00  0.00    -0.245 C  
HETATM    2  C   UNL     1     -11.096  15.152  65.826  1.00  0.00    -0.330 C  
HETATM    3  C   UNL     1     -12.339  14.245  65.741  1.00  0.00    -0.420 C  
HETATM    4  C   UNL     1     -12.378  13.115  66.771  1.00  0.00    -0.173 C  
HETATM    5  C   UNL     1     -11.028  12.460  66.880  1.00  0.00    -0.307 A  
HETATM    6  C   UNL     1      -9.899  13.298  66.960  1.00  0.00    -0.242 A  
HETATM    7  C   UNL     1      -8.625  12.739  67.111  1.00  0.00    -0.197 A  
HETATM    8  C   UNL     1      -8.477  11.347  67.165  1.00  0.00    -0.153 A  
HETATM    9  C   UNL     1      -7.444  13.606  67.387  1.00  0.00    -0.123 C  
HETATM   10  N   UNL     1      -7.733  14.946  67.621  1.00  0.00    -0.162 N  
HETATM   11  C   UNL     1      -9.599  10.519  67.101  1.00  0.00    -0.194 A  
HETATM   12  O   UNL     1      -6.340  13.096  67.523  1.00  0.00    -0.158 OA 
HETATM   13  C   UNL     1     -10.872  11.073  66.965  1.00  0.00    -0.334 A  
HETATM   14  C   UNL     1      -8.796  15.541  66.819  1.00  0.00    -0.265 C  
ENDROOT
BRANCH  10  15
HETATM   15  C   UNL     1      -7.187  15.670  68.791  1.00  0.00    -0.133 C  
HETATM   16  C   UNL     1      -7.860  17.032  69.122  1.00  0.00    -0.089 C  
HETATM   17  N   UNL     1      -6.881  18.150  69.217  1.00  0.00    -0.228 NA 
HETATM   18  C   UNL     1      -5.903  17.855  70.282  1.00  0.00    -0.141 C  
HETATM   19  C   UNL     1      -5.194  16.509  70.051  1.00  0.00    -0.174 C  
HETATM   20  C   UNL     1      -5.650  15.908  68.700  1.00  0.00    -0.102 C  
HETATM   21  C   UNL     1      -5.320  16.985  67.650  1.00  0.00    -0.138 C  
HETATM   22  C   UNL     1      -6.153  18.248  67.930  1.00  0.00    -0.175 C  
ENDBRANCH  10  15
TORSDOF 1
ENDMDL
MODEL      105
REMARK 921   NORMALIZED FREE ENERGY PREDICTED BY IDOCK:   -4.23 KCAL/MOL
REMARK 922        TOTAL FREE ENERGY PREDICTED BY IDOCK:   -4.78 KCAL/MOL
REMARK 923 INTER-LIGAND FREE ENERGY PREDICTED BY IDOCK:   -4.36 KCAL/MOL
REMARK 924 INTRA-LIGAND FREE ENERGY PREDICTED BY IDOCK:   -0.41 KCAL/MOL
REMARK 927      BINDING AFFINITY PREDICTED BY RF-SCORE:    0.00 PKD
ROOT
HETATM    1  C   UNL     1      -9.787   8.226  68.684  1.00  0.00    -0.186 C  
HETATM    2  C   UNL     1      -9.336   8.719  70.069  1.00  0.00    -0.175 C  
HETATM    3  C   UNL     1     -10.245   9.800  70.686  1.00  0.00    -0.290 C  
HETATM    4  C   UNL     1     -11.419  10.228  69.802  1.00  0.00    -0.320 C  
HETATM    5  C   UNL     1     -10.962  10.412  68.380  1.00  0.00    -0.312 A  
HETATM    6  C   UNL     1     -10.134   9.418  67.826  1.00  0.00    -0.246 A  
HETATM    7  C   UNL     1      -9.722   9.516  66.492  1.00  0.00    -0.284 A  
HETATM    8  C   UNL     1     -10.122  10.614  65.719  1.00  0.00    -0.327 A  
HETATM    9  C   UNL     1      -9.006   8.387  65.833  1.00  0.00    -0.178 C  
HETATM   10  N   UNL     1      -8.922   7.220  66.583  1.00  0.00    -0.144 N  
HETATM   11  C   UNL     1     -10.956  11.592  66.266  1.00  0.00    -0.328 A  
HETATM   12  O   UNL     1      -8.661   8.492  64.664  1.00  0.00    -0.150 OA 
HETATM   13  C   UNL     1     -11.381  11.487  67.592  1.00  0.00    -0.358 A  
HETATM   14  C   UNL     1      -8.704   7.371  68.018  1.00  0.00    -0.124 C  
ENDROOT
BRANCH  10  15
HETATM   15  C   UNL     1      -9.291   5.901  66.020  1.00  0.00    -0.097 C  
HETATM   16  C   UNL     1      -9.785   4.840  67.043  1.00  0.00    -0.186 C  
HETATM   17  N   UNL     1      -9.027   3.561  66.956  1.00  0.00    -0.136 NA 
HETATM   18  C   UNL     1      -9.180   2.993  65.602  1.00  0.00    -0.129 C  
HETATM   19  C   UNL     1      -8.732   3.984  64.513  1.00  0.00    -0.124 C  
HETATM   20  C   UNL     1      -8.152   5.256  65.175  1.00  0.00    -0.122 C  
HETATM   21  C   UNL     1      -7.013   4.753  66.081  1.00  0.00    -0.070 C  
HETATM   22  C   UNL     1      -7.592   3.848  67.182  1.00  0.00    -0.080 C  
ENDBRANCH  10  15
TORSDOF 1
ENDMDL
MODEL      106
REMARK 921   NORMALIZED FREE ENERGY PREDICTED BY IDOCK:   -4.17 KCAL/MOL
REMARK 922        TOTAL FREE ENERGY PREDICTED BY IDOCK:   -4.71 KCAL/MOL
REMARK 923 INTER-LIGAND FREE ENERGY PREDICTED BY IDOCK:   -4.40 KCAL/MOL
REMARK 924 INTRA-LIGAND FREE ENERGY PREDICTED BY IDOCK:   -0.32 KCAL/MOL
REMARK 927      BINDING AFFINITY PREDICTED BY RF-SCORE:    0.00 PKD
ROOT
HETATM    1  C   UNL     1     -10.757   6.462  70.429  1.00  0.00    -0.317 C  
HETATM    2  C   UNL     1     -12.103   7.188  70.596  1.00  0.00    -0.281 C  
HETATM    3  C   UNL     1     -12.284   7.884  71.959  1.00  0.00    -0.357 C  
HETATM    4  C   UNL     1     -11.116   7.703  72.930  1.00  0.00    -0.448 C  
HETATM    5  C   UNL     1     -10.645   6.274  72.920  1.00  0.00    -0.257 A  
HETATM    6  C   UNL     1     -10.480   5.649  71.670  1.00  0.00    -0.286 A  
HETATM    7  C   UNL     1      -9.997   4.336  71.603  1.00  0.00    -0.250 A  
HETATM    8  C   UNL     1      -9.696   3.645  72.784  1.00  0.00    -0.194 A  
HETATM    9  C   UNL     1      -9.637   3.725  70.293  1.00  0.00    -0.187 C  
HETATM   10  N   UNL     1      -9.678   4.589  69.204  1.00  0.00    -0.184 N  
HETATM   11  C   UNL     1      -9.847   4.272  74.023  1.00  0.00    -0.164 A  
HETATM   12  O   UNL     1      -9.210   2.579  70.258  1.00  0.00    -0.106 OA 
HETATM   13  C   UNL     1     -10.313   5.586  74.091  1.00  0.00    -0.302 A  
HETATM   14  C   UNL     1     -10.755   5.572  69.182  1.00  0.00    -0.190 C  
ENDROOT
BRANCH  10  15
HETATM   15  C   UNL     1      -8.553   4.694  68.247  1.00  0.00    -0.098 C  
HETATM   16  C   UNL     1      -8.562   5.944  67.323  1.00  0.00    -0.106 C  
HETATM   17  N   UNL     1      -8.463   5.593  65.879  1.00  0.00    -0.131 NA 
HETATM   18  C   UNL     1      -7.206   4.858  65.638  1.00  0.00    -0.072 C  
HETATM   19  C   UNL     1      -7.096   3.607  66.527  1.00  0.00    -0.063 C  
HETATM   20  C   UNL     1      -8.399   3.434  67.343  1.00  0.00    -0.095 C  
HETATM   21  C   UNL     1      -9.525   3.369  66.294  1.00  0.00    -0.128 C  
HETATM   22  C   UNL     1      -9.597   4.704  65.533  1.00  0.00    -0.179 C  
ENDBRANCH  10  15
TORSDOF 1
ENDMDL
MODEL      107
REMARK 921   NORMALIZED FREE ENERGY PREDICTED BY IDOCK:   -4.16 KCAL/MOL
REMARK 922        TOTAL FREE ENERGY PREDICTED BY IDOCK:   -4.70 KCAL/MOL
REMARK 923 INTER-LIGAND FREE ENERGY PREDICTED BY IDOCK:   -4.43 KCAL/MOL
REMARK 924 INTRA-LIGAND FREE ENERGY PREDICTED BY IDOCK:   -0.27 KCAL/MOL
REMARK 927      BINDING AFFINITY PREDICTED BY RF-SCORE:    0.00 PKD
ROOT
HETATM    1  C   UNL     1     -10.978  10.565  68.834  1.00  0.00    -0.291 C  
HETATM    2  C   UNL     1     -12.005  11.708  68.763  1.00  0.00    -0.326 C  
HETATM    3  C   UNL     1     -11.906  12.574  67.492  1.00  0.00    -0.389 C  
HETATM    4  C   UNL     1     -10.780  12.177  66.535  1.00  0.00    -0.290 C  
HETATM    5  C   UNL     1      -9.517  11.895  67.302  1.00  0.00    -0.176 A  
HETATM    6  C   UNL     1      -9.619  11.102  68.460  1.00  0.00    -0.193 A  
HETATM    7  C   UNL     1      -8.467  10.770  69.182  1.00  0.00    -0.105 A  
HETATM    8  C   UNL     1      -7.218  11.245  68.758  1.00  0.00    -0.104 A  
HETATM    9  C   UNL     1      -8.527   9.781  70.295  1.00  0.00    -0.126 C  
HETATM   10  N   UNL     1      -9.747   9.132  70.447  1.00  0.00    -0.204 N  
HETATM   11  C   UNL     1      -7.118  12.020  67.601  1.00  0.00    -0.118 A  
HETATM   12  O   UNL     1      -7.506   9.500  70.909  1.00  0.00    -0.259 OA 
HETATM   13  C   UNL     1      -8.264  12.339  66.870  1.00  0.00    -0.112 A  
HETATM   14  C   UNL     1     -10.949   9.928  70.226  1.00  0.00    -0.309 C  
ENDROOT
BRANCH  10  15
HETATM   15  C   UNL     1      -9.839   7.659  70.567  1.00  0.00    -0.183 C  
HETATM   16  C   UNL     1      -8.485   6.895  70.594  1.00  0.00    -0.136 C  
HETATM   17  N   UNL     1      -8.412   5.818  69.567  1.00  0.00    -0.111 NA 
HETATM   18  C   UNL     1      -9.491   4.840  69.805  1.00  0.00    -0.162 C  
HETATM   19  C   UNL     1     -10.877   5.510  69.816  1.00  0.00    -0.291 C  
HETATM   20  C   UNL     1     -10.731   7.010  69.467  1.00  0.00    -0.263 C  
HETATM   21  C   UNL     1     -10.024   7.038  68.098  1.00  0.00    -0.169 C  
HETATM   22  C   UNL     1      -8.619   6.427  68.232  1.00  0.00    -0.114 C  
ENDBRANCH  10  15
TORSDOF 1
ENDMDL
MODEL      108
REMARK 921   NORMALIZED FREE ENERGY PREDICTED BY IDOCK:   -4.16 KCAL/MOL
REMARK 922        TOTAL FREE ENERGY PREDICTED BY IDOCK:   -4.70 KCAL/MOL
REMARK 923 INTER-LIGAND FREE ENERGY PREDICTED BY IDOCK:   -4.29 KCAL/MOL
REMARK 924 INTRA-LIGAND FREE ENERGY PREDICTED BY IDOCK:   -0.41 KCAL/MOL
REMARK 927      BINDING AFFINITY PREDICTED BY RF-SCORE:    0.00 PKD
ROOT
HETATM    1  C   UNL     1      -9.814  17.091  67.163  1.00  0.00    -0.269 C  
HETATM    2  C   UNL     1     -10.727  17.908  68.092  1.00  0.00    -0.287 C  
HETATM    3  C   UNL     1     -11.015  19.341  67.602  1.00  0.00    -0.382 C  
HETATM    4  C   UNL     1     -10.314  19.723  66.297  1.00  0.00    -0.626 C  
HETATM    5  C   UNL     1      -8.885  19.252  66.314  1.00  0.00    -0.341 A  
HETATM    6  C   UNL     1      -8.633  17.941  66.761  1.00  0.00    -0.271 A  
HETATM    7  C   UNL     1      -7.327  17.439  66.751  1.00  0.00    -0.250 A  
HETATM    8  C   UNL     1      -6.273  18.249  66.311  1.00  0.00    -0.234 A  
HETATM    9  C   UNL     1      -7.065  16.000  67.039  1.00  0.00    -0.198 C  
HETATM   10  N   UNL     1      -8.198  15.204  67.164  1.00  0.00    -0.207 N  
HETATM   11  C   UNL     1      -6.526  19.544  65.854  1.00  0.00    -0.234 A  
HETATM   12  O   UNL     1      -5.916  15.580  67.017  1.00  0.00    -0.270 OA 
HETATM   13  C   UNL     1      -7.830  20.042  65.848  1.00  0.00    -0.277 A  
HETATM   14  C   UNL     1      -9.350  15.796  67.836  1.00  0.00    -0.200 C  
ENDROOT
BRANCH  10  15
HETATM   15  C   UNL     1      -8.338  13.923  66.434  1.00  0.00     0.680 C  
HETATM   16  C   UNL     1      -9.794  13.463  66.142  1.00  0.00    -0.281 C  
HETATM   17  N   UNL     1     -10.068  12.081  66.625  1.00  0.00    -0.196 NA 
HETATM   18  C   UNL     1      -9.150  11.138  65.956  1.00  0.00    -0.203 C  
HETATM   19  C   UNL     1      -7.676  11.524  66.172  1.00  0.00     0.154 C  
HETATM   20  C   UNL     1      -7.593  12.742  67.124  1.00  0.00    -0.050 C  
HETATM   21  C   UNL     1      -8.327  12.301  68.404  1.00  0.00    -0.144 C  
HETATM   22  C   UNL     1      -9.807  12.031  68.082  1.00  0.00    -0.201 C  
ENDBRANCH  10  15
TORSDOF 1
ENDMDL
MODEL      109
REMARK 921   NORMALIZED FREE ENERGY PREDICTED BY IDOCK:   -4.11 KCAL/MOL
REMARK 922        TOTAL FREE ENERGY PREDICTED BY IDOCK:   -4.65 KCAL/MOL
REMARK 923 INTER-LIGAND FREE ENERGY PREDICTED BY IDOCK:   -4.37 KCAL/MOL
REMARK 924 INTRA-LIGAND FREE ENERGY PREDICTED BY IDOCK:   -0.28 KCAL/MOL
REMARK 927      BINDING AFFINITY PREDICTED BY RF-SCORE:    0.00 PKD
ROOT
HETATM    1  C   UNL     1     -11.118   7.341  69.859  1.00  0.00    -0.233 C  
HETATM    2  C   UNL     1     -12.238   6.482  70.469  1.00  0.00    -0.106 C  
HETATM    3  C   UNL     1     -12.686   6.927  71.875  1.00  0.00    -0.313 C  
HETATM    4  C   UNL     1     -11.917   8.122  72.442  1.00  0.00    -0.431 C  
HETATM    5  C   UNL     1     -10.443   7.965  72.184  1.00  0.00    -0.308 A  
HETATM    6  C   UNL     1     -10.044   7.560  70.897  1.00  0.00    -0.192 A  
HETATM    7  C   UNL     1      -8.683   7.446  70.590  1.00  0.00    -0.142 A  
HETATM    8  C   UNL     1      -7.724   7.720  71.574  1.00  0.00    -0.087 A  
HETATM    9  C   UNL     1      -8.238   7.205  69.189  1.00  0.00    -0.122 C  
HETATM   10  N   UNL     1      -9.244   7.252  68.230  1.00  0.00    -0.134 N  
HETATM   11  C   UNL     1      -8.121   8.136  72.846  1.00  0.00    -0.224 A  
HETATM   12  O   UNL     1      -7.042   7.116  68.942  1.00  0.00    -0.079 OA 
HETATM   13  C   UNL     1      -9.477   8.265  73.149  1.00  0.00    -0.263 A  
HETATM   14  C   UNL     1     -10.536   6.687  68.602  1.00  0.00    -0.234 C  
ENDROOT
BRANCH  10  15
HETATM   15  C   UNL     1      -9.109   8.058  66.996  1.00  0.00    -0.144 C  
HETATM   16  C   UNL     1      -7.704   8.673  66.737  1.00  0.00    -0.093 C  
HETATM   17  N   UNL     1      -7.754  10.145  66.513  1.00  0.00    -0.106 NA 
HETATM   18  C   UNL     1      -8.601  10.434  65.339  1.00  0.00    -0.174 C  
HETATM   19  C   UNL     1     -10.014   9.844  65.495  1.00  0.00    -0.363 C  
HETATM   20  C   UNL     1     -10.158   9.206  66.897  1.00  0.00    -0.328 C  
HETATM   21  C   UNL     1      -9.831  10.337  67.889  1.00  0.00    -0.181 C  
HETATM   22  C   UNL     1      -8.370  10.781  67.701  1.00  0.00    -0.119 C  
ENDBRANCH  10  15
TORSDOF 1
ENDMDL
MODEL      110
REMARK 921   NORMALIZED FREE ENERGY PREDICTED BY IDOCK:   -4.10 KCAL/MOL
REMARK 922        TOTAL FREE ENERGY PREDICTED BY IDOCK:   -4.64 KCAL/MOL
REMARK 923 INTER-LIGAND FREE ENERGY PREDICTED BY IDOCK:   -4.26 KCAL/MOL
REMARK 924 INTRA-LIGAND FREE ENERGY PREDICTED BY IDOCK:   -0.38 KCAL/MOL
REMARK 927      BINDING AFFINITY PREDICTED BY RF-SCORE:    0.00 PKD
ROOT
HETATM    1  C   UNL     1      -8.520  11.845  68.126  1.00  0.00    -0.163 C  
HETATM    2  C   UNL     1      -7.191  12.563  68.419  1.00  0.00    -0.111 C  
HETATM    3  C   UNL     1      -7.256  14.097  68.286  1.00  0.00    -0.116 C  
HETATM    4  C   UNL     1      -8.615  14.644  67.847  1.00  0.00    -0.165 C  
HETATM    5  C   UNL     1      -9.177  13.810  66.728  1.00  0.00    -0.255 A  
HETATM    6  C   UNL     1      -9.116  12.410  66.861  1.00  0.00    -0.211 A  
HETATM    7  C   UNL     1      -9.668  11.590  65.871  1.00  0.00    -0.260 A  
HETATM    8  C   UNL     1     -10.265  12.167  64.742  1.00  0.00    -0.310 A  
HETATM    9  C   UNL     1      -9.783  10.119  66.080  1.00  0.00    -0.218 C  
HETATM   10  N   UNL     1      -9.445   9.673  67.353  1.00  0.00    -0.140 N  
HETATM   11  C   UNL     1     -10.339  13.556  64.619  1.00  0.00    -0.406 A  
HETATM   12  O   UNL     1     -10.276   9.421  65.204  1.00  0.00     0.164 OA 
HETATM   13  C   UNL     1      -9.802  14.376  65.613  1.00  0.00    -0.322 A  
HETATM   14  C   UNL     1      -8.319  10.331  68.006  1.00  0.00    -0.114 C  
ENDROOT
BRANCH  10  15
HETATM   15  C   UNL     1     -10.328   8.766  68.123  1.00  0.00    -0.216 C  
HETATM   16  C   UNL     1     -10.125   8.769  69.665  1.00  0.00    -0.204 C  
HETATM   17  N   UNL     1      -9.893   7.404  70.215  1.00  0.00    -0.186 NA 
HETATM   18  C   UNL     1     -11.057   6.549  69.911  1.00  0.00    -0.371 C  
HETATM   19  C   UNL     1     -11.351   6.500  68.401  1.00  0.00    -0.154 C  
HETATM   20  C   UNL     1     -10.262   7.289  67.635  1.00  0.00    -0.257 C  
HETATM   21  C   UNL     1      -8.929   6.633  68.042  1.00  0.00    -0.117 C  
HETATM   22  C   UNL     1      -8.702   6.825  69.552  1.00  0.00    -0.133 C  
ENDBRANCH  10  15
TORSDOF 1
ENDMDL
MODEL      111
REMARK 921   NORMALIZED FREE ENERGY PREDICTED BY IDOCK:   -4.02 KCAL/MOL
REMARK 922        TOTAL FREE ENERGY PREDICTED BY IDOCK:   -4.56 KCAL/MOL
REMARK 923 INTER-LIGAND FREE ENERGY PREDICTED BY IDOCK:   -4.59 KCAL/MOL
REMARK 924 INTRA-LIGAND FREE ENERGY PREDICTED BY IDOCK:    0.03 KCAL/MOL
REMARK 927      BINDING AFFINITY PREDICTED BY RF-SCORE:    0.00 PKD
ROOT
HETATM    1  C   UNL     1     -10.130  13.094  67.336  1.00  0.00    -0.229 C  
HETATM    2  C   UNL     1     -10.709  13.773  66.083  1.00  0.00    -0.283 C  
HETATM    3  C   UNL     1     -11.236  15.201  66.320  1.00  0.00    -0.273 C  
HETATM    4  C   UNL     1     -11.134  15.689  67.767  1.00  0.00    -0.311 C  
HETATM    5  C   UNL     1     -11.568  14.604  68.716  1.00  0.00    -0.346 A  
HETATM    6  C   UNL     1     -11.078  13.304  68.491  1.00  0.00    -0.294 A  
HETATM    7  C   UNL     1     -11.412  12.270  69.373  1.00  0.00    -0.341 A  
HETATM    8  C   UNL     1     -12.248  12.531  70.466  1.00  0.00    -0.382 A  
HETATM    9  C   UNL     1     -10.756  10.937  69.263  1.00  0.00    -0.231 C  
HETATM   10  N   UNL     1      -9.717  10.861  68.342  1.00  0.00    -0.169 N  
HETATM   11  C   UNL     1     -12.722  13.825  70.696  1.00  0.00    -0.330 A  
HETATM   12  O   UNL     1     -11.058  10.048  70.049  1.00  0.00    -0.256 OA 
HETATM   13  C   UNL     1     -12.377  14.861  69.827  1.00  0.00    -0.283 A  
HETATM   14  C   UNL     1      -9.884  11.602  67.097  1.00  0.00    -0.188 C  
ENDROOT
BRANCH  10  15
HETATM   15  C   UNL     1      -8.400  10.283  68.697  1.00  0.00    -0.122 C  
HETATM   16  C   UNL     1      -7.347  11.283  69.252  1.00  0.00    -0.068 C  
HETATM   17  N   UNL     1      -6.060  11.237  68.503  1.00  0.00    -0.042 NA 
HETATM   18  C   UNL     1      -5.490   9.879  68.594  1.00  0.00    -0.035 C  
HETATM   19  C   UNL     1      -6.473   8.811  68.083  1.00  0.00    -0.060 C  
HETATM   20  C   UNL     1      -7.741   9.498  67.524  1.00  0.00    -0.095 C  
HETATM   21  C   UNL     1      -7.230  10.461  66.436  1.00  0.00    -0.119 C  
HETATM   22  C   UNL     1      -6.334  11.534  67.078  1.00  0.00    -0.133 C  
ENDBRANCH  10  15
TORSDOF 1
ENDMDL
MODEL      112
REMARK 921   NORMALIZED FREE ENERGY PREDICTED BY IDOCK:   -3.99 KCAL/MOL
REMARK 922        TOTAL FREE ENERGY PREDICTED BY IDOCK:   -4.52 KCAL/MOL
REMARK 923 INTER-LIGAND FREE ENERGY PREDICTED BY IDOCK:   -4.27 KCAL/MOL
REMARK 924 INTRA-LIGAND FREE ENERGY PREDICTED BY IDOCK:   -0.26 KCAL/MOL
REMARK 927      BINDING AFFINITY PREDICTED BY RF-SCORE:    0.00 PKD
ROOT
HETATM    1  C   UNL     1      -9.415   6.799  67.781  1.00  0.00    -0.121 C  
HETATM    2  C   UNL     1      -9.322   6.542  66.267  1.00  0.00    -0.144 C  
HETATM    3  C   UNL     1      -8.057   7.117  65.602  1.00  0.00    -0.133 C  
HETATM    4  C   UNL     1      -7.127   7.880  66.548  1.00  0.00    -0.075 C  
HETATM    5  C   UNL     1      -7.926   8.780  67.452  1.00  0.00    -0.098 A  
HETATM    6  C   UNL     1      -9.078   8.244  68.056  1.00  0.00    -0.139 A  
HETATM    7  C   UNL     1      -9.829   9.024  68.943  1.00  0.00    -0.181 A  
HETATM    8  C   UNL     1      -9.438  10.342  69.212  1.00  0.00    -0.214 A  
HETATM    9  C   UNL     1     -10.937   8.419  69.736  1.00  0.00    -0.127 C  
HETATM   10  N   UNL     1     -11.055   7.038  69.632  1.00  0.00    -0.243 N  
HETATM   11  C   UNL     1      -8.287  10.868  68.623  1.00  0.00    -0.148 A  
HETATM   12  O   UNL     1     -11.576   9.118  70.511  1.00  0.00    -0.263 OA 
HETATM   13  C   UNL     1      -7.528  10.086  67.750  1.00  0.00    -0.089 A  
HETATM   14  C   UNL     1     -10.806   6.451  68.320  1.00  0.00    -0.309 C  
ENDROOT
BRANCH  10  15
HETATM   15  C   UNL     1     -11.167   6.172  70.828  1.00  0.00    -0.306 C  
HETATM   16  C   UNL     1     -11.843   6.816  72.072  1.00  0.00    -0.314 C  
HETATM   17  N   UNL     1     -11.002   6.718  73.297  1.00  0.00    -0.256 NA 
HETATM   18  C   UNL     1     -10.746   5.297  73.604  1.00  0.00    -0.294 C  
HETATM   19  C   UNL     1     -10.093   4.566  72.418  1.00  0.00    -0.243 C  
HETATM   20  C   UNL     1      -9.802   5.575  71.282  1.00  0.00    -0.228 C  
HETATM   21  C   UNL     1      -8.915   6.658  71.925  1.00  0.00    -0.136 C  
HETATM   22  C   UNL     1      -9.704   7.379  73.031  1.00  0.00    -0.206 C  
ENDBRANCH  10  15
TORSDOF 1
ENDMDL
MODEL      113
REMARK 921   NORMALIZED FREE ENERGY PREDICTED BY IDOCK:   -3.95 KCAL/MOL
REMARK 922        TOTAL FREE ENERGY PREDICTED BY IDOCK:   -4.48 KCAL/MOL
REMARK 923 INTER-LIGAND FREE ENERGY PREDICTED BY IDOCK:   -4.22 KCAL/MOL
REMARK 924 INTRA-LIGAND FREE ENERGY PREDICTED BY IDOCK:   -0.26 KCAL/MOL
REMARK 927      BINDING AFFINITY PREDICTED BY RF-SCORE:    0.00 PKD
ROOT
HETATM    1  C   UNL     1      -8.759   6.603  71.505  1.00  0.00    -0.131 C  
HETATM    2  C   UNL     1      -8.144   6.666  72.914  1.00  0.00    -0.107 C  
HETATM    3  C   UNL     1      -9.152   6.997  74.032  1.00  0.00    -0.243 C  
HETATM    4  C   UNL     1     -10.582   7.246  73.551  1.00  0.00    -0.408 C  
HETATM    5  C   UNL     1     -10.576   8.114  72.321  1.00  0.00    -0.378 A  
HETATM    6  C   UNL     1      -9.654   7.801  71.305  1.00  0.00    -0.178 A  
HETATM    7  C   UNL     1      -9.641   8.547  70.121  1.00  0.00    -0.174 A  
HETATM    8  C   UNL     1     -10.535   9.613  69.959  1.00  0.00    -0.301 A  
HETATM    9  C   UNL     1      -8.808   8.117  68.962  1.00  0.00    -0.144 C  
HETATM   10  N   UNL     1      -8.189   6.879  69.103  1.00  0.00    -0.120 N  
HETATM   11  C   UNL     1     -11.459   9.913  70.963  1.00  0.00    -0.466 A  
HETATM   12  O   UNL     1      -8.816   8.780  67.933  1.00  0.00    -0.135 OA 
HETATM   13  C   UNL     1     -11.485   9.161  72.138  1.00  0.00    -0.238 A  
HETATM   14  C   UNL     1      -7.673   6.547  70.426  1.00  0.00    -0.098 C  
ENDROOT
BRANCH  10  15
HETATM   15  C   UNL     1      -8.273   5.840  68.051  1.00  0.00    -0.104 C  
HETATM   16  C   UNL     1      -8.507   6.357  66.603  1.00  0.00    -0.115 C  
HETATM   17  N   UNL     1      -9.679   5.714  65.947  1.00  0.00    -0.054 NA 
HETATM   18  C   UNL     1      -9.465   4.256  65.880  1.00  0.00    -0.176 C  
HETATM   19  C   UNL     1      -9.203   3.652  67.272  1.00  0.00    -0.215 C  
HETATM   20  C   UNL     1      -9.347   4.753  68.350  1.00  0.00    -0.177 C  
HETATM   21  C   UNL     1     -10.768   5.317  68.161  1.00  0.00     0.023 C  
HETATM   22  C   UNL     1     -10.881   5.972  66.774  1.00  0.00    -0.279 C  
ENDBRANCH  10  15
TORSDOF 1
ENDMDL
MODEL      114
REMARK 921   NORMALIZED FREE ENERGY PREDICTED BY IDOCK:   -3.93 KCAL/MOL
REMARK 922        TOTAL FREE ENERGY PREDICTED BY IDOCK:   -4.46 KCAL/MOL
REMARK 923 INTER-LIGAND FREE ENERGY PREDICTED BY IDOCK:   -4.40 KCAL/MOL
REMARK 924 INTRA-LIGAND FREE ENERGY PREDICTED BY IDOCK:   -0.06 KCAL/MOL
REMARK 927      BINDING AFFINITY PREDICTED BY RF-SCORE:    0.00 PKD
ROOT
HETATM    1  C   UNL     1      -8.470   7.002  67.593  1.00  0.00    -0.123 C  
HETATM    2  C   UNL     1      -7.083   7.492  67.145  1.00  0.00    -0.085 C  
HETATM    3  C   UNL     1      -6.673   7.035  65.732  1.00  0.00    -0.052 C  
HETATM    4  C   UNL     1      -7.695   6.140  65.028  1.00  0.00    -0.099 C  
HETATM    5  C   UNL     1      -8.228   5.106  65.982  1.00  0.00    -0.114 A  
HETATM    6  C   UNL     1      -8.601   5.534  67.270  1.00  0.00    -0.108 A  
HETATM    7  C   UNL     1      -9.148   4.621  68.179  1.00  0.00    -0.148 A  
HETATM    8  C   UNL     1      -9.306   3.279  67.808  1.00  0.00    -0.246 A  
HETATM    9  C   UNL     1      -9.723   5.089  69.472  1.00  0.00    -0.189 C  
HETATM   10  N   UNL     1      -9.801   6.469  69.622  1.00  0.00    -0.158 N  
HETATM   11  C   UNL     1      -8.948   2.859  66.525  1.00  0.00    -0.163 A  
HETATM   12  O   UNL     1     -10.203   4.274  70.249  1.00  0.00    -0.138 OA 
HETATM   13  C   UNL     1      -8.417   3.771  65.611  1.00  0.00    -0.110 A  
HETATM   14  C   UNL     1      -8.694   7.254  69.087  1.00  0.00    -0.136 C  
ENDROOT
BRANCH  10  15
HETATM   15  C   UNL     1     -11.047   7.137  70.060  1.00  0.00    -0.258 C  
HETATM   16  C   UNL     1     -10.958   8.677  70.259  1.00  0.00    -0.236 C  
HETATM   17  N   UNL     1     -11.419   9.110  71.607  1.00  0.00    -0.358 NA 
HETATM   18  C   UNL     1     -12.827   8.708  71.796  1.00  0.00    -0.359 C  
HETATM   19  C   UNL     1     -13.020   7.194  71.598  1.00  0.00    -0.415 C  
HETATM   20  C   UNL     1     -11.647   6.523  71.360  1.00  0.00    -0.371 C  
HETATM   21  C   UNL     1     -10.798   6.898  72.589  1.00  0.00    -0.290 C  
HETATM   22  C   UNL     1     -10.597   8.422  72.630  1.00  0.00    -0.242 C  
ENDBRANCH  10  15
TORSDOF 1
ENDMDL
MODEL      115
REMARK 921   NORMALIZED FREE ENERGY PREDICTED BY IDOCK:   -3.91 KCAL/MOL
REMARK 922        TOTAL FREE ENERGY PREDICTED BY IDOCK:   -4.43 KCAL/MOL
REMARK 923 INTER-LIGAND FREE ENERGY PREDICTED BY IDOCK:   -5.16 KCAL/MOL
REMARK 924 INTRA-LIGAND FREE ENERGY PREDICTED BY IDOCK:    0.73 KCAL/MOL
REMARK 927      BINDING AFFINITY PREDICTED BY RF-SCORE:    0.00 PKD
ROOT
HETATM    1  C   UNL     1      -9.765  15.387  65.962  1.00  0.00    -0.370 C  
HETATM    2  C   UNL     1      -9.739  14.027  65.246  1.00  0.00    -0.054 C  
HETATM    3  C   UNL     1     -11.075  13.260  65.288  1.00  0.00    -0.306 C  
HETATM    4  C   UNL     1     -12.189  13.960  66.069  1.00  0.00    -0.495 C  
HETATM    5  C   UNL     1     -11.651  14.522  67.357  1.00  0.00    -0.406 A  
HETATM    6  C   UNL     1     -10.431  15.223  67.306  1.00  0.00    -0.275 A  
HETATM    7  C   UNL     1      -9.912  15.806  68.467  1.00  0.00    -0.208 A  
HETATM    8  C   UNL     1     -10.602  15.676  69.680  1.00  0.00    -0.284 A  
HETATM    9  C   UNL     1      -8.727  16.708  68.400  1.00  0.00    -0.225 C  
HETATM   10  N   UNL     1      -8.295  17.024  67.116  1.00  0.00    -0.185 N  
HETATM   11  C   UNL     1     -11.819  14.993  69.726  1.00  0.00    -0.357 A  
HETATM   12  O   UNL     1      -8.294  17.214  69.426  1.00  0.00     0.044 OA 
HETATM   13  C   UNL     1     -12.346  14.424  68.566  1.00  0.00    -0.039 A  
HETATM   14  C   UNL     1      -8.353  15.960  66.120  1.00  0.00    -0.050 C  
ENDROOT
BRANCH  10  15
HETATM   15  C   UNL     1      -8.035  18.422  66.702  1.00  0.00    -0.258 C  
HETATM   16  C   UNL     1      -6.956  18.613  65.598  1.00  0.00    -0.220 C  
HETATM   17  N   UNL     1      -5.892  19.576  65.997  1.00  0.00    -0.167 NA 
HETATM   18  C   UNL     1      -6.499  20.892  66.272  1.00  0.00    -0.238 C  
HETATM   19  C   UNL     1      -7.600  20.800  67.344  1.00  0.00    -0.349 C  
HETATM   20  C   UNL     1      -7.670  19.356  67.894  1.00  0.00    -0.319 C  
HETATM   21  C   UNL     1      -6.252  19.054  68.414  1.00  0.00    -0.239 C  
HETATM   22  C   UNL     1      -5.256  19.085  67.242  1.00  0.00    -0.159 C  
ENDBRANCH  10  15
TORSDOF 1
ENDMDL
MODEL      116
REMARK 921   NORMALIZED FREE ENERGY PREDICTED BY IDOCK:   -3.89 KCAL/MOL
REMARK 922        TOTAL FREE ENERGY PREDICTED BY IDOCK:   -4.41 KCAL/MOL
REMARK 923 INTER-LIGAND FREE ENERGY PREDICTED BY IDOCK:   -4.03 KCAL/MOL
REMARK 924 INTRA-LIGAND FREE ENERGY PREDICTED BY IDOCK:   -0.39 KCAL/MOL
REMARK 927      BINDING AFFINITY PREDICTED BY RF-SCORE:    0.00 PKD
ROOT
HETATM    1  C   UNL     1      -8.552   7.581  65.870  1.00  0.00    -0.165 C  
HETATM    2  C   UNL     1      -7.172   7.182  65.320  1.00  0.00    -0.073 C  
HETATM    3  C   UNL     1      -7.090   5.734  64.799  1.00  0.00    -0.060 C  
HETATM    4  C   UNL     1      -8.379   4.925  64.953  1.00  0.00    -0.138 C  
HETATM    5  C   UNL     1      -8.984   5.158  66.311  1.00  0.00    -0.130 A  
HETATM    6  C   UNL     1      -9.056   6.484  66.776  1.00  0.00    -0.153 A  
HETATM    7  C   UNL     1      -9.653   6.760  68.011  1.00  0.00    -0.117 A  
HETATM    8  C   UNL     1     -10.161   5.710  68.788  1.00  0.00    -0.269 A  
HETATM    9  C   UNL     1      -9.909   8.165  68.435  1.00  0.00    -0.171 C  
HETATM   10  N   UNL     1      -9.652   9.132  67.469  1.00  0.00    -0.145 N  
HETATM   11  C   UNL     1     -10.102   4.396  68.318  1.00  0.00     0.021 A  
HETATM   12  O   UNL     1     -10.439   8.383  69.516  1.00  0.00    -0.220 OA 
HETATM   13  C   UNL     1      -9.521   4.121  67.079  1.00  0.00    -0.215 A  
HETATM   14  C   UNL     1      -8.489   8.918  66.615  1.00  0.00    -0.119 C  
ENDROOT
BRANCH  10  15
HETATM   15  C   UNL     1     -10.637  10.187  67.138  1.00  0.00    -0.246 C  
HETATM   16  C   UNL     1     -10.492  10.834  65.731  1.00  0.00    -0.188 C  
HETATM   17  N   UNL     1     -10.398  12.319  65.788  1.00  0.00    -0.252 NA 
HETATM   18  C   UNL     1     -11.618  12.863  66.415  1.00  0.00    -0.371 C  
HETATM   19  C   UNL     1     -11.859  12.264  67.812  1.00  0.00    -0.341 C  
HETATM   20  C   UNL     1     -10.679  11.336  68.189  1.00  0.00    -0.244 C  
HETATM   21  C   UNL     1      -9.423  12.222  68.087  1.00  0.00    -0.213 C  
HETATM   22  C   UNL     1      -9.237  12.685  66.632  1.00  0.00    -0.218 C  
ENDBRANCH  10  15
TORSDOF 1
ENDMDL
MODEL      117
REMARK 921   NORMALIZED FREE ENERGY PREDICTED BY IDOCK:   -3.87 KCAL/MOL
REMARK 922        TOTAL FREE ENERGY PREDICTED BY IDOCK:   -4.39 KCAL/MOL
REMARK 923 INTER-LIGAND FREE ENERGY PREDICTED BY IDOCK:   -4.12 KCAL/MOL
REMARK 924 INTRA-LIGAND FREE ENERGY PREDICTED BY IDOCK:   -0.27 KCAL/MOL
REMARK 927      BINDING AFFINITY PREDICTED BY RF-SCORE:    0.00 PKD
ROOT
HETATM    1  C   UNL     1     -10.770   7.005  70.253  1.00  0.00    -0.266 C  
HETATM    2  C   UNL     1     -11.937   7.509  71.118  1.00  0.00    -0.334 C  
HETATM    3  C   UNL     1     -11.528   7.972  72.530  1.00  0.00    -0.471 C  
HETATM    4  C   UNL     1     -10.040   7.815  72.848  1.00  0.00    -0.363 C  
HETATM    5  C   UNL     1      -9.541   6.480  72.366  1.00  0.00    -0.148 A  
HETATM    6  C   UNL     1      -9.919   6.068  71.074  1.00  0.00    -0.230 A  
HETATM    7  C   UNL     1      -9.442   4.857  70.560  1.00  0.00    -0.232 A  
HETATM    8  C   UNL     1      -8.603   4.051  71.341  1.00  0.00    -0.121 A  
HETATM    9  C   UNL     1      -9.673   4.494  69.133  1.00  0.00    -0.179 C  
HETATM   10  N   UNL     1     -10.249   5.491  68.353  1.00  0.00    -0.179 N  
HETATM   11  C   UNL     1      -8.218   4.468  72.617  1.00  0.00    -0.106 A  
HETATM   12  O   UNL     1      -9.241   3.433  68.702  1.00  0.00    -0.140 OA 
HETATM   13  C   UNL     1      -8.680   5.683  73.126  1.00  0.00    -0.120 A  
HETATM   14  C   UNL     1     -11.276   6.311  68.984  1.00  0.00    -0.343 C  
ENDROOT
BRANCH  10  15
HETATM   15  C   UNL     1      -9.681   5.883  67.043  1.00  0.00    -0.141 C  
HETATM   16  C   UNL     1      -8.640   4.902  66.433  1.00  0.00    -0.110 C  
HETATM   17  N   UNL     1      -7.358   5.573  66.078  1.00  0.00    -0.076 NA 
HETATM   18  C   UNL     1      -7.619   6.634  65.086  1.00  0.00    -0.090 C  
HETATM   19  C   UNL     1      -8.659   7.649  65.594  1.00  0.00    -0.142 C  
HETATM   20  C   UNL     1      -9.048   7.307  67.052  1.00  0.00    -0.152 C  
HETATM   21  C   UNL     1      -7.721   7.314  67.834  1.00  0.00    -0.113 C  
HETATM   22  C   UNL     1      -6.802   6.202  67.298  1.00  0.00    -0.063 C  
ENDBRANCH  10  15
TORSDOF 1
ENDMDL
MODEL      118
REMARK 921   NORMALIZED FREE ENERGY PREDICTED BY IDOCK:   -3.86 KCAL/MOL
REMARK 922        TOTAL FREE ENERGY PREDICTED BY IDOCK:   -4.38 KCAL/MOL
REMARK 923 INTER-LIGAND FREE ENERGY PREDICTED BY IDOCK:   -4.09 KCAL/MOL
REMARK 924 INTRA-LIGAND FREE ENERGY PREDICTED BY IDOCK:   -0.29 KCAL/MOL
REMARK 927      BINDING AFFINITY PREDICTED BY RF-SCORE:    0.00 PKD
ROOT
HETATM    1  C   UNL     1      -9.941   8.178  67.944  1.00  0.00    -0.225 C  
HETATM    2  C   UNL     1     -10.995   7.060  68.030  1.00  0.00    -0.185 C  
HETATM    3  C   UNL     1     -10.540   5.818  68.821  1.00  0.00    -0.321 C  
HETATM    4  C   UNL     1      -9.107   5.888  69.353  1.00  0.00    -0.134 C  
HETATM    5  C   UNL     1      -8.184   6.434  68.297  1.00  0.00    -0.116 A  
HETATM    6  C   UNL     1      -8.608   7.570  67.583  1.00  0.00    -0.119 A  
HETATM    7  C   UNL     1      -7.767   8.147  66.625  1.00  0.00    -0.094 A  
HETATM    8  C   UNL     1      -6.511   7.579  66.370  1.00  0.00    -0.049 A  
HETATM    9  C   UNL     1      -8.114   9.452  65.996  1.00  0.00    -0.111 C  
HETATM   10  N   UNL     1      -9.225  10.093  66.533  1.00  0.00    -0.151 N  
HETATM   11  C   UNL     1      -6.086   6.461  67.090  1.00  0.00    -0.025 A  
HETATM   12  O   UNL     1      -7.360   9.942  65.166  1.00  0.00    -0.120 OA 
HETATM   13  C   UNL     1      -6.918   5.893  68.057  1.00  0.00    -0.069 A  
HETATM   14  C   UNL     1     -10.347   9.248  66.926  1.00  0.00    -0.246 C  
ENDROOT
BRANCH  10  15
HETATM   15  C   UNL     1      -9.188  11.518  66.934  1.00  0.00    -0.176 C  
HETATM   16  C   UNL     1      -9.755  11.841  68.345  1.00  0.00    -0.197 C  
HETATM   17  N   UNL     1     -10.803  12.899  68.314  1.00  0.00    -0.233 NA 
HETATM   18  C   UNL     1     -10.230  14.141  67.759  1.00  0.00    -0.242 C  
HETATM   19  C   UNL     1      -9.622  13.915  66.363  1.00  0.00    -0.292 C  
HETATM   20  C   UNL     1      -9.889  12.460  65.910  1.00  0.00    -0.265 C  
HETATM   21  C   UNL     1     -11.419  12.295  65.969  1.00  0.00    -0.434 C  
HETATM   22  C   UNL     1     -11.898  12.451  67.422  1.00  0.00    -0.289 C  
ENDBRANCH  10  15
TORSDOF 1
ENDMDL
MODEL      119
REMARK 921   NORMALIZED FREE ENERGY PREDICTED BY IDOCK:   -3.82 KCAL/MOL
REMARK 922        TOTAL FREE ENERGY PREDICTED BY IDOCK:   -4.35 KCAL/MOL
REMARK 923 INTER-LIGAND FREE ENERGY PREDICTED BY IDOCK:   -4.22 KCAL/MOL
REMARK 924 INTRA-LIGAND FREE ENERGY PREDICTED BY IDOCK:   -0.13 KCAL/MOL
REMARK 927      BINDING AFFINITY PREDICTED BY RF-SCORE:    0.00 PKD
ROOT
HETATM    1  C   UNL     1      -9.126  10.076  66.623  1.00  0.00    -0.169 C  
HETATM    2  C   UNL     1      -9.182   8.860  65.682  1.00  0.00    -0.268 C  
HETATM    3  C   UNL     1      -8.891   7.511  66.368  1.00  0.00    -0.178 C  
HETATM    4  C   UNL     1      -8.557   7.611  67.857  1.00  0.00    -0.122 C  
HETATM    5  C   UNL     1      -7.608   8.752  68.105  1.00  0.00    -0.097 A  
HETATM    6  C   UNL     1      -7.885   9.980  67.475  1.00  0.00    -0.095 A  
HETATM    7  C   UNL     1      -7.061  11.087  67.711  1.00  0.00    -0.086 A  
HETATM    8  C   UNL     1      -5.954  10.962  68.561  1.00  0.00    -0.043 A  
HETATM    9  C   UNL     1      -7.442  12.438  67.209  1.00  0.00    -0.135 C  
HETATM   10  N   UNL     1      -8.708  12.524  66.640  1.00  0.00    -0.152 N  
HETATM   11  C   UNL     1      -5.690   9.747  69.196  1.00  0.00    -0.035 A  
HETATM   12  O   UNL     1      -6.711  13.393  67.433  1.00  0.00    -0.167 OA 
HETATM   13  C   UNL     1      -6.519   8.646  68.974  1.00  0.00    -0.048 A  
HETATM   14  C   UNL     1      -9.149  11.390  65.837  1.00  0.00    -0.198 C  
ENDROOT
BRANCH  10  15
HETATM   15  C   UNL     1      -9.669  13.580  67.032  1.00  0.00    -0.251 C  
HETATM   16  C   UNL     1      -9.611  14.034  68.518  1.00  0.00    -0.201 C  
HETATM   17  N   UNL     1     -10.936  13.957  69.195  1.00  0.00    -0.241 NA 
HETATM   18  C   UNL     1     -11.897  14.827  68.490  1.00  0.00    -0.306 C  
HETATM   19  C   UNL     1     -12.009  14.465  66.999  1.00  0.00    -0.424 C  
HETATM   20  C   UNL     1     -11.147  13.215  66.702  1.00  0.00    -0.316 C  
HETATM   21  C   UNL     1     -11.672  12.128  67.659  1.00  0.00    -0.386 C  
HETATM   22  C   UNL     1     -11.424  12.560  69.114  1.00  0.00    -0.305 C  
ENDBRANCH  10  15
TORSDOF 1
ENDMDL
MODEL      120
REMARK 921   NORMALIZED FREE ENERGY PREDICTED BY IDOCK:   -3.81 KCAL/MOL
REMARK 922        TOTAL FREE ENERGY PREDICTED BY IDOCK:   -4.33 KCAL/MOL
REMARK 923 INTER-LIGAND FREE ENERGY PREDICTED BY IDOCK:   -4.07 KCAL/MOL
REMARK 924 INTRA-LIGAND FREE ENERGY PREDICTED BY IDOCK:   -0.26 KCAL/MOL
REMARK 927      BINDING AFFINITY PREDICTED BY RF-SCORE:    0.00 PKD
ROOT
HETATM    1  C   UNL     1     -10.785  15.904  65.515  1.00  0.00    -0.386 C  
HETATM    2  C   UNL     1     -11.144  17.308  65.000  1.00  0.00     0.307 C  
HETATM    3  C   UNL     1     -10.415  18.456  65.725  1.00  0.00    -0.250 C  
HETATM    4  C   UNL     1      -9.490  18.011  66.860  1.00  0.00    -0.288 C  
HETATM    5  C   UNL     1     -10.160  16.955  67.696  1.00  0.00    -0.278 A  
HETATM    6  C   UNL     1     -10.820  15.909  67.023  1.00  0.00    -0.252 A  
HETATM    7  C   UNL     1     -11.417  14.876  67.754  1.00  0.00    -0.353 A  
HETATM    8  C   UNL     1     -11.370  14.896  69.154  1.00  0.00    -0.309 A  
HETATM    9  C   UNL     1     -11.953  13.668  67.064  1.00  0.00    -0.406 C  
HETATM   10  N   UNL     1     -11.682  13.595  65.702  1.00  0.00    -0.330 N  
HETATM   11  C   UNL     1     -10.702  15.926  69.820  1.00  0.00    -0.324 A  
HETATM   12  O   UNL     1     -12.465  12.773  67.723  1.00  0.00    -0.078 OA 
HETATM   13  C   UNL     1     -10.092  16.950  69.092  1.00  0.00    -0.269 A  
HETATM   14  C   UNL     1     -11.735  14.844  64.950  1.00  0.00    -0.371 C  
ENDROOT
BRANCH  10  15
HETATM   15  C   UNL     1     -11.115  12.375  65.083  1.00  0.00    -0.309 C  
HETATM   16  C   UNL     1     -11.458  11.033  65.789  1.00  0.00     0.491 C  
HETATM   17  N   UNL     1     -10.247  10.233  66.124  1.00  0.00    -0.234 NA 
HETATM   18  C   UNL     1      -9.509   9.920  64.884  1.00  0.00    -0.291 C  
HETATM   19  C   UNL     1      -9.141  11.192  64.101  1.00  0.00    -0.051 C  
HETATM   20  C   UNL     1      -9.568  12.441  64.909  1.00  0.00     0.090 C  
HETATM   21  C   UNL     1      -8.855  12.304  66.267  1.00  0.00    -0.010 C  
HETATM   22  C   UNL     1      -9.370  11.050  66.995  1.00  0.00    -0.172 C  
ENDBRANCH  10  15
TORSDOF 1
ENDMDL
MODEL      121
REMARK 921   NORMALIZED FREE ENERGY PREDICTED BY IDOCK:   -3.77 KCAL/MOL
REMARK 922        TOTAL FREE ENERGY PREDICTED BY IDOCK:   -4.29 KCAL/MOL
REMARK 923 INTER-LIGAND FREE ENERGY PREDICTED BY IDOCK:   -4.01 KCAL/MOL
REMARK 924 INTRA-LIGAND FREE ENERGY PREDICTED BY IDOCK:   -0.28 KCAL/MOL
REMARK 927      BINDING AFFINITY PREDICTED BY RF-SCORE:    0.00 PKD
ROOT
HETATM    1  C   UNL     1     -10.481   6.611  69.262  1.00  0.00    -0.247 C  
HETATM    2  C   UNL     1     -11.639   6.738  70.267  1.00  0.00    -0.417 C  
HETATM    3  C   UNL     1     -11.424   5.968  71.585  1.00  0.00    -0.293 C  
HETATM    4  C   UNL     1     -10.117   5.175  71.656  1.00  0.00    -0.262 C  
HETATM    5  C   UNL     1      -9.875   4.448  70.361  1.00  0.00    -0.286 A  
HETATM    6  C   UNL     1     -10.072   5.162  69.164  1.00  0.00    -0.274 A  
HETATM    7  C   UNL     1      -9.814   4.546  67.934  1.00  0.00    -0.162 A  
HETATM    8  C   UNL     1      -9.377   3.215  67.899  1.00  0.00    -0.252 A  
HETATM    9  C   UNL     1      -9.833   5.337  66.670  1.00  0.00    -0.179 C  
HETATM   10  N   UNL     1      -9.975   6.710  66.832  1.00  0.00    -0.169 N  
HETATM   11  C   UNL     1      -9.169   2.514  69.088  1.00  0.00    -0.199 A  
HETATM   12  O   UNL     1      -9.598   4.780  65.606  1.00  0.00    -0.163 OA 
HETATM   13  C   UNL     1      -9.410   3.131  70.317  1.00  0.00    -0.236 A  
HETATM   14  C   UNL     1     -10.874   7.161  67.888  1.00  0.00    -0.150 C  
ENDROOT
BRANCH  10  15
HETATM   15  C   UNL     1      -9.074   7.673  66.158  1.00  0.00    -0.144 C  
HETATM   16  C   UNL     1      -8.089   7.067  65.118  1.00  0.00    -0.124 C  
HETATM   17  N   UNL     1      -6.671   7.440  65.384  1.00  0.00    -0.047 NA 
HETATM   18  C   UNL     1      -6.534   8.909  65.338  1.00  0.00    -0.067 C  
HETATM   19  C   UNL     1      -7.490   9.603  66.325  1.00  0.00    -0.098 C  
HETATM   20  C   UNL     1      -8.244   8.536  67.154  1.00  0.00    -0.108 C  
HETATM   21  C   UNL     1      -7.142   7.695  67.825  1.00  0.00    -0.085 C  
HETATM   22  C   UNL     1      -6.312   6.980  66.746  1.00  0.00    -0.049 C  
ENDBRANCH  10  15
TORSDOF 1
ENDMDL
MODEL      122
REMARK 921   NORMALIZED FREE ENERGY PREDICTED BY IDOCK:   -3.76 KCAL/MOL
REMARK 922        TOTAL FREE ENERGY PREDICTED BY IDOCK:   -4.28 KCAL/MOL
REMARK 923 INTER-LIGAND FREE ENERGY PREDICTED BY IDOCK:   -5.11 KCAL/MOL
REMARK 924 INTRA-LIGAND FREE ENERGY PREDICTED BY IDOCK:    0.83 KCAL/MOL
REMARK 927      BINDING AFFINITY PREDICTED BY RF-SCORE:    0.00 PKD
ROOT
HETATM    1  C   UNL     1      -9.767   8.567  67.964  1.00  0.00    -0.180 C  
HETATM    2  C   UNL     1     -10.070   8.302  66.480  1.00  0.00    -0.303 C  
HETATM    3  C   UNL     1      -9.939   9.542  65.574  1.00  0.00    -0.209 C  
HETATM    4  C   UNL     1      -9.570  10.833  66.307  1.00  0.00    -0.234 C  
HETATM    5  C   UNL     1     -10.370  10.962  67.574  1.00  0.00    -0.237 A  
HETATM    6  C   UNL     1     -10.481   9.824  68.396  1.00  0.00    -0.250 A  
HETATM    7  C   UNL     1     -11.173   9.904  69.609  1.00  0.00    -0.251 A  
HETATM    8  C   UNL     1     -11.768  11.113  69.993  1.00  0.00    -0.438 A  
HETATM    9  C   UNL     1     -11.142   8.771  70.577  1.00  0.00    -0.246 C  
HETATM   10  N   UNL     1     -10.277   7.734  70.248  1.00  0.00    -0.197 N  
HETATM   11  C   UNL     1     -11.644  12.244  69.184  1.00  0.00    -0.373 A  
HETATM   12  O   UNL     1     -11.749   8.865  71.636  1.00  0.00    -0.294 OA 
HETATM   13  C   UNL     1     -10.941  12.171  67.981  1.00  0.00    -0.271 A  
HETATM   14  C   UNL     1     -10.180   7.378  68.837  1.00  0.00    -0.196 C  
ENDROOT
BRANCH  10  15
HETATM   15  C   UNL     1      -9.307   7.186  71.224  1.00  0.00    -0.155 C  
HETATM   16  C   UNL     1      -8.977   5.673  71.078  1.00  0.00    -0.141 C  
HETATM   17  N   UNL     1      -9.178   4.916  72.345  1.00  0.00    -0.132 NA 
HETATM   18  C   UNL     1      -8.301   5.474  73.393  1.00  0.00    -0.113 C  
HETATM   19  C   UNL     1      -8.542   6.980  73.598  1.00  0.00    -0.164 C  
HETATM   20  C   UNL     1      -9.717   7.444  72.705  1.00  0.00    -0.212 C  
HETATM   21  C   UNL     1     -10.906   6.552  73.110  1.00  0.00    -0.286 C  
HETATM   22  C   UNL     1     -10.586   5.085  72.775  1.00  0.00    -0.221 C  
ENDBRANCH  10  15
TORSDOF 1
ENDMDL
MODEL      123
REMARK 921   NORMALIZED FREE ENERGY PREDICTED BY IDOCK:   -3.70 KCAL/MOL
REMARK 922        TOTAL FREE ENERGY PREDICTED BY IDOCK:   -4.22 KCAL/MOL
REMARK 923 INTER-LIGAND FREE ENERGY PREDICTED BY IDOCK:   -4.07 KCAL/MOL
REMARK 924 INTRA-LIGAND FREE ENERGY PREDICTED BY IDOCK:   -0.14 KCAL/MOL
REMARK 927      BINDING AFFINITY PREDICTED BY RF-SCORE:    0.00 PKD
ROOT
HETATM    1  C   UNL     1      -7.019   9.018  68.758  1.00  0.00    -0.062 C  
HETATM    2  C   UNL     1      -5.802   9.186  67.833  1.00  0.00    -0.042 C  
HETATM    3  C   UNL     1      -5.786  10.506  67.037  1.00  0.00    -0.047 C  
HETATM    4  C   UNL     1      -7.001  11.407  67.269  1.00  0.00    -0.115 C  
HETATM    5  C   UNL     1      -8.265  10.590  67.265  1.00  0.00    -0.119 A  
HETATM    6  C   UNL     1      -8.269   9.388  67.998  1.00  0.00    -0.114 A  
HETATM    7  C   UNL     1      -9.435   8.617  68.067  1.00  0.00    -0.154 A  
HETATM    8  C   UNL     1     -10.588   9.037  67.392  1.00  0.00    -0.309 A  
HETATM    9  C   UNL     1      -9.517   7.446  68.986  1.00  0.00    -0.148 C  
HETATM   10  N   UNL     1      -8.433   7.287  69.842  1.00  0.00    -0.138 N  
HETATM   11  C   UNL     1     -10.587  10.237  66.678  1.00  0.00    -0.232 A  
HETATM   12  O   UNL     1     -10.549   6.790  69.036  1.00  0.00    -0.203 OA 
HETATM   13  C   UNL     1      -9.430  11.016  66.620  1.00  0.00    -0.207 A  
HETATM   14  C   UNL     1      -7.113   7.588  69.299  1.00  0.00    -0.077 C  
ENDROOT
BRANCH  10  15
HETATM   15  C   UNL     1      -8.612   7.078  71.297  1.00  0.00    -0.119 C  
HETATM   16  C   UNL     1      -9.760   6.114  71.709  1.00  0.00    -0.153 C  
HETATM   17  N   UNL     1     -10.706   6.729  72.682  1.00  0.00    -0.228 NA 
HETATM   18  C   UNL     1      -9.971   7.111  73.904  1.00  0.00    -0.318 C  
HETATM   19  C   UNL     1      -8.796   8.054  73.594  1.00  0.00    -0.326 C  
HETATM   20  C   UNL     1      -8.799   8.408  72.087  1.00  0.00    -0.285 C  
HETATM   21  C   UNL     1     -10.188   9.017  71.819  1.00  0.00    -0.389 C  
HETATM   22  C   UNL     1     -11.272   7.956  72.075  1.00  0.00    -0.287 C  
ENDBRANCH  10  15
TORSDOF 1
ENDMDL
MODEL      124
REMARK 921   NORMALIZED FREE ENERGY PREDICTED BY IDOCK:   -3.70 KCAL/MOL
REMARK 922        TOTAL FREE ENERGY PREDICTED BY IDOCK:   -4.22 KCAL/MOL
REMARK 923 INTER-LIGAND FREE ENERGY PREDICTED BY IDOCK:   -3.91 KCAL/MOL
REMARK 924 INTRA-LIGAND FREE ENERGY PREDICTED BY IDOCK:   -0.31 KCAL/MOL
REMARK 927      BINDING AFFINITY PREDICTED BY RF-SCORE:    0.00 PKD
ROOT
HETATM    1  C   UNL     1      -9.340  10.047  66.969  1.00  0.00    -0.180 C  
HETATM    2  C   UNL     1      -9.178   9.137  65.739  1.00  0.00    -0.294 C  
HETATM    3  C   UNL     1      -9.216   7.629  66.056  1.00  0.00    -0.118 C  
HETATM    4  C   UNL     1      -9.368   7.291  67.540  1.00  0.00    -0.144 C  
HETATM    5  C   UNL     1      -8.471   8.168  68.370  1.00  0.00    -0.126 A  
HETATM    6  C   UNL     1      -8.446   9.544  68.075  1.00  0.00    -0.119 A  
HETATM    7  C   UNL     1      -7.665  10.410  68.848  1.00  0.00    -0.111 A  
HETATM    8  C   UNL     1      -6.898   9.901  69.904  1.00  0.00    -0.096 A  
HETATM    9  C   UNL     1      -7.770  11.887  68.674  1.00  0.00    -0.113 C  
HETATM   10  N   UNL     1      -8.779  12.313  67.818  1.00  0.00    -0.164 N  
HETATM   11  C   UNL     1      -6.935   8.538  70.206  1.00  0.00    -0.040 A  
HETATM   12  O   UNL     1      -7.083  12.627  69.367  1.00  0.00     0.025 OA 
HETATM   13  C   UNL     1      -7.725   7.674  69.445  1.00  0.00    -0.107 A  
HETATM   14  C   UNL     1      -9.019  11.505  66.628  1.00  0.00    -0.185 C  
ENDROOT
BRANCH  10  15
HETATM   15  C   UNL     1      -9.739  13.371  68.208  1.00  0.00    -0.226 C  
HETATM   16  C   UNL     1     -11.010  13.495  67.321  1.00  0.00    -0.280 C  
HETATM   17  N   UNL     1     -11.216  14.876  66.801  1.00  0.00    -0.340 NA 
HETATM   18  C   UNL     1     -11.360  15.810  67.935  1.00  0.00    -0.277 C  
HETATM   19  C   UNL     1     -10.151  15.745  68.885  1.00  0.00    -0.222 C  
HETATM   20  C   UNL     1      -9.087  14.783  68.306  1.00  0.00    -0.183 C  
HETATM   21  C   UNL     1      -8.762  15.338  66.906  1.00  0.00    -0.288 C  
HETATM   22  C   UNL     1     -10.019  15.268  66.022  1.00  0.00    -0.319 C  
ENDBRANCH  10  15
TORSDOF 1
ENDMDL
MODEL      125
REMARK 921   NORMALIZED FREE ENERGY PREDICTED BY IDOCK:   -3.70 KCAL/MOL
REMARK 922        TOTAL FREE ENERGY PREDICTED BY IDOCK:   -4.21 KCAL/MOL
REMARK 923 INTER-LIGAND FREE ENERGY PREDICTED BY IDOCK:   -3.80 KCAL/MOL
REMARK 924 INTRA-LIGAND FREE ENERGY PREDICTED BY IDOCK:   -0.41 KCAL/MOL
REMARK 927      BINDING AFFINITY PREDICTED BY RF-SCORE:    0.00 PKD
ROOT
HETATM    1  C   UNL     1      -9.767   5.884  67.904  1.00  0.00    -0.128 C  
HETATM    2  C   UNL     1     -10.884   5.437  66.946  1.00  0.00    -0.153 C  
HETATM    3  C   UNL     1     -10.394   4.619  65.735  1.00  0.00    -0.295 C  
HETATM    4  C   UNL     1      -8.878   4.423  65.668  1.00  0.00    -0.124 C  
HETATM    5  C   UNL     1      -8.170   5.712  65.989  1.00  0.00    -0.113 A  
HETATM    6  C   UNL     1      -8.624   6.449  67.098  1.00  0.00    -0.111 A  
HETATM    7  C   UNL     1      -7.969   7.630  67.467  1.00  0.00    -0.120 A  
HETATM    8  C   UNL     1      -6.873   8.081  66.720  1.00  0.00    -0.072 A  
HETATM    9  C   UNL     1      -8.313   8.322  68.742  1.00  0.00    -0.124 C  
HETATM   10  N   UNL     1      -9.197   7.637  69.569  1.00  0.00    -0.150 N  
HETATM   11  C   UNL     1      -6.415   7.340  65.629  1.00  0.00    -0.044 A  
HETATM   12  O   UNL     1      -7.722   9.349  69.049  1.00  0.00    -0.073 OA 
HETATM   13  C   UNL     1      -7.057   6.154  65.268  1.00  0.00    -0.064 A  
HETATM   14  C   UNL     1     -10.281   6.911  68.917  1.00  0.00    -0.177 C  
ENDROOT
BRANCH  10  15
HETATM   15  C   UNL     1      -8.918   7.430  71.008  1.00  0.00    -0.151 C  
HETATM   16  C   UNL     1      -9.587   6.184  71.656  1.00  0.00    -0.151 C  
HETATM   17  N   UNL     1     -10.380   6.524  72.870  1.00  0.00    -0.199 NA 
HETATM   18  C   UNL     1      -9.494   7.141  73.877  1.00  0.00    -0.257 C  
HETATM   19  C   UNL     1      -8.768   8.378  73.319  1.00  0.00    -0.198 C  
HETATM   20  C   UNL     1      -9.269   8.669  71.884  1.00  0.00    -0.345 C  
HETATM   21  C   UNL     1     -10.794   8.837  72.017  1.00  0.00    -0.428 C  
HETATM   22  C   UNL     1     -11.417   7.513  72.493  1.00  0.00    -0.327 C  
ENDBRANCH  10  15
TORSDOF 1
ENDMDL
MODEL      126
REMARK 921   NORMALIZED FREE ENERGY PREDICTED BY IDOCK:   -3.70 KCAL/MOL
REMARK 922        TOTAL FREE ENERGY PREDICTED BY IDOCK:   -4.21 KCAL/MOL
REMARK 923 INTER-LIGAND FREE ENERGY PREDICTED BY IDOCK:   -3.94 KCAL/MOL
REMARK 924 INTRA-LIGAND FREE ENERGY PREDICTED BY IDOCK:   -0.27 KCAL/MOL
REMARK 927      BINDING AFFINITY PREDICTED BY RF-SCORE:    0.00 PKD
ROOT
HETATM    1  C   UNL     1      -7.820   7.558  69.736  1.00  0.00    -0.108 C  
HETATM    2  C   UNL     1      -6.685   8.326  69.038  1.00  0.00    -0.048 C  
HETATM    3  C   UNL     1      -7.163   9.402  68.043  1.00  0.00    -0.078 C  
HETATM    4  C   UNL     1      -8.682   9.498  67.887  1.00  0.00    -0.119 C  
HETATM    5  C   UNL     1      -9.286   8.122  67.791  1.00  0.00    -0.143 A  
HETATM    6  C   UNL     1      -8.844   7.149  68.706  1.00  0.00    -0.130 A  
HETATM    7  C   UNL     1      -9.408   5.868  68.690  1.00  0.00    -0.126 A  
HETATM    8  C   UNL     1     -10.400   5.556  67.752  1.00  0.00    -0.246 A  
HETATM    9  C   UNL     1      -9.093   4.886  69.766  1.00  0.00    -0.110 C  
HETATM   10  N   UNL     1      -8.339   5.385  70.822  1.00  0.00    -0.114 N  
HETATM   11  C   UNL     1     -10.848   6.528  66.854  1.00  0.00    -0.427 A  
HETATM   12  O   UNL     1      -9.603   3.774  69.737  1.00  0.00    -0.191 OA 
HETATM   13  C   UNL     1     -10.298   7.810  66.878  1.00  0.00    -0.396 A  
HETATM   14  C   UNL     1      -7.285   6.337  70.489  1.00  0.00    -0.080 C  
ENDROOT
BRANCH  10  15
HETATM   15  C   UNL     1      -8.738   5.177  72.233  1.00  0.00    -0.125 C  
HETATM   16  C   UNL     1      -9.764   4.036  72.487  1.00  0.00    -0.150 C  
HETATM   17  N   UNL     1     -10.958   4.497  73.250  1.00  0.00    -0.263 NA 
HETATM   18  C   UNL     1     -10.529   5.024  74.560  1.00  0.00    -0.234 C  
HETATM   19  C   UNL     1      -9.491   6.151  74.411  1.00  0.00    -0.206 C  
HETATM   20  C   UNL     1      -9.283   6.469  72.912  1.00  0.00    -0.143 C  
HETATM   21  C   UNL     1     -10.683   6.823  72.377  1.00  0.00    -0.256 C  
HETATM   22  C   UNL     1     -11.603   5.596  72.494  1.00  0.00    -0.246 C  
ENDBRANCH  10  15
TORSDOF 1
ENDMDL
MODEL      127
REMARK 921   NORMALIZED FREE ENERGY PREDICTED BY IDOCK:   -3.69 KCAL/MOL
REMARK 922        TOTAL FREE ENERGY PREDICTED BY IDOCK:   -4.20 KCAL/MOL
REMARK 923 INTER-LIGAND FREE ENERGY PREDICTED BY IDOCK:   -3.81 KCAL/MOL
REMARK 924 INTRA-LIGAND FREE ENERGY PREDICTED BY IDOCK:   -0.40 KCAL/MOL
REMARK 927      BINDING AFFINITY PREDICTED BY RF-SCORE:    0.00 PKD
ROOT
HETATM    1  C   UNL     1      -7.970   9.199  70.056  1.00  0.00    -0.113 C  
HETATM    2  C   UNL     1      -6.607   9.877  69.835  1.00  0.00    -0.080 C  
HETATM    3  C   UNL     1      -6.663  11.151  68.969  1.00  0.00    -0.085 C  
HETATM    4  C   UNL     1      -8.055  11.504  68.442  1.00  0.00    -0.149 C  
HETATM    5  C   UNL     1      -8.751  10.270  67.936  1.00  0.00    -0.122 A  
HETATM    6  C   UNL     1      -8.696   9.113  68.736  1.00  0.00    -0.132 A  
HETATM    7  C   UNL     1      -9.368   7.953  68.334  1.00  0.00    -0.140 A  
HETATM    8  C   UNL     1     -10.079   7.944  67.127  1.00  0.00    -0.328 A  
HETATM    9  C   UNL     1      -9.480   6.784  69.251  1.00  0.00    -0.142 C  
HETATM   10  N   UNL     1      -9.008   6.995  70.542  1.00  0.00    -0.154 N  
HETATM   11  C   UNL     1     -10.146   9.097  66.342  1.00  0.00    -0.345 A  
HETATM   12  O   UNL     1     -10.078   5.782  68.881  1.00  0.00    -0.157 OA 
HETATM   13  C   UNL     1      -9.489  10.260  66.749  1.00  0.00    -0.198 A  
HETATM   14  C   UNL     1      -7.806   7.810  70.680  1.00  0.00    -0.096 C  
ENDROOT
BRANCH  10  15
HETATM   15  C   UNL     1      -9.812   6.643  71.734  1.00  0.00    -0.161 C  
HETATM   16  C   UNL     1      -9.464   7.414  73.039  1.00  0.00    -0.186 C  
HETATM   17  N   UNL     1      -9.179   6.505  74.184  1.00  0.00    -0.162 NA 
HETATM   18  C   UNL     1     -10.364   5.667  74.453  1.00  0.00    -0.258 C  
HETATM   19  C   UNL     1     -10.799   4.876  73.206  1.00  0.00    -0.355 C  
HETATM   20  C   UNL     1      -9.789   5.119  72.059  1.00  0.00    -0.221 C  
HETATM   21  C   UNL     1      -8.422   4.699  72.631  1.00  0.00    -0.115 C  
HETATM   22  C   UNL     1      -8.054   5.616  73.810  1.00  0.00    -0.107 C  
ENDBRANCH  10  15
TORSDOF 1
ENDMDL
MODEL      128
REMARK 921   NORMALIZED FREE ENERGY PREDICTED BY IDOCK:   -3.65 KCAL/MOL
REMARK 922        TOTAL FREE ENERGY PREDICTED BY IDOCK:   -4.16 KCAL/MOL
REMARK 923 INTER-LIGAND FREE ENERGY PREDICTED BY IDOCK:   -3.74 KCAL/MOL
REMARK 924 INTRA-LIGAND FREE ENERGY PREDICTED BY IDOCK:   -0.42 KCAL/MOL
REMARK 927      BINDING AFFINITY PREDICTED BY RF-SCORE:    0.00 PKD
ROOT
HETATM    1  C   UNL     1      -9.690   5.352  69.494  1.00  0.00    -0.238 C  
HETATM    2  C   UNL     1      -9.191   4.827  70.852  1.00  0.00    -0.194 C  
HETATM    3  C   UNL     1     -10.141   5.113  72.031  1.00  0.00    -0.253 C  
HETATM    4  C   UNL     1     -11.398   5.904  71.663  1.00  0.00    -0.272 C  
HETATM    5  C   UNL     1     -11.048   7.041  70.741  1.00  0.00    -0.307 A  
HETATM    6  C   UNL     1     -10.182   6.768  69.666  1.00  0.00    -0.207 A  
HETATM    7  C   UNL     1      -9.865   7.779  68.751  1.00  0.00    -0.171 A  
HETATM    8  C   UNL     1     -10.398   9.063  68.921  1.00  0.00    -0.232 A  
HETATM    9  C   UNL     1      -9.106   7.466  67.507  1.00  0.00    -0.125 C  
HETATM   10  N   UNL     1      -8.884   6.114  67.271  1.00  0.00    -0.108 N  
HETATM   11  C   UNL     1     -11.269   9.328  69.980  1.00  0.00    -0.190 A  
HETATM   12  O   UNL     1      -8.846   8.364  66.717  1.00  0.00    -0.129 OA 
HETATM   13  C   UNL     1     -11.599   8.318  70.884  1.00  0.00    -0.282 A  
HETATM   14  C   UNL     1      -8.588   5.282  68.433  1.00  0.00    -0.095 C  
ENDROOT
BRANCH  10  15
HETATM   15  C   UNL     1      -9.185   5.489  65.963  1.00  0.00    -0.158 C  
HETATM   16  C   UNL     1      -9.672   4.013  66.011  1.00  0.00    -0.187 C  
HETATM   17  N   UNL     1      -8.863   3.113  65.142  1.00  0.00    -0.123 NA 
HETATM   18  C   UNL     1      -8.950   3.575  63.743  1.00  0.00    -0.095 C  
HETATM   19  C   UNL     1      -8.505   5.041  63.597  1.00  0.00    -0.127 C  
HETATM   20  C   UNL     1      -7.996   5.567  64.960  1.00  0.00    -0.113 C  
HETATM   21  C   UNL     1      -6.868   4.600  65.368  1.00  0.00    -0.061 C  
HETATM   22  C   UNL     1      -7.448   3.191  65.573  1.00  0.00    -0.076 C  
ENDBRANCH  10  15
TORSDOF 1
ENDMDL
MODEL      129
REMARK 921   NORMALIZED FREE ENERGY PREDICTED BY IDOCK:   -3.61 KCAL/MOL
REMARK 922        TOTAL FREE ENERGY PREDICTED BY IDOCK:   -4.12 KCAL/MOL
REMARK 923 INTER-LIGAND FREE ENERGY PREDICTED BY IDOCK:   -3.75 KCAL/MOL
REMARK 924 INTRA-LIGAND FREE ENERGY PREDICTED BY IDOCK:   -0.37 KCAL/MOL
REMARK 927      BINDING AFFINITY PREDICTED BY RF-SCORE:    0.00 PKD
ROOT
HETATM    1  C   UNL     1     -10.522   9.578  69.732  1.00  0.00    -0.253 C  
HETATM    2  C   UNL     1     -11.686  10.577  69.609  1.00  0.00    -0.328 C  
HETATM    3  C   UNL     1     -12.436  10.845  70.928  1.00  0.00    -0.507 C  
HETATM    4  C   UNL     1     -11.925  10.044  72.128  1.00  0.00     0.350 C  
HETATM    5  C   UNL     1     -11.672   8.614  71.732  1.00  0.00    -0.400 A  
HETATM    6  C   UNL     1     -10.984   8.382  70.527  1.00  0.00    -0.258 A  
HETATM    7  C   UNL     1     -10.681   7.072  70.137  1.00  0.00    -0.265 A  
HETATM    8  C   UNL     1     -11.079   5.997  70.942  1.00  0.00    -0.352 A  
HETATM    9  C   UNL     1      -9.793   6.814  68.969  1.00  0.00    -0.149 C  
HETATM   10  N   UNL     1      -9.196   7.941  68.416  1.00  0.00    -0.135 N  
HETATM   11  C   UNL     1     -11.748   6.230  72.145  1.00  0.00    -0.368 A  
HETATM   12  O   UNL     1      -9.534   5.660  68.650  1.00  0.00    -0.120 OA 
HETATM   13  C   UNL     1     -12.038   7.536  72.543  1.00  0.00    -0.158 A  
HETATM   14  C   UNL     1     -10.006   9.153  68.354  1.00  0.00    -0.181 C  
ENDROOT
BRANCH  10  15
HETATM   15  C   UNL     1      -7.742   8.001  68.142  1.00  0.00    -0.118 C  
HETATM   16  C   UNL     1      -7.042   9.346  68.485  1.00  0.00    -0.071 C  
HETATM   17  N   UNL     1      -6.280   9.908  67.335  1.00  0.00    -0.059 NA 
HETATM   18  C   UNL     1      -5.240   8.946  66.920  1.00  0.00    -0.039 C  
HETATM   19  C   UNL     1      -5.838   7.570  66.577  1.00  0.00    -0.036 C  
HETATM   20  C   UNL     1      -7.381   7.637  66.671  1.00  0.00    -0.088 C  
HETATM   21  C   UNL     1      -7.794   8.766  65.707  1.00  0.00    -0.099 C  
HETATM   22  C   UNL     1      -7.215  10.102  66.202  1.00  0.00    -0.115 C  
ENDBRANCH  10  15
TORSDOF 1
ENDMDL
MODEL      130
REMARK 921   NORMALIZED FREE ENERGY PREDICTED BY IDOCK:   -3.60 KCAL/MOL
REMARK 922        TOTAL FREE ENERGY PREDICTED BY IDOCK:   -4.11 KCAL/MOL
REMARK 923 INTER-LIGAND FREE ENERGY PREDICTED BY IDOCK:   -3.70 KCAL/MOL
REMARK 924 INTRA-LIGAND FREE ENERGY PREDICTED BY IDOCK:   -0.42 KCAL/MOL
REMARK 927      BINDING AFFINITY PREDICTED BY RF-SCORE:    0.00 PKD
ROOT
HETATM    1  C   UNL     1      -9.264  13.160  67.205  1.00  0.00    -0.227 C  
HETATM    2  C   UNL     1     -10.491  14.087  67.240  1.00  0.00    -0.268 C  
HETATM    3  C   UNL     1     -10.195  15.549  66.855  1.00  0.00    -0.279 C  
HETATM    4  C   UNL     1      -8.726  15.842  66.541  1.00  0.00    -0.350 C  
HETATM    5  C   UNL     1      -7.833  15.180  67.556  1.00  0.00    -0.203 A  
HETATM    6  C   UNL     1      -8.111  13.844  67.898  1.00  0.00    -0.158 A  
HETATM    7  C   UNL     1      -7.282  13.167  68.800  1.00  0.00    -0.085 A  
HETATM    8  C   UNL     1      -6.187  13.830  69.370  1.00  0.00    -0.107 A  
HETATM    9  C   UNL     1      -7.445  11.704  69.030  1.00  0.00    -0.051 C  
HETATM   10  N   UNL     1      -8.356  11.069  68.193  1.00  0.00    -0.124 N  
HETATM   11  C   UNL     1      -5.904  15.151  69.018  1.00  0.00    -0.097 A  
HETATM   12  O   UNL     1      -6.704  11.130  69.818  1.00  0.00    -0.131 OA 
HETATM   13  C   UNL     1      -6.721  15.823  68.107  1.00  0.00    -0.130 A  
HETATM   14  C   UNL     1      -9.568  11.808  67.857  1.00  0.00    -0.187 C  
ENDROOT
BRANCH  10  15
HETATM   15  C   UNL     1      -8.014   9.826  67.465  1.00  0.00    -0.106 C  
HETATM   16  C   UNL     1      -8.666   9.658  66.064  1.00  0.00    -0.138 C  
HETATM   17  N   UNL     1      -9.398   8.369  65.921  1.00  0.00    -0.177 NA 
HETATM   18  C   UNL     1      -8.460   7.248  66.123  1.00  0.00    -0.142 C  
HETATM   19  C   UNL     1      -7.746   7.339  67.484  1.00  0.00    -0.111 C  
HETATM   20  C   UNL     1      -8.309   8.536  68.286  1.00  0.00    -0.124 C  
HETATM   21  C   UNL     1      -9.824   8.278  68.382  1.00  0.00    -0.187 C  
HETATM   22  C   UNL     1     -10.440   8.301  66.973  1.00  0.00    -0.314 C  
ENDBRANCH  10  15
TORSDOF 1
ENDMDL
MODEL      131
REMARK 921   NORMALIZED FREE ENERGY PREDICTED BY IDOCK:   -3.58 KCAL/MOL
REMARK 922        TOTAL FREE ENERGY PREDICTED BY IDOCK:   -4.08 KCAL/MOL
REMARK 923 INTER-LIGAND FREE ENERGY PREDICTED BY IDOCK:   -3.81 KCAL/MOL
REMARK 924 INTRA-LIGAND FREE ENERGY PREDICTED BY IDOCK:   -0.28 KCAL/MOL
REMARK 927      BINDING AFFINITY PREDICTED BY RF-SCORE:    0.00 PKD
ROOT
HETATM    1  C   UNL     1      -8.061   7.197  70.022  1.00  0.00    -0.127 C  
HETATM    2  C   UNL     1      -7.398   8.327  70.827  1.00  0.00    -0.056 C  
HETATM    3  C   UNL     1      -7.612   8.231  72.351  1.00  0.00    -0.160 C  
HETATM    4  C   UNL     1      -8.480   7.055  72.802  1.00  0.00    -0.129 C  
HETATM    5  C   UNL     1      -9.681   6.918  71.906  1.00  0.00    -0.166 A  
HETATM    6  C   UNL     1      -9.473   7.004  70.516  1.00  0.00    -0.166 A  
HETATM    7  C   UNL     1     -10.550   6.835  69.638  1.00  0.00    -0.267 A  
HETATM    8  C   UNL     1     -11.833   6.597  70.147  1.00  0.00    -0.347 A  
HETATM    9  C   UNL     1     -10.322   6.734  68.169  1.00  0.00    -0.188 C  
HETATM   10  N   UNL     1      -8.989   6.673  67.778  1.00  0.00    -0.113 N  
HETATM   11  C   UNL     1     -12.034   6.498  71.525  1.00  0.00    -0.383 A  
HETATM   12  O   UNL     1     -11.277   6.579  67.419  1.00  0.00    -0.359 OA 
HETATM   13  C   UNL     1     -10.960   6.650  72.403  1.00  0.00    -0.277 A  
HETATM   14  C   UNL     1      -8.046   7.501  68.521  1.00  0.00    -0.125 C  
ENDROOT
BRANCH  10  15
HETATM   15  C   UNL     1      -8.497   5.639  66.839  1.00  0.00    -0.111 C  
HETATM   16  C   UNL     1      -9.589   4.774  66.148  1.00  0.00    -0.180 C  
HETATM   17  N   UNL     1      -9.363   3.313  66.325  1.00  0.00    -0.152 NA 
HETATM   18  C   UNL     1      -8.057   2.945  65.745  1.00  0.00    -0.087 C  
HETATM   19  C   UNL     1      -6.908   3.768  66.356  1.00  0.00    -0.057 C  
HETATM   20  C   UNL     1      -7.460   4.672  67.484  1.00  0.00    -0.078 C  
HETATM   21  C   UNL     1      -8.145   3.709  68.472  1.00  0.00    -0.076 C  
HETATM   22  C   UNL     1      -9.329   3.015  67.777  1.00  0.00    -0.202 C  
ENDBRANCH  10  15
TORSDOF 1
ENDMDL
MODEL      132
REMARK 921   NORMALIZED FREE ENERGY PREDICTED BY IDOCK:   -3.57 KCAL/MOL
REMARK 922        TOTAL FREE ENERGY PREDICTED BY IDOCK:   -4.08 KCAL/MOL
REMARK 923 INTER-LIGAND FREE ENERGY PREDICTED BY IDOCK:   -3.95 KCAL/MOL
REMARK 924 INTRA-LIGAND FREE ENERGY PREDICTED BY IDOCK:   -0.13 KCAL/MOL
REMARK 927      BINDING AFFINITY PREDICTED BY RF-SCORE:    0.00 PKD
ROOT
HETATM    1  C   UNL     1      -9.516   5.363  67.864  1.00  0.00    -0.137 C  
HETATM    2  C   UNL     1      -9.731   4.148  66.945  1.00  0.00    -0.232 C  
HETATM    3  C   UNL     1      -8.433   3.426  66.532  1.00  0.00    -0.109 C  
HETATM    4  C   UNL     1      -7.149   4.060  67.070  1.00  0.00    -0.064 C  
HETATM    5  C   UNL     1      -7.206   5.557  66.926  1.00  0.00    -0.078 A  
HETATM    6  C   UNL     1      -8.395   6.206  67.309  1.00  0.00    -0.105 A  
HETATM    7  C   UNL     1      -8.482   7.602  67.240  1.00  0.00    -0.121 A  
HETATM    8  C   UNL     1      -7.389   8.345  66.774  1.00  0.00    -0.083 A  
HETATM    9  C   UNL     1      -9.655   8.319  67.815  1.00  0.00    -0.148 C  
HETATM   10  N   UNL     1     -10.544   7.524  68.530  1.00  0.00    -0.174 N  
HETATM   11  C   UNL     1      -6.206   7.700  66.409  1.00  0.00    -0.045 A  
HETATM   12  O   UNL     1      -9.707   9.540  67.751  1.00  0.00    -0.141 OA 
HETATM   13  C   UNL     1      -6.111   6.310  66.491  1.00  0.00    -0.029 A  
HETATM   14  C   UNL     1     -10.799   6.186  68.008  1.00  0.00    -0.313 C  
ENDROOT
BRANCH  10  15
HETATM   15  C   UNL     1     -11.011   7.898  69.884  1.00  0.00    -0.178 C  
HETATM   16  C   UNL     1      -9.983   8.653  70.773  1.00  0.00    -0.197 C  
HETATM   17  N   UNL     1      -9.781   8.003  72.097  1.00  0.00    -0.200 NA 
HETATM   18  C   UNL     1     -11.065   7.961  72.824  1.00  0.00    -0.400 C  
HETATM   19  C   UNL     1     -12.158   7.245  72.010  1.00  0.00    -0.327 C  
HETATM   20  C   UNL     1     -11.549   6.686  70.702  1.00  0.00    -0.439 C  
HETATM   21  C   UNL     1     -10.395   5.771  71.155  1.00  0.00    -0.286 C  
HETATM   22  C   UNL     1      -9.325   6.611  71.873  1.00  0.00    -0.147 C  
ENDBRANCH  10  15
TORSDOF 1
ENDMDL
MODEL      133
REMARK 921   NORMALIZED FREE ENERGY PREDICTED BY IDOCK:   -3.57 KCAL/MOL
REMARK 922        TOTAL FREE ENERGY PREDICTED BY IDOCK:   -4.08 KCAL/MOL
REMARK 923 INTER-LIGAND FREE ENERGY PREDICTED BY IDOCK:   -3.66 KCAL/MOL
REMARK 924 INTRA-LIGAND FREE ENERGY PREDICTED BY IDOCK:   -0.42 KCAL/MOL
REMARK 927      BINDING AFFINITY PREDICTED BY RF-SCORE:    0.00 PKD
ROOT
HETATM    1  C   UNL     1      -9.618   7.851  67.876  1.00  0.00    -0.169 C  
HETATM    2  C   UNL     1     -10.494   9.030  67.419  1.00  0.00    -0.338 C  
HETATM    3  C   UNL     1     -10.366  10.293  68.293  1.00  0.00    -0.209 C  
HETATM    4  C   UNL     1      -9.422  10.150  69.489  1.00  0.00    -0.235 C  
HETATM    5  C   UNL     1      -9.646   8.830  70.177  1.00  0.00    -0.187 A  
HETATM    6  C   UNL     1      -9.759   7.683  69.369  1.00  0.00    -0.165 A  
HETATM    7  C   UNL     1      -9.919   6.425  69.962  1.00  0.00    -0.200 A  
HETATM    8  C   UNL     1      -9.984   6.316  71.357  1.00  0.00    -0.210 A  
HETATM    9  C   UNL     1      -9.851   5.184  69.139  1.00  0.00    -0.187 C  
HETATM   10  N   UNL     1      -9.478   5.371  67.813  1.00  0.00    -0.116 N  
HETATM   11  C   UNL     1      -9.857   7.454  72.157  1.00  0.00    -0.205 A  
HETATM   12  O   UNL     1      -9.986   4.094  69.679  1.00  0.00    -0.195 OA 
HETATM   13  C   UNL     1      -9.681   8.707  71.569  1.00  0.00    -0.333 A  
HETATM   14  C   UNL     1      -9.995   6.560  67.144  1.00  0.00    -0.157 C  
ENDROOT
BRANCH  10  15
HETATM   15  C   UNL     1      -8.411   4.564  67.180  1.00  0.00    -0.105 C  
HETATM   16  C   UNL     1      -7.637   5.252  66.019  1.00  0.00    -0.087 C  
HETATM   17  N   UNL     1      -7.628   4.437  64.772  1.00  0.00    -0.073 NA 
HETATM   18  C   UNL     1      -6.984   3.137  65.041  1.00  0.00    -0.056 C  
HETATM   19  C   UNL     1      -7.671   2.386  66.195  1.00  0.00    -0.075 C  
HETATM   20  C   UNL     1      -8.912   3.182  66.666  1.00  0.00    -0.168 C  
HETATM   21  C   UNL     1      -9.785   3.346  65.407  1.00  0.00    -0.053 C  
HETATM   22  C   UNL     1      -9.030   4.187  64.364  1.00  0.00    -0.143 C  
ENDBRANCH  10  15
TORSDOF 1
ENDMDL
MODEL      134
REMARK 921   NORMALIZED FREE ENERGY PREDICTED BY IDOCK:   -3.55 KCAL/MOL
REMARK 922        TOTAL FREE ENERGY PREDICTED BY IDOCK:   -4.05 KCAL/MOL
REMARK 923 INTER-LIGAND FREE ENERGY PREDICTED BY IDOCK:   -3.63 KCAL/MOL
REMARK 924 INTRA-LIGAND FREE ENERGY PREDICTED BY IDOCK:   -0.42 KCAL/MOL
REMARK 927      BINDING AFFINITY PREDICTED BY RF-SCORE:    0.00 PKD
ROOT
HETATM    1  C   UNL     1      -8.989   8.706  67.633  1.00  0.00    -0.141 C  
HETATM    2  C   UNL     1      -9.393  10.189  67.588  1.00  0.00    -0.162 C  
HETATM    3  C   UNL     1      -9.693  10.808  68.967  1.00  0.00    -0.201 C  
HETATM    4  C   UNL     1      -9.579   9.836  70.143  1.00  0.00    -0.287 C  
HETATM    5  C   UNL     1     -10.225   8.521  69.798  1.00  0.00    -0.206 A  
HETATM    6  C   UNL     1      -9.941   7.964  68.538  1.00  0.00    -0.200 A  
HETATM    7  C   UNL     1     -10.478   6.719  68.188  1.00  0.00    -0.251 A  
HETATM    8  C   UNL     1     -11.309   6.042  69.089  1.00  0.00    -0.196 A  
HETATM    9  C   UNL     1     -10.042   6.027  66.942  1.00  0.00    -0.185 C  
HETATM   10  N   UNL     1      -8.988   6.632  66.266  1.00  0.00    -0.152 N  
HETATM   11  C   UNL     1     -11.577   6.589  70.345  1.00  0.00    -0.470 A  
HETATM   12  O   UNL     1     -10.518   4.936  66.659  1.00  0.00    -0.262 OA 
HETATM   13  C   UNL     1     -11.031   7.823  70.703  1.00  0.00    -0.255 A  
HETATM   14  C   UNL     1      -8.976   8.090  66.231  1.00  0.00    -0.171 C  
ENDROOT
BRANCH  10  15
HETATM   15  C   UNL     1      -7.799   5.865  65.827  1.00  0.00    -0.103 C  
HETATM   16  C   UNL     1      -6.460   6.655  65.783  1.00  0.00    -0.046 C  
HETATM   17  N   UNL     1      -5.783   6.563  64.459  1.00  0.00    -0.029 NA 
HETATM   18  C   UNL     1      -5.487   5.149  64.158  1.00  0.00    -0.016 C  
HETATM   19  C   UNL     1      -6.755   4.279  64.198  1.00  0.00    -0.044 C  
HETATM   20  C   UNL     1      -7.992   5.175  64.444  1.00  0.00    -0.107 C  
HETATM   21  C   UNL     1      -7.971   6.211  63.304  1.00  0.00    -0.102 C  
HETATM   22  C   UNL     1      -6.706   7.079  63.421  1.00  0.00    -0.044 C  
ENDBRANCH  10  15
TORSDOF 1
ENDMDL
MODEL      135
REMARK 921   NORMALIZED FREE ENERGY PREDICTED BY IDOCK:   -3.54 KCAL/MOL
REMARK 922        TOTAL FREE ENERGY PREDICTED BY IDOCK:   -4.05 KCAL/MOL
REMARK 923 INTER-LIGAND FREE ENERGY PREDICTED BY IDOCK:   -3.66 KCAL/MOL
REMARK 924 INTRA-LIGAND FREE ENERGY PREDICTED BY IDOCK:   -0.39 KCAL/MOL
REMARK 927      BINDING AFFINITY PREDICTED BY RF-SCORE:    0.00 PKD
ROOT
HETATM    1  C   UNL     1      -9.732   6.971  70.908  1.00  0.00    -0.176 C  
HETATM    2  C   UNL     1     -10.093   5.488  70.717  1.00  0.00    -0.277 C  
HETATM    3  C   UNL     1     -10.091   4.661  72.018  1.00  0.00    -0.262 C  
HETATM    4  C   UNL     1      -9.693   5.442  73.272  1.00  0.00    -0.161 C  
HETATM    5  C   UNL     1      -8.503   6.318  72.986  1.00  0.00    -0.117 A  
HETATM    6  C   UNL     1      -8.517   7.071  71.797  1.00  0.00    -0.114 A  
HETATM    7  C   UNL     1      -7.457   7.939  71.508  1.00  0.00    -0.073 A  
HETATM    8  C   UNL     1      -6.379   8.041  72.396  1.00  0.00    -0.062 A  
HETATM    9  C   UNL     1      -7.540   8.881  70.356  1.00  0.00    -0.088 C  
HETATM   10  N   UNL     1      -8.772   8.925  69.713  1.00  0.00    -0.133 N  
HETATM   11  C   UNL     1      -6.375   7.304  73.583  1.00  0.00    -0.065 A  
HETATM   12  O   UNL     1      -6.605   9.636  70.125  1.00  0.00    -0.060 OA 
HETATM   13  C   UNL     1      -7.438   6.450  73.881  1.00  0.00    -0.085 A  
HETATM   14  C   UNL     1      -9.484   7.661  69.564  1.00  0.00    -0.152 C  
ENDROOT
BRANCH  10  15
HETATM   15  C   UNL     1      -9.456  10.206  69.424  1.00  0.00    -0.224 C  
HETATM   16  C   UNL     1     -10.998  10.125  69.239  1.00  0.00    -0.240 C  
HETATM   17  N   UNL     1     -11.456  10.728  67.956  1.00  0.00    -0.464 NA 
HETATM   18  C   UNL     1     -11.067  12.152  67.918  1.00  0.00    -0.245 C  
HETATM   19  C   UNL     1      -9.552  12.336  68.114  1.00  0.00    -0.213 C  
HETATM   20  C   UNL     1      -8.866  10.951  68.190  1.00  0.00    -0.137 C  
HETATM   21  C   UNL     1      -9.254  10.238  66.880  1.00  0.00    -0.171 C  
HETATM   22  C   UNL     1     -10.777  10.029  66.840  1.00  0.00    -0.140 C  
ENDBRANCH  10  15
TORSDOF 1
ENDMDL
MODEL      136
REMARK 921   NORMALIZED FREE ENERGY PREDICTED BY IDOCK:   -3.51 KCAL/MOL
REMARK 922        TOTAL FREE ENERGY PREDICTED BY IDOCK:   -4.01 KCAL/MOL
REMARK 923 INTER-LIGAND FREE ENERGY PREDICTED BY IDOCK:   -3.76 KCAL/MOL
REMARK 924 INTRA-LIGAND FREE ENERGY PREDICTED BY IDOCK:   -0.26 KCAL/MOL
REMARK 927      BINDING AFFINITY PREDICTED BY RF-SCORE:    0.00 PKD
ROOT
HETATM    1  C   UNL     1      -7.107   6.605  68.551  1.00  0.00    -0.083 C  
HETATM    2  C   UNL     1      -5.673   6.637  67.996  1.00  0.00    -0.012 C  
HETATM    3  C   UNL     1      -5.588   6.792  66.465  1.00  0.00    -0.018 C  
HETATM    4  C   UNL     1      -6.941   6.848  65.752  1.00  0.00    -0.064 C  
HETATM    5  C   UNL     1      -7.869   5.803  66.309  1.00  0.00    -0.101 A  
HETATM    6  C   UNL     1      -7.940   5.671  67.708  1.00  0.00    -0.098 A  
HETATM    7  C   UNL     1      -8.824   4.748  68.278  1.00  0.00    -0.117 A  
HETATM    8  C   UNL     1      -9.621   3.945  67.452  1.00  0.00    -0.218 A  
HETATM    9  C   UNL     1      -9.053   4.725  69.751  1.00  0.00    -0.108 C  
HETATM   10  N   UNL     1      -8.452   5.759  70.461  1.00  0.00    -0.125 N  
HETATM   11  C   UNL     1      -9.559   4.088  66.064  1.00  0.00    -0.200 A  
HETATM   12  O   UNL     1      -9.836   3.914  70.228  1.00  0.00    -0.198 OA 
HETATM   13  C   UNL     1      -8.690   5.019  65.493  1.00  0.00    -0.143 A  
HETATM   14  C   UNL     1      -7.125   6.176  70.021  1.00  0.00    -0.072 C  
ENDROOT
BRANCH  10  15
HETATM   15  C   UNL     1      -9.205   6.575  71.440  1.00  0.00    -0.148 C  
HETATM   16  C   UNL     1     -10.389   5.861  72.152  1.00  0.00    -0.201 C  
HETATM   17  N   UNL     1     -11.670   6.610  72.028  1.00  0.00    -0.300 NA 
HETATM   18  C   UNL     1     -11.516   7.947  72.633  1.00  0.00    -0.395 C  
HETATM   19  C   UNL     1     -10.349   8.728  72.003  1.00  0.00    -0.411 C  
HETATM   20  C   UNL     1      -9.744   7.908  70.839  1.00  0.00    -0.177 C  
HETATM   21  C   UNL     1     -10.920   7.644  69.880  1.00  0.00    -0.208 C  
HETATM   22  C   UNL     1     -11.978   6.781  70.589  1.00  0.00    -0.362 C  
ENDBRANCH  10  15
TORSDOF 1
ENDMDL
MODEL      137
REMARK 921   NORMALIZED FREE ENERGY PREDICTED BY IDOCK:   -3.42 KCAL/MOL
REMARK 922        TOTAL FREE ENERGY PREDICTED BY IDOCK:   -3.92 KCAL/MOL
REMARK 923 INTER-LIGAND FREE ENERGY PREDICTED BY IDOCK:   -3.64 KCAL/MOL
REMARK 924 INTRA-LIGAND FREE ENERGY PREDICTED BY IDOCK:   -0.28 KCAL/MOL
REMARK 927      BINDING AFFINITY PREDICTED BY RF-SCORE:    0.00 PKD
ROOT
HETATM    1  C   UNL     1     -10.743   5.837  71.288  1.00  0.00    -0.323 C  
HETATM    2  C   UNL     1     -11.938   6.278  72.150  1.00  0.00    -0.338 C  
HETATM    3  C   UNL     1     -12.512   7.659  71.781  1.00  0.00    -0.358 C  
HETATM    4  C   UNL     1     -11.775   8.377  70.649  1.00  0.00    -0.159 C  
HETATM    5  C   UNL     1     -10.286   8.253  70.835  1.00  0.00    -0.225 A  
HETATM    6  C   UNL     1      -9.772   6.986  71.168  1.00  0.00    -0.173 A  
HETATM    7  C   UNL     1      -8.391   6.807  71.304  1.00  0.00    -0.120 A  
HETATM    8  C   UNL     1      -7.527   7.895  71.123  1.00  0.00    -0.078 A  
HETATM    9  C   UNL     1      -7.815   5.442  71.469  1.00  0.00    -0.110 C  
HETATM   10  N   UNL     1      -8.720   4.396  71.331  1.00  0.00    -0.110 N  
HETATM   11  C   UNL     1      -8.038   9.147  70.777  1.00  0.00    -0.207 A  
HETATM   12  O   UNL     1      -6.603   5.308  71.579  1.00  0.00    -0.037 OA 
HETATM   13  C   UNL     1      -9.414   9.325  70.626  1.00  0.00    -0.333 A  
HETATM   14  C   UNL     1     -10.056   4.602  71.878  1.00  0.00    -0.198 C  
ENDROOT
BRANCH  10  15
HETATM   15  C   UNL     1      -8.444   3.236  70.452  1.00  0.00    -0.056 C  
HETATM   16  C   UNL     1      -7.022   3.181  69.826  1.00  0.00    -0.041 C  
HETATM   17  N   UNL     1      -7.051   3.043  68.343  1.00  0.00    -0.049 NA 
HETATM   18  C   UNL     1      -7.755   1.797  67.982  1.00  0.00    -0.054 C  
HETATM   19  C   UNL     1      -9.174   1.750  68.576  1.00  0.00    -0.223 C  
HETATM   20  C   UNL     1      -9.479   3.084  69.297  1.00  0.00    -0.167 C  
HETATM   21  C   UNL     1      -9.276   4.175  68.228  1.00  0.00    -0.195 C  
HETATM   22  C   UNL     1      -7.805   4.186  67.779  1.00  0.00    -0.086 C  
ENDBRANCH  10  15
TORSDOF 1
ENDMDL
MODEL      138
REMARK 921   NORMALIZED FREE ENERGY PREDICTED BY IDOCK:   -3.42 KCAL/MOL
REMARK 922        TOTAL FREE ENERGY PREDICTED BY IDOCK:   -3.91 KCAL/MOL
REMARK 923 INTER-LIGAND FREE ENERGY PREDICTED BY IDOCK:   -3.76 KCAL/MOL
REMARK 924 INTRA-LIGAND FREE ENERGY PREDICTED BY IDOCK:   -0.15 KCAL/MOL
REMARK 927      BINDING AFFINITY PREDICTED BY RF-SCORE:    0.00 PKD
ROOT
HETATM    1  C   UNL     1      -9.979   8.007  67.990  1.00  0.00    -0.216 C  
HETATM    2  C   UNL     1     -10.578   8.385  66.624  1.00  0.00    -0.099 C  
HETATM    3  C   UNL     1     -10.753   9.901  66.405  1.00  0.00    -0.034 C  
HETATM    4  C   UNL     1     -10.342  10.771  67.595  1.00  0.00    -0.236 C  
HETATM    5  C   UNL     1     -10.851  10.175  68.879  1.00  0.00    -0.256 A  
HETATM    6  C   UNL     1     -10.683   8.791  69.070  1.00  0.00    -0.134 A  
HETATM    7  C   UNL     1     -11.096   8.195  70.268  1.00  0.00    -0.221 A  
HETATM    8  C   UNL     1     -11.691   8.979  71.265  1.00  0.00    -0.382 A  
HETATM    9  C   UNL     1     -10.758   6.775  70.566  1.00  0.00    -0.238 C  
HETATM   10  N   UNL     1      -9.903   6.165  69.655  1.00  0.00    -0.157 N  
HETATM   11  C   UNL     1     -11.843  10.355  71.080  1.00  0.00    -0.432 A  
HETATM   12  O   UNL     1     -11.123   6.277  71.622  1.00  0.00    -0.253 OA 
HETATM   13  C   UNL     1     -11.418  10.953  69.893  1.00  0.00    -0.402 A  
HETATM   14  C   UNL     1     -10.089   6.501  68.248  1.00  0.00    -0.159 C  
ENDROOT
BRANCH  10  15
HETATM   15  C   UNL     1      -8.700   5.420  70.091  1.00  0.00    -0.126 C  
HETATM   16  C   UNL     1      -8.131   5.806  71.486  1.00  0.00    -0.118 C  
HETATM   17  N   UNL     1      -6.685   6.159  71.439  1.00  0.00    -0.054 NA 
HETATM   18  C   UNL     1      -5.915   5.004  70.937  1.00  0.00    -0.018 C  
HETATM   19  C   UNL     1      -6.420   4.534  69.562  1.00  0.00    -0.032 C  
HETATM   20  C   UNL     1      -7.531   5.489  69.063  1.00  0.00    -0.082 C  
HETATM   21  C   UNL     1      -6.886   6.887  69.057  1.00  0.00    -0.069 C  
HETATM   22  C   UNL     1      -6.506   7.285  70.493  1.00  0.00    -0.043 C  
ENDBRANCH  10  15
TORSDOF 1
ENDMDL
MODEL      139
REMARK 921   NORMALIZED FREE ENERGY PREDICTED BY IDOCK:   -3.41 KCAL/MOL
REMARK 922        TOTAL FREE ENERGY PREDICTED BY IDOCK:   -3.91 KCAL/MOL
REMARK 923 INTER-LIGAND FREE ENERGY PREDICTED BY IDOCK:   -3.71 KCAL/MOL
REMARK 924 INTRA-LIGAND FREE ENERGY PREDICTED BY IDOCK:   -0.20 KCAL/MOL
REMARK 927      BINDING AFFINITY PREDICTED BY RF-SCORE:    0.00 PKD
ROOT
HETATM    1  C   UNL     1      -8.519   6.555  66.713  1.00  0.00    -0.113 C  
HETATM    2  C   UNL     1      -7.807   5.354  66.068  1.00  0.00    -0.103 C  
HETATM    3  C   UNL     1      -8.478   3.994  66.343  1.00  0.00    -0.109 C  
HETATM    4  C   UNL     1      -9.713   4.061  67.243  1.00  0.00    -0.199 C  
HETATM    5  C   UNL     1      -9.460   4.977  68.410  1.00  0.00    -0.178 A  
HETATM    6  C   UNL     1      -8.850   6.218  68.146  1.00  0.00    -0.113 A  
HETATM    7  C   UNL     1      -8.637   7.127  69.189  1.00  0.00    -0.133 A  
HETATM    8  C   UNL     1      -9.018   6.790  70.495  1.00  0.00    -0.152 A  
HETATM    9  C   UNL     1      -8.169   8.513  68.905  1.00  0.00    -0.117 C  
HETATM   10  N   UNL     1      -8.110   8.854  67.559  1.00  0.00    -0.108 N  
HETATM   11  C   UNL     1      -9.637   5.565  70.752  1.00  0.00    -0.220 A  
HETATM   12  O   UNL     1      -7.996   9.294  69.832  1.00  0.00    -0.087 OA 
HETATM   13  C   UNL     1      -9.865   4.663  69.711  1.00  0.00    -0.296 A  
HETATM   14  C   UNL     1      -7.660   7.820  66.634  1.00  0.00    -0.097 C  
ENDROOT
BRANCH  10  15
HETATM   15  C   UNL     1      -8.714  10.104  67.043  1.00  0.00    -0.132 C  
HETATM   16  C   UNL     1      -8.598  11.347  67.970  1.00  0.00    -0.147 C  
HETATM   17  N   UNL     1      -9.915  11.987  68.241  1.00  0.00    -0.200 NA 
HETATM   18  C   UNL     1     -10.519  12.425  66.967  1.00  0.00    -0.220 C  
HETATM   19  C   UNL     1     -10.658  11.260  65.971  1.00  0.00    -0.314 C  
HETATM   20  C   UNL     1     -10.213   9.942  66.649  1.00  0.00    -0.293 C  
HETATM   21  C   UNL     1     -11.101   9.814  67.901  1.00  0.00    -0.161 C  
HETATM   22  C   UNL     1     -10.809  10.981  68.860  1.00  0.00    -0.217 C  
ENDBRANCH  10  15
TORSDOF 1
ENDMDL
MODEL      140
REMARK 921   NORMALIZED FREE ENERGY PREDICTED BY IDOCK:   -3.35 KCAL/MOL
REMARK 922        TOTAL FREE ENERGY PREDICTED BY IDOCK:   -3.85 KCAL/MOL
REMARK 923 INTER-LIGAND FREE ENERGY PREDICTED BY IDOCK:   -3.43 KCAL/MOL
REMARK 924 INTRA-LIGAND FREE ENERGY PREDICTED BY IDOCK:   -0.42 KCAL/MOL
REMARK 927      BINDING AFFINITY PREDICTED BY RF-SCORE:    0.00 PKD
ROOT
HETATM    1  C   UNL     1      -9.536   8.353  70.188  1.00  0.00    -0.165 C  
HETATM    2  C   UNL     1     -10.632   8.764  71.186  1.00  0.00    -0.310 C  
HETATM    3  C   UNL     1     -10.878   7.745  72.316  1.00  0.00    -0.339 C  
HETATM    4  C   UNL     1     -10.021   6.480  72.233  1.00  0.00    -0.176 C  
HETATM    5  C   UNL     1      -9.973   5.973  70.817  1.00  0.00    -0.237 A  
HETATM    6  C   UNL     1      -9.745   6.911  69.794  1.00  0.00    -0.166 A  
HETATM    7  C   UNL     1      -9.643   6.485  68.465  1.00  0.00    -0.123 A  
HETATM    8  C   UNL     1      -9.785   5.125  68.157  1.00  0.00    -0.190 A  
HETATM    9  C   UNL     1      -9.217   7.430  67.394  1.00  0.00    -0.132 C  
HETATM   10  N   UNL     1      -8.801   8.680  67.838  1.00  0.00    -0.137 N  
HETATM   11  C   UNL     1      -9.996   4.193  69.176  1.00  0.00     0.004 A  
HETATM   12  O   UNL     1      -9.127   7.033  66.239  1.00  0.00    -0.162 OA 
HETATM   13  C   UNL     1     -10.083   4.615  70.504  1.00  0.00    -0.263 A  
HETATM   14  C   UNL     1      -9.536   9.261  68.955  1.00  0.00    -0.155 C  
ENDROOT
BRANCH  10  15
HETATM   15  C   UNL     1      -7.526   9.284  67.388  1.00  0.00    -0.087 C  
HETATM   16  C   UNL     1      -6.797  10.183  68.427  1.00  0.00    -0.061 C  
HETATM   17  N   UNL     1      -6.485  11.539  67.894  1.00  0.00    -0.054 NA 
HETATM   18  C   UNL     1      -5.611  11.411  66.712  1.00  0.00    -0.129 C  
HETATM   19  C   UNL     1      -6.242  10.517  65.630  1.00  0.00    -0.129 C  
HETATM   20  C   UNL     1      -7.666  10.098  66.068  1.00  0.00    -0.120 C  
HETATM   21  C   UNL     1      -8.416  11.420  66.313  1.00  0.00    -0.138 C  
HETATM   22  C   UNL     1      -7.751  12.181  67.472  1.00  0.00    -0.159 C  
ENDBRANCH  10  15
TORSDOF 1
ENDMDL
MODEL      141
REMARK 921   NORMALIZED FREE ENERGY PREDICTED BY IDOCK:   -3.30 KCAL/MOL
REMARK 922        TOTAL FREE ENERGY PREDICTED BY IDOCK:   -3.79 KCAL/MOL
REMARK 923 INTER-LIGAND FREE ENERGY PREDICTED BY IDOCK:   -3.55 KCAL/MOL
REMARK 924 INTRA-LIGAND FREE ENERGY PREDICTED BY IDOCK:   -0.24 KCAL/MOL
REMARK 927      BINDING AFFINITY PREDICTED BY RF-SCORE:    0.00 PKD
ROOT
HETATM    1  C   UNL     1      -9.359   4.606  68.452  1.00  0.00    -0.186 C  
HETATM    2  C   UNL     1      -9.344   4.662  69.989  1.00  0.00    -0.215 C  
HETATM    3  C   UNL     1     -10.449   5.541  70.605  1.00  0.00    -0.342 C  
HETATM    4  C   UNL     1     -11.350   6.243  69.586  1.00  0.00    -0.492 C  
HETATM    5  C   UNL     1     -10.524   6.819  68.468  1.00  0.00    -0.234 A  
HETATM    6  C   UNL     1      -9.519   6.006  67.911  1.00  0.00    -0.112 A  
HETATM    7  C   UNL     1      -8.755   6.477  66.837  1.00  0.00    -0.115 A  
HETATM    8  C   UNL     1      -8.984   7.764  66.331  1.00  0.00    -0.196 A  
HETATM    9  C   UNL     1      -7.821   5.569  66.113  1.00  0.00    -0.100 C  
HETATM   10  N   UNL     1      -7.885   4.231  66.488  1.00  0.00    -0.097 N  
HETATM   11  C   UNL     1      -9.991   8.563  66.875  1.00  0.00    -0.335 A  
HETATM   12  O   UNL     1      -7.168   5.999  65.172  1.00  0.00    -0.066 OA 
HETATM   13  C   UNL     1     -10.764   8.090  67.937  1.00  0.00    -0.139 A  
HETATM   14  C   UNL     1      -8.087   3.952  67.905  1.00  0.00    -0.088 C  
ENDROOT
BRANCH  10  15
HETATM   15  C   UNL     1      -8.007   3.145  65.488  1.00  0.00    -0.086 C  
HETATM   16  C   UNL     1      -7.317   3.403  64.119  1.00  0.00    -0.059 C  
HETATM   17  N   UNL     1      -8.244   3.227  62.966  1.00  0.00    -0.077 NA 
HETATM   18  C   UNL     1      -8.762   1.845  62.962  1.00  0.00    -0.076 C  
HETATM   19  C   UNL     1      -9.449   1.488  64.292  1.00  0.00    -0.131 C  
HETATM   20  C   UNL     1      -9.483   2.733  65.209  1.00  0.00    -0.036 C  
HETATM   21  C   UNL     1     -10.211   3.816  64.391  1.00  0.00    -0.227 C  
HETATM   22  C   UNL     1      -9.387   4.153  63.136  1.00  0.00    -0.140 C  
ENDBRANCH  10  15
TORSDOF 1
ENDMDL
MODEL      142
REMARK 921   NORMALIZED FREE ENERGY PREDICTED BY IDOCK:   -3.30 KCAL/MOL
REMARK 922        TOTAL FREE ENERGY PREDICTED BY IDOCK:   -3.79 KCAL/MOL
REMARK 923 INTER-LIGAND FREE ENERGY PREDICTED BY IDOCK:   -3.71 KCAL/MOL
REMARK 924 INTRA-LIGAND FREE ENERGY PREDICTED BY IDOCK:   -0.07 KCAL/MOL
REMARK 927      BINDING AFFINITY PREDICTED BY RF-SCORE:    0.00 PKD
ROOT
HETATM    1  C   UNL     1      -8.974   9.109  65.675  1.00  0.00    -0.249 C  
HETATM    2  C   UNL     1      -9.285   9.264  64.176  1.00  0.00     0.070 C  
HETATM    3  C   UNL     1      -9.478  10.721  63.714  1.00  0.00    -0.320 C  
HETATM    4  C   UNL     1      -9.368  11.765  64.827  1.00  0.00     0.071 C  
HETATM    5  C   UNL     1     -10.112  11.304  66.051  1.00  0.00    -0.283 A  
HETATM    6  C   UNL     1      -9.927   9.972  66.466  1.00  0.00    -0.286 A  
HETATM    7  C   UNL     1     -10.558   9.507  67.626  1.00  0.00    -0.329 A  
HETATM    8  C   UNL     1     -11.386  10.367  68.360  1.00  0.00    -0.292 A  
HETATM    9  C   UNL     1     -10.227   8.166  68.185  1.00  0.00    -0.209 C  
HETATM   10  N   UNL     1      -9.172   7.508  67.564  1.00  0.00    -0.127 N  
HETATM   11  C   UNL     1     -11.557  11.692  67.955  1.00  0.00    -0.369 A  
HETATM   12  O   UNL     1     -10.786   7.782  69.204  1.00  0.00    -0.208 OA 
HETATM   13  C   UNL     1     -10.916  12.162  66.807  1.00  0.00    -0.325 A  
HETATM   14  C   UNL     1      -9.069   7.646  66.115  1.00  0.00    -0.144 C  
ENDROOT
BRANCH  10  15
HETATM   15  C   UNL     1      -8.057   6.916  68.338  1.00  0.00    -0.120 C  
HETATM   16  C   UNL     1      -6.985   6.153  67.509  1.00  0.00    -0.069 C  
HETATM   17  N   UNL     1      -6.757   4.766  68.002  1.00  0.00    -0.053 NA 
HETATM   18  C   UNL     1      -6.300   4.813  69.404  1.00  0.00    -0.031 C  
HETATM   19  C   UNL     1      -7.292   5.570  70.304  1.00  0.00    -0.068 C  
HETATM   20  C   UNL     1      -8.538   5.971  69.479  1.00  0.00    -0.119 C  
HETATM   21  C   UNL     1      -9.084   4.650  68.907  1.00  0.00    -0.163 C  
HETATM   22  C   UNL     1      -8.044   4.033  67.955  1.00  0.00    -0.089 C  
ENDBRANCH  10  15
TORSDOF 1
ENDMDL
MODEL      143
REMARK 921   NORMALIZED FREE ENERGY PREDICTED BY IDOCK:   -3.23 KCAL/MOL
REMARK 922        TOTAL FREE ENERGY PREDICTED BY IDOCK:   -3.72 KCAL/MOL
REMARK 923 INTER-LIGAND FREE ENERGY PREDICTED BY IDOCK:   -3.44 KCAL/MOL
REMARK 924 INTRA-LIGAND FREE ENERGY PREDICTED BY IDOCK:   -0.28 KCAL/MOL
REMARK 927      BINDING AFFINITY PREDICTED BY RF-SCORE:    0.00 PKD
ROOT
HETATM    1  C   UNL     1      -8.382   8.308  67.889  1.00  0.00    -0.128 C  
HETATM    2  C   UNL     1      -8.333   9.822  68.161  1.00  0.00    -0.110 C  
HETATM    3  C   UNL     1      -8.405  10.202  69.653  1.00  0.00    -0.174 C  
HETATM    4  C   UNL     1      -8.554   9.016  70.608  1.00  0.00    -0.245 C  
HETATM    5  C   UNL     1      -9.566   8.038  70.075  1.00  0.00    -0.171 A  
HETATM    6  C   UNL     1      -9.489   7.696  68.712  1.00  0.00    -0.152 A  
HETATM    7  C   UNL     1     -10.376   6.755  68.177  1.00  0.00    -0.219 A  
HETATM    8  C   UNL     1     -11.349   6.170  68.999  1.00  0.00    -0.257 A  
HETATM    9  C   UNL     1     -10.193   6.240  66.791  1.00  0.00    -0.202 C  
HETATM   10  N   UNL     1      -9.024   6.647  66.157  1.00  0.00    -0.153 N  
HETATM   11  C   UNL     1     -11.414   6.499  70.354  1.00  0.00    -0.465 A  
HETATM   12  O   UNL     1     -10.976   5.412  66.345  1.00  0.00    -0.243 OA 
HETATM   13  C   UNL     1     -10.520   7.426  70.893  1.00  0.00    -0.225 A  
HETATM   14  C   UNL     1      -8.585   8.017  66.399  1.00  0.00    -0.145 C  
ENDROOT
BRANCH  10  15
HETATM   15  C   UNL     1      -8.124   5.683  65.483  1.00  0.00    -0.123 C  
HETATM   16  C   UNL     1      -8.651   4.224  65.376  1.00  0.00    -0.120 C  
HETATM   17  N   UNL     1      -7.692   3.225  65.924  1.00  0.00    -0.081 NA 
HETATM   18  C   UNL     1      -6.421   3.306  65.179  1.00  0.00    -0.035 C  
HETATM   19  C   UNL     1      -5.829   4.726  65.212  1.00  0.00    -0.018 C  
HETATM   20  C   UNL     1      -6.701   5.632  66.113  1.00  0.00    -0.057 C  
HETATM   21  C   UNL     1      -6.730   4.926  67.482  1.00  0.00    -0.055 C  
HETATM   22  C   UNL     1      -7.424   3.561  67.342  1.00  0.00    -0.066 C  
ENDBRANCH  10  15
TORSDOF 1
ENDMDL
MODEL      144
REMARK 921   NORMALIZED FREE ENERGY PREDICTED BY IDOCK:   -3.23 KCAL/MOL
REMARK 922        TOTAL FREE ENERGY PREDICTED BY IDOCK:   -3.72 KCAL/MOL
REMARK 923 INTER-LIGAND FREE ENERGY PREDICTED BY IDOCK:   -3.45 KCAL/MOL
REMARK 924 INTRA-LIGAND FREE ENERGY PREDICTED BY IDOCK:   -0.27 KCAL/MOL
REMARK 927      BINDING AFFINITY PREDICTED BY RF-SCORE:    0.00 PKD
ROOT
HETATM    1  C   UNL     1      -9.451  10.544  65.290  1.00  0.00    -0.281 C  
HETATM    2  C   UNL     1     -10.038  11.606  64.344  1.00  0.00    -0.322 C  
HETATM    3  C   UNL     1      -9.540  11.507  62.889  1.00  0.00    -0.314 C  
HETATM    4  C   UNL     1      -8.518  10.396  62.638  1.00  0.00    -0.201 C  
HETATM    5  C   UNL     1      -7.496  10.367  63.742  1.00  0.00    -0.011 A  
HETATM    6  C   UNL     1      -7.962  10.456  65.067  1.00  0.00    -0.126 A  
HETATM    7  C   UNL     1      -7.056  10.385  66.132  1.00  0.00    -0.130 A  
HETATM    8  C   UNL     1      -5.687  10.242  65.872  1.00  0.00    -0.085 A  
HETATM    9  C   UNL     1      -7.542  10.286  67.537  1.00  0.00    -0.094 C  
HETATM   10  N   UNL     1      -8.916  10.126  67.679  1.00  0.00    -0.131 N  
HETATM   11  C   UNL     1      -5.228  10.139  64.557  1.00  0.00    -0.104 A  
HETATM   12  O   UNL     1      -6.733  10.218  68.453  1.00  0.00    -0.057 OA 
HETATM   13  C   UNL     1      -6.131  10.194  63.494  1.00  0.00    -0.141 A  
HETATM   14  C   UNL     1      -9.766  10.866  66.753  1.00  0.00    -0.190 C  
ENDROOT
BRANCH  10  15
HETATM   15  C   UNL     1      -9.494   9.070  68.541  1.00  0.00    -0.143 C  
HETATM   16  C   UNL     1      -8.576   8.547  69.682  1.00  0.00    -0.131 C  
HETATM   17  N   UNL     1      -8.420   7.066  69.661  1.00  0.00    -0.133 NA 
HETATM   18  C   UNL     1      -9.743   6.431  69.815  1.00  0.00    -0.154 C  
HETATM   19  C   UNL     1     -10.733   6.904  68.735  1.00  0.00    -0.255 C  
HETATM   20  C   UNL     1     -10.006   7.837  67.737  1.00  0.00    -0.220 C  
HETATM   21  C   UNL     1      -8.827   7.005  67.196  1.00  0.00    -0.121 C  
HETATM   22  C   UNL     1      -7.863   6.671  68.346  1.00  0.00    -0.107 C  
ENDBRANCH  10  15
TORSDOF 1
ENDMDL
MODEL      145
REMARK 921   NORMALIZED FREE ENERGY PREDICTED BY IDOCK:   -3.08 KCAL/MOL
REMARK 922        TOTAL FREE ENERGY PREDICTED BY IDOCK:   -3.55 KCAL/MOL
REMARK 923 INTER-LIGAND FREE ENERGY PREDICTED BY IDOCK:   -3.21 KCAL/MOL
REMARK 924 INTRA-LIGAND FREE ENERGY PREDICTED BY IDOCK:   -0.34 KCAL/MOL
REMARK 927      BINDING AFFINITY PREDICTED BY RF-SCORE:    0.00 PKD
ROOT
HETATM    1  C   UNL     1      -8.078   4.706  68.600  1.00  0.00    -0.082 C  
HETATM    2  C   UNL     1      -7.777   3.535  69.552  1.00  0.00    -0.051 C  
HETATM    3  C   UNL     1      -7.074   2.337  68.884  1.00  0.00    -0.044 C  
HETATM    4  C   UNL     1      -6.830   2.495  67.382  1.00  0.00    -0.040 C  
HETATM    5  C   UNL     1      -8.051   3.067  66.712  1.00  0.00    -0.081 A  
HETATM    6  C   UNL     1      -8.683   4.162  67.329  1.00  0.00    -0.113 A  
HETATM    7  C   UNL     1      -9.792   4.761  66.721  1.00  0.00    -0.227 A  
HETATM    8  C   UNL     1     -10.279   4.256  65.508  1.00  0.00    -0.224 A  
HETATM    9  C   UNL     1     -10.357   6.032  67.257  1.00  0.00    -0.223 C  
HETATM   10  N   UNL     1      -9.623   6.624  68.278  1.00  0.00    -0.126 N  
HETATM   11  C   UNL     1      -9.641   3.178  64.890  1.00  0.00    -0.119 A  
HETATM   12  O   UNL     1     -11.323   6.543  66.705  1.00  0.00    -0.272 OA 
HETATM   13  C   UNL     1      -8.525   2.589  65.487  1.00  0.00    -0.103 A  
HETATM   14  C   UNL     1      -9.010   5.730  69.254  1.00  0.00    -0.119 C  
ENDROOT
BRANCH  10  15
HETATM   15  C   UNL     1      -9.254   8.058  68.245  1.00  0.00    -0.134 C  
HETATM   16  C   UNL     1      -8.093   8.482  69.189  1.00  0.00    -0.117 C  
HETATM   17  N   UNL     1      -8.464   9.614  70.083  1.00  0.00    -0.197 NA 
HETATM   18  C   UNL     1      -8.835  10.784  69.264  1.00  0.00    -0.023 C  
HETATM   19  C   UNL     1      -9.970  10.455  68.279  1.00  0.00    -0.168 C  
HETATM   20  C   UNL     1     -10.459   9.007  68.516  1.00  0.00    -0.232 C  
HETATM   21  C   UNL     1     -10.874   8.960  69.998  1.00  0.00    -0.239 C  
HETATM   22  C   UNL     1      -9.643   9.212  70.885  1.00  0.00    -0.279 C  
ENDBRANCH  10  15
TORSDOF 1
ENDMDL
MODEL      146
REMARK 921   NORMALIZED FREE ENERGY PREDICTED BY IDOCK:   -2.98 KCAL/MOL
REMARK 922        TOTAL FREE ENERGY PREDICTED BY IDOCK:   -3.45 KCAL/MOL
REMARK 923 INTER-LIGAND FREE ENERGY PREDICTED BY IDOCK:   -3.19 KCAL/MOL
REMARK 924 INTRA-LIGAND FREE ENERGY PREDICTED BY IDOCK:   -0.26 KCAL/MOL
REMARK 927      BINDING AFFINITY PREDICTED BY RF-SCORE:    0.00 PKD
ROOT
HETATM    1  C   UNL     1      -7.297   5.676  66.912  1.00  0.00    -0.079 C  
HETATM    2  C   UNL     1      -6.245   4.618  67.286  1.00  0.00    -0.039 C  
HETATM    3  C   UNL     1      -5.825   3.700  66.122  1.00  0.00    -0.023 C  
HETATM    4  C   UNL     1      -6.553   3.966  64.803  1.00  0.00    -0.043 C  
HETATM    5  C   UNL     1      -8.023   4.173  65.050  1.00  0.00    -0.093 A  
HETATM    6  C   UNL     1      -8.395   5.016  66.114  1.00  0.00    -0.113 A  
HETATM    7  C   UNL     1      -9.748   5.281  66.355  1.00  0.00    -0.184 A  
HETATM    8  C   UNL     1     -10.728   4.690  65.546  1.00  0.00    -0.176 A  
HETATM    9  C   UNL     1     -10.154   6.313  67.350  1.00  0.00    -0.156 C  
HETATM   10  N   UNL     1      -9.113   7.065  67.884  1.00  0.00    -0.128 N  
HETATM   11  C   UNL     1     -10.356   3.866  64.482  1.00  0.00    -0.231 A  
HETATM   12  O   UNL     1     -11.343   6.533  67.541  1.00  0.00    -0.284 OA 
HETATM   13  C   UNL     1      -9.007   3.613  64.229  1.00  0.00    -0.120 A  
HETATM   14  C   UNL     1      -7.865   6.361  68.158  1.00  0.00    -0.105 C  
ENDROOT
BRANCH  10  15
HETATM   15  C   UNL     1      -9.163   8.544  67.933  1.00  0.00    -0.139 C  
HETATM   16  C   UNL     1     -10.458   9.198  67.374  1.00  0.00    -0.271 C  
HETATM   17  N   UNL     1     -10.179  10.226  66.333  1.00  0.00    -0.233 NA 
HETATM   18  C   UNL     1      -9.342  11.295  66.911  1.00  0.00    -0.177 C  
HETATM   19  C   UNL     1      -8.038  10.739  67.511  1.00  0.00    -0.111 C  
HETATM   20  C   UNL     1      -7.946   9.220  67.233  1.00  0.00    -0.106 C  
HETATM   21  C   UNL     1      -8.047   9.085  65.702  1.00  0.00    -0.115 C  
HETATM   22  C   UNL     1      -9.423   9.586  65.231  1.00  0.00    -0.258 C  
ENDBRANCH  10  15
TORSDOF 1
ENDMDL
MODEL      147
REMARK 921   NORMALIZED FREE ENERGY PREDICTED BY IDOCK:   -2.86 KCAL/MOL
REMARK 922        TOTAL FREE ENERGY PREDICTED BY IDOCK:   -3.33 KCAL/MOL
REMARK 923 INTER-LIGAND FREE ENERGY PREDICTED BY IDOCK:   -3.06 KCAL/MOL
REMARK 924 INTRA-LIGAND FREE ENERGY PREDICTED BY IDOCK:   -0.27 KCAL/MOL
REMARK 927      BINDING AFFINITY PREDICTED BY RF-SCORE:    0.00 PKD
ROOT
HETATM    1  C   UNL     1      -8.941   5.163  64.205  1.00  0.00     0.036 C  
HETATM    2  C   UNL     1      -8.721   4.747  62.741  1.00  0.00    -0.127 C  
HETATM    3  C   UNL     1      -9.413   3.428  62.344  1.00  0.00    -0.088 C  
HETATM    4  C   UNL     1     -10.166   2.735  63.482  1.00  0.00    -0.171 C  
HETATM    5  C   UNL     1      -9.344   2.755  64.742  1.00  0.00    -0.143 A  
HETATM    6  C   UNL     1      -8.720   3.966  65.095  1.00  0.00    -0.116 A  
HETATM    7  C   UNL     1      -7.984   4.051  66.283  1.00  0.00    -0.098 A  
HETATM    8  C   UNL     1      -7.859   2.924  67.107  1.00  0.00    -0.074 A  
HETATM    9  C   UNL     1      -7.476   5.365  66.769  1.00  0.00    -0.088 C  
HETATM   10  N   UNL     1      -7.909   6.472  66.047  1.00  0.00    -0.099 N  
HETATM   11  C   UNL     1      -8.492   1.728  66.762  1.00  0.00    -0.097 A  
HETATM   12  O   UNL     1      -6.841   5.418  67.814  1.00  0.00    -0.057 OA 
HETATM   13  C   UNL     1      -9.239   1.645  65.586  1.00  0.00    -0.003 A  
HETATM   14  C   UNL     1      -8.014   6.316  64.601  1.00  0.00    -0.120 C  
ENDROOT
BRANCH  10  15
HETATM   15  C   UNL     1      -8.484   7.662  66.714  1.00  0.00    -0.127 C  
HETATM   16  C   UNL     1      -8.329   7.716  68.260  1.00  0.00    -0.125 C  
HETATM   17  N   UNL     1      -9.627   7.919  68.961  1.00  0.00    -0.154 NA 
HETATM   18  C   UNL     1     -10.229   9.192  68.520  1.00  0.00    -0.198 C  
HETATM   19  C   UNL     1     -10.405   9.241  66.992  1.00  0.00    -0.325 C  
HETATM   20  C   UNL     1      -9.989   7.884  66.378  1.00  0.00    -0.192 C  
HETATM   21  C   UNL     1     -10.871   6.836  67.083  1.00  0.00    -0.462 C  
HETATM   22  C   UNL     1     -10.542   6.816  68.586  1.00  0.00    -0.227 C  
ENDBRANCH  10  15
TORSDOF 1
ENDMDL
MODEL      148
REMARK 921   NORMALIZED FREE ENERGY PREDICTED BY IDOCK:   -2.80 KCAL/MOL
REMARK 922        TOTAL FREE ENERGY PREDICTED BY IDOCK:   -3.26 KCAL/MOL
REMARK 923 INTER-LIGAND FREE ENERGY PREDICTED BY IDOCK:   -3.02 KCAL/MOL
REMARK 924 INTRA-LIGAND FREE ENERGY PREDICTED BY IDOCK:   -0.24 KCAL/MOL
REMARK 927      BINDING AFFINITY PREDICTED BY RF-SCORE:    0.00 PKD
ROOT
HETATM    1  C   UNL     1      -8.671  11.135  65.400  1.00  0.00    -0.061 C  
HETATM    2  C   UNL     1      -8.767   9.961  64.411  1.00  0.00    -0.223 C  
HETATM    3  C   UNL     1      -9.650  10.238  63.179  1.00  0.00    -0.295 C  
HETATM    4  C   UNL     1     -10.314  11.616  63.165  1.00  0.00    -0.383 C  
HETATM    5  C   UNL     1     -10.870  11.942  64.525  1.00  0.00    -0.368 A  
HETATM    6  C   UNL     1     -10.054  11.687  65.643  1.00  0.00    -0.278 A  
HETATM    7  C   UNL     1     -10.505  12.017  66.927  1.00  0.00    -0.251 A  
HETATM    8  C   UNL     1     -11.776  12.584  67.093  1.00  0.00    -0.425 A  
HETATM    9  C   UNL     1      -9.589  11.932  68.099  1.00  0.00    -0.195 C  
HETATM   10  N   UNL     1      -8.261  11.653  67.795  1.00  0.00    -0.134 N  
HETATM   11  C   UNL     1     -12.578  12.850  65.982  1.00  0.00     0.031 A  
HETATM   12  O   UNL     1     -10.002  12.232  69.211  1.00  0.00     0.230 OA 
HETATM   13  C   UNL     1     -12.124  12.536  64.700  1.00  0.00    -0.496 A  
HETATM   14  C   UNL     1      -8.017  10.703  66.716  1.00  0.00    -0.132 C  
ENDROOT
BRANCH  10  15
HETATM   15  C   UNL     1      -7.148  12.461  68.344  1.00  0.00    -0.106 C  
HETATM   16  C   UNL     1      -7.375  13.051  69.765  1.00  0.00     0.820 C  
HETATM   17  N   UNL     1      -7.160  14.524  69.816  1.00  0.00    -0.102 NA 
HETATM   18  C   UNL     1      -5.775  14.832  69.411  1.00  0.00    -0.095 C  
HETATM   19  C   UNL     1      -5.448  14.267  68.017  1.00  0.00    -0.120 C  
HETATM   20  C   UNL     1      -6.717  13.627  67.406  1.00  0.00    -0.023 C  
HETATM   21  C   UNL     1      -7.772  14.750  67.404  1.00  0.00    -0.230 C  
HETATM   22  C   UNL     1      -8.082  15.167  68.851  1.00  0.00    -0.178 C  
ENDBRANCH  10  15
TORSDOF 1
ENDMDL
MODEL      149
REMARK 921   NORMALIZED FREE ENERGY PREDICTED BY IDOCK:   -2.78 KCAL/MOL
REMARK 922        TOTAL FREE ENERGY PREDICTED BY IDOCK:   -3.24 KCAL/MOL
REMARK 923 INTER-LIGAND FREE ENERGY PREDICTED BY IDOCK:   -3.10 KCAL/MOL
REMARK 924 INTRA-LIGAND FREE ENERGY PREDICTED BY IDOCK:   -0.14 KCAL/MOL
REMARK 927      BINDING AFFINITY PREDICTED BY RF-SCORE:    0.00 PKD
ROOT
HETATM    1  C   UNL     1      -8.252   8.544  65.594  1.00  0.00    -0.130 C  
HETATM    2  C   UNL     1      -8.006   7.647  64.369  1.00  0.00    -0.123 C  
HETATM    3  C   UNL     1      -8.169   6.139  64.643  1.00  0.00    -0.094 C  
HETATM    4  C   UNL     1      -8.509   5.786  66.092  1.00  0.00    -0.130 C  
HETATM    5  C   UNL     1      -7.661   6.591  67.039  1.00  0.00    -0.100 A  
HETATM    6  C   UNL     1      -7.521   7.968  66.781  1.00  0.00    -0.090 A  
HETATM    7  C   UNL     1      -6.783   8.771  67.658  1.00  0.00    -0.066 A  
HETATM    8  C   UNL     1      -6.173   8.197  68.781  1.00  0.00    -0.044 A  
HETATM    9  C   UNL     1      -6.780  10.254  67.509  1.00  0.00    -0.071 C  
HETATM   10  N   UNL     1      -7.658  10.756  66.555  1.00  0.00    -0.133 N  
HETATM   11  C   UNL     1      -6.326   6.834  69.044  1.00  0.00    -0.035 A  
HETATM   12  O   UNL     1      -6.134  10.938  68.292  1.00  0.00    -0.049 OA 
HETATM   13  C   UNL     1      -7.074   6.034  68.178  1.00  0.00    -0.078 A  
HETATM   14  C   UNL     1      -7.808   9.985  65.326  1.00  0.00    -0.138 C  
ENDROOT
BRANCH  10  15
HETATM   15  C   UNL     1      -8.591  11.865  66.859  1.00  0.00    -0.185 C  
HETATM   16  C   UNL     1      -9.043  11.984  68.343  1.00  0.00    -0.158 C  
HETATM   17  N   UNL     1     -10.525  12.010  68.491  1.00  0.00    -0.225 NA 
HETATM   18  C   UNL     1     -11.071  13.167  67.754  1.00  0.00    -0.262 C  
HETATM   19  C   UNL     1     -10.657  13.147  66.272  1.00  0.00    -0.292 C  
HETATM   20  C   UNL     1      -9.869  11.851  65.970  1.00  0.00    -0.258 C  
HETATM   21  C   UNL     1     -10.812  10.703  66.380  1.00  0.00    -0.132 C  
HETATM   22  C   UNL     1     -11.079  10.772  67.893  1.00  0.00    -0.308 C  
ENDBRANCH  10  15
TORSDOF 1
ENDMDL
MODEL      150
REMARK 921   NORMALIZED FREE ENERGY PREDICTED BY IDOCK:   -2.24 KCAL/MOL
REMARK 922        TOTAL FREE ENERGY PREDICTED BY IDOCK:   -2.67 KCAL/MOL
REMARK 923 INTER-LIGAND FREE ENERGY PREDICTED BY IDOCK:   -2.41 KCAL/MOL
REMARK 924 INTRA-LIGAND FREE ENERGY PREDICTED BY IDOCK:   -0.27 KCAL/MOL
REMARK 927      BINDING AFFINITY PREDICTED BY RF-SCORE:    0.00 PKD
ROOT
HETATM    1  C   UNL     1      -9.781   7.708  67.895  1.00  0.00    -0.174 C  
HETATM    2  C   UNL     1     -10.816   8.716  68.425  1.00  0.00     0.003 C  
HETATM    3  C   UNL     1     -10.265   9.699  69.477  1.00  0.00    -0.233 C  
HETATM    4  C   UNL     1      -8.797   9.483  69.847  1.00  0.00    -0.227 C  
HETATM    5  C   UNL     1      -8.514   8.016  70.029  1.00  0.00    -0.129 A  
HETATM    6  C   UNL     1      -9.020   7.128  69.061  1.00  0.00    -0.134 A  
HETATM    7  C   UNL     1      -8.744   5.759  69.158  1.00  0.00    -0.113 A  
HETATM    8  C   UNL     1      -7.980   5.277  70.229  1.00  0.00    -0.084 A  
HETATM    9  C   UNL     1      -9.106   4.831  68.050  1.00  0.00    -0.117 C  
HETATM   10  N   UNL     1      -9.584   5.443  66.896  1.00  0.00    -0.133 N  
HETATM   11  C   UNL     1      -7.467   6.162  71.180  1.00  0.00    -0.085 A  
HETATM   12  O   UNL     1      -8.849   3.639  68.152  1.00  0.00    -0.099 OA 
HETATM   13  C   UNL     1      -7.727   7.529  71.077  1.00  0.00    -0.089 A  
HETATM   14  C   UNL     1     -10.451   6.602  67.076  1.00  0.00    -0.298 C  
ENDROOT
BRANCH  10  15
HETATM   15  C   UNL     1      -9.046   5.113  65.557  1.00  0.00    -0.153 C  
HETATM   16  C   UNL     1      -7.961   4.000  65.516  1.00  0.00    -0.093 C  
HETATM   17  N   UNL     1      -6.717   4.436  64.822  1.00  0.00    -0.044 NA 
HETATM   18  C   UNL     1      -7.038   4.809  63.431  1.00  0.00    -0.048 C  
HETATM   19  C   UNL     1      -8.124   5.898  63.367  1.00  0.00    -0.095 C  
HETATM   20  C   UNL     1      -8.485   6.354  64.801  1.00  0.00     0.036 C  
HETATM   21  C   UNL     1      -7.155   6.822  65.421  1.00  0.00    -0.064 C  
HETATM   22  C   UNL     1      -6.185   5.632  65.516  1.00  0.00    -0.034 C  
ENDBRANCH  10  15
TORSDOF 1
ENDMDL
MODEL      151
REMARK 921   NORMALIZED FREE ENERGY PREDICTED BY IDOCK:   -2.00 KCAL/MOL
REMARK 922        TOTAL FREE ENERGY PREDICTED BY IDOCK:   -2.41 KCAL/MOL
REMARK 923 INTER-LIGAND FREE ENERGY PREDICTED BY IDOCK:   -2.14 KCAL/MOL
REMARK 924 INTRA-LIGAND FREE ENERGY PREDICTED BY IDOCK:   -0.27 KCAL/MOL
REMARK 927      BINDING AFFINITY PREDICTED BY RF-SCORE:    0.00 PKD
ROOT
HETATM    1  C   UNL     1      -7.165  14.944  67.918  1.00  0.00    -0.166 C  
HETATM    2  C   UNL     1      -5.659  14.794  68.196  1.00  0.00    -0.125 C  
HETATM    3  C   UNL     1      -5.154  15.600  69.408  1.00  0.00    -0.097 C  
HETATM    4  C   UNL     1      -6.222  16.444  70.105  1.00  0.00    -0.013 C  
HETATM    5  C   UNL     1      -7.076  17.152  69.088  1.00  0.00    -0.213 A  
HETATM    6  C   UNL     1      -7.534  16.405  67.986  1.00  0.00    -0.151 A  
HETATM    7  C   UNL     1      -8.371  17.003  67.037  1.00  0.00    -0.229 A  
HETATM    8  C   UNL     1      -8.735  18.349  67.179  1.00  0.00    -0.260 A  
HETATM    9  C   UNL     1      -9.018  16.186  65.972  1.00  0.00    -0.298 C  
HETATM   10  N   UNL     1      -8.844  14.811  66.092  1.00  0.00    -0.029 N  
HETATM   11  C   UNL     1      -8.291  19.084  68.281  1.00  0.00    -0.369 A  
HETATM   12  O   UNL     1      -9.752  16.728  65.157  1.00  0.00    -0.166 OA 
HETATM   13  C   UNL     1      -7.469  18.485  69.237  1.00  0.00    -0.054 A  
HETATM   14  C   UNL     1      -7.542  14.349  66.558  1.00  0.00     1.360 C  
ENDROOT
BRANCH  10  15
HETATM   15  C   UNL     1      -9.984  13.870  66.009  1.00  0.00    -0.310 C  
HETATM   16  C   UNL     1     -11.323  14.469  65.491  1.00  0.00    -0.335 C  
HETATM   17  N   UNL     1     -12.461  14.219  66.419  1.00  0.00    -0.374 NA 
HETATM   18  C   UNL     1     -12.647  12.764  66.585  1.00  0.00     0.692 C  
HETATM   19  C   UNL     1     -11.362  12.076  67.078  1.00  0.00    -0.396 C  
HETATM   20  C   UNL     1     -10.276  13.142  67.355  1.00  0.00    -0.232 C  
HETATM   21  C   UNL     1     -10.910  14.106  68.376  1.00  0.00    -0.266 C  
HETATM   22  C   UNL     1     -12.127  14.800  67.740  1.00  0.00    -0.106 C  
ENDBRANCH  10  15
TORSDOF 1
ENDMDL
MODEL      152
REMARK 921   NORMALIZED FREE ENERGY PREDICTED BY IDOCK:   -1.61 KCAL/MOL
REMARK 922        TOTAL FREE ENERGY PREDICTED BY IDOCK:   -2.00 KCAL/MOL
REMARK 923 INTER-LIGAND FREE ENERGY PREDICTED BY IDOCK:   -1.82 KCAL/MOL
REMARK 924 INTRA-LIGAND FREE ENERGY PREDICTED BY IDOCK:   -0.18 KCAL/MOL
REMARK 927      BINDING AFFINITY PREDICTED BY RF-SCORE:    0.00 PKD
ROOT
HETATM    1  C   UNL     1      -8.358  14.418  66.952  1.00  0.00    -0.109 C  
HETATM    2  C   UNL     1      -7.443  15.566  66.491  1.00  0.00     0.459 C  
HETATM    3  C   UNL     1      -7.413  16.777  67.444  1.00  0.00    -0.187 C  
HETATM    4  C   UNL     1      -8.326  16.652  68.665  1.00  0.00    -0.246 C  
HETATM    5  C   UNL     1      -9.666  16.099  68.261  1.00  0.00    -0.220 A  
HETATM    6  C   UNL     1      -9.682  14.992  67.393  1.00  0.00    -0.216 A  
HETATM    7  C   UNL     1     -10.901  14.410  67.025  1.00  0.00    -0.297 A  
HETATM    8  C   UNL     1     -12.101  14.944  67.511  1.00  0.00    -0.031 A  
HETATM    9  C   UNL     1     -10.932  13.129  66.264  1.00  0.00    -0.280 C  
HETATM   10  N   UNL     1      -9.698  12.512  66.090  1.00  0.00    -0.257 N  
HETATM   11  C   UNL     1     -12.083  16.033  68.385  1.00  0.00     0.300 A  
HETATM   12  O   UNL     1     -12.009  12.634  65.959  1.00  0.00    -0.420 OA 
HETATM   13  C   UNL     1     -10.868  16.605  68.765  1.00  0.00    -0.331 A  
HETATM   14  C   UNL     1      -8.554  13.383  65.841  1.00  0.00     1.198 C  
ENDROOT
BRANCH  10  15
HETATM   15  C   UNL     1      -9.491  11.079  66.398  1.00  0.00    -0.193 C  
HETATM   16  C   UNL     1     -10.586  10.408  67.276  1.00  0.00    -0.267 C  
HETATM   17  N   UNL     1     -10.024   9.731  68.477  1.00  0.00    -0.156 NA 
HETATM   18  C   UNL     1      -9.076   8.682  68.051  1.00  0.00    -0.140 C  
HETATM   19  C   UNL     1      -7.961   9.250  67.156  1.00  0.00    -0.106 C  
HETATM   20  C   UNL     1      -8.108  10.787  67.054  1.00  0.00    -0.124 C  
HETATM   21  C   UNL     1      -8.072  11.292  68.508  1.00  0.00    -0.148 C  
HETATM   22  C   UNL     1      -9.281  10.733  69.277  1.00  0.00    -0.049 C  
ENDBRANCH  10  15
TORSDOF 1
ENDMDL
MODEL      153
REMARK 921   NORMALIZED FREE ENERGY PREDICTED BY IDOCK:   -1.44 KCAL/MOL
REMARK 922        TOTAL FREE ENERGY PREDICTED BY IDOCK:   -1.82 KCAL/MOL
REMARK 923 INTER-LIGAND FREE ENERGY PREDICTED BY IDOCK:   -3.33 KCAL/MOL
REMARK 924 INTRA-LIGAND FREE ENERGY PREDICTED BY IDOCK:    1.51 KCAL/MOL
REMARK 927      BINDING AFFINITY PREDICTED BY RF-SCORE:    0.00 PKD
ROOT
HETATM    1  C   UNL     1      -8.559  11.831  67.864  1.00  0.00    -0.156 C  
HETATM    2  C   UNL     1      -8.738  12.765  66.655  1.00  0.00    -0.065 C  
HETATM    3  C   UNL     1      -9.512  14.062  66.963  1.00  0.00    -0.253 C  
HETATM    4  C   UNL     1     -10.007  14.184  68.405  1.00  0.00    -0.235 C  
HETATM    5  C   UNL     1     -10.596  12.879  68.868  1.00  0.00    -0.154 A  
HETATM    6  C   UNL     1      -9.879  11.701  68.585  1.00  0.00    -0.173 A  
HETATM    7  C   UNL     1     -10.358  10.466  69.036  1.00  0.00    -0.232 A  
HETATM    8  C   UNL     1     -11.560  10.406  69.754  1.00  0.00    -0.339 A  
HETATM    9  C   UNL     1      -9.525   9.237  68.912  1.00  0.00    -0.154 C  
HETATM   10  N   UNL     1      -8.224   9.444  68.466  1.00  0.00    -0.112 N  
HETATM   11  C   UNL     1     -12.262  11.577  70.047  1.00  0.00    -0.354 A  
HETATM   12  O   UNL     1      -9.961   8.168  69.320  1.00  0.00    -0.179 OA 
HETATM   13  C   UNL     1     -11.778  12.812  69.612  1.00  0.00    -0.372 A  
HETATM   14  C   UNL     1      -8.035  10.458  67.434  1.00  0.00    -0.107 C  
ENDROOT
BRANCH  10  15
HETATM   15  C   UNL     1      -7.056   8.868  69.169  1.00  0.00    -0.063 C  
HETATM   16  C   UNL     1      -6.090   8.017  68.296  1.00  0.00    -0.042 C  
HETATM   17  N   UNL     1      -5.853   6.659  68.859  1.00  0.00    -0.021 NA 
HETATM   18  C   UNL     1      -5.260   6.783  70.205  1.00  0.00    -0.015 C  
HETATM   19  C   UNL     1      -6.140   7.630  71.141  1.00  0.00    -0.035 C  
HETATM   20  C   UNL     1      -7.449   8.017  70.413  1.00  0.00    -0.075 C  
HETATM   21  C   UNL     1      -8.083   6.679  69.987  1.00  0.00    -0.121 C  
HETATM   22  C   UNL     1      -7.157   5.968  68.985  1.00  0.00    -0.073 C  
ENDBRANCH  10  15
TORSDOF 1
ENDMDL
MODEL      154
REMARK 921   NORMALIZED FREE ENERGY PREDICTED BY IDOCK:   -1.39 KCAL/MOL
REMARK 922        TOTAL FREE ENERGY PREDICTED BY IDOCK:   -1.77 KCAL/MOL
REMARK 923 INTER-LIGAND FREE ENERGY PREDICTED BY IDOCK:   -1.77 KCAL/MOL
REMARK 924 INTRA-LIGAND FREE ENERGY PREDICTED BY IDOCK:    0.00 KCAL/MOL
REMARK 927      BINDING AFFINITY PREDICTED BY RF-SCORE:    0.00 PKD
ROOT
HETATM    1  C   UNL     1     -10.892  15.871  68.674  1.00  0.00    -0.291 C  
HETATM    2  C   UNL     1     -12.403  15.653  68.859  1.00  0.00     0.111 C  
HETATM    3  C   UNL     1     -12.767  14.537  69.858  1.00  0.00    -0.118 C  
HETATM    4  C   UNL     1     -11.567  13.808  70.466  1.00  0.00    -0.087 C  
HETATM    5  C   UNL     1     -10.546  13.504  69.403  1.00  0.00     0.137 A  
HETATM    6  C   UNL     1     -10.220  14.531  68.498  1.00  0.00    -0.240 A  
HETATM    7  C   UNL     1      -9.242  14.315  67.520  1.00  0.00    -0.197 A  
HETATM    8  C   UNL     1      -8.603  13.071  67.437  1.00  0.00    -0.199 A  
HETATM    9  C   UNL     1      -8.748  15.442  66.679  1.00  0.00    -0.296 C  
HETATM   10  N   UNL     1      -9.217  16.701  67.038  1.00  0.00    -0.214 N  
HETATM   11  C   UNL     1      -8.918  12.058  68.346  1.00  0.00    -0.153 A  
HETATM   12  O   UNL     1      -7.887  15.233  65.835  1.00  0.00     1.118 OA 
HETATM   13  C   UNL     1      -9.882  12.276  69.331  1.00  0.00     0.794 A  
HETATM   14  C   UNL     1     -10.604  16.787  67.481  1.00  0.00    -0.309 C  
ENDROOT
BRANCH  10  15
HETATM   15  C   UNL     1      -8.303  17.852  67.219  1.00  0.00    -0.225 C  
HETATM   16  C   UNL     1      -7.501  17.880  68.551  1.00  0.00    -0.270 C  
HETATM   17  N   UNL     1      -7.667  19.160  69.295  1.00  0.00    -0.197 NA 
HETATM   18  C   UNL     1      -7.195  20.278  68.456  1.00  0.00    -0.136 C  
HETATM   19  C   UNL     1      -7.920  20.322  67.099  1.00  0.00    -0.378 C  
HETATM   20  C   UNL     1      -9.014  19.229  67.061  1.00  0.00    -0.331 C  
HETATM   21  C   UNL     1      -9.919  19.523  68.272  1.00  0.00    -0.533 C  
HETATM   22  C   UNL     1      -9.109  19.360  69.570  1.00  0.00     0.243 C  
ENDBRANCH  10  15
TORSDOF 1
ENDMDL
MODEL      155
REMARK 921   NORMALIZED FREE ENERGY PREDICTED BY IDOCK:   -0.66 KCAL/MOL
REMARK 922        TOTAL FREE ENERGY PREDICTED BY IDOCK:   -1.00 KCAL/MOL
REMARK 923 INTER-LIGAND FREE ENERGY PREDICTED BY IDOCK:   -0.74 KCAL/MOL
REMARK 924 INTRA-LIGAND FREE ENERGY PREDICTED BY IDOCK:   -0.25 KCAL/MOL
REMARK 927      BINDING AFFINITY PREDICTED BY RF-SCORE:    0.00 PKD
ROOT
HETATM    1  C   UNL     1      -9.792  13.262  68.229  1.00  0.00    -0.231 C  
HETATM    2  C   UNL     1      -9.835  13.894  69.631  1.00  0.00     0.799 C  
HETATM    3  C   UNL     1      -8.765  14.976  69.873  1.00  0.00     0.264 C  
HETATM    4  C   UNL     1      -7.815  15.211  68.697  1.00  0.00    -0.140 C  
HETATM    5  C   UNL     1      -7.377  13.897  68.109  1.00  0.00    -0.123 A  
HETATM    6  C   UNL     1      -8.363  12.917  67.889  1.00  0.00    -0.170 A  
HETATM    7  C   UNL     1      -8.015  11.696  67.300  1.00  0.00    -0.157 A  
HETATM    8  C   UNL     1      -6.682  11.449  66.946  1.00  0.00    -0.145 A  
HETATM    9  C   UNL     1      -9.067  10.725  66.887  1.00  0.00    -0.149 C  
HETATM   10  N   UNL     1     -10.375  11.186  66.996  1.00  0.00    -0.214 N  
HETATM   11  C   UNL     1      -5.708  12.428  67.152  1.00  0.00    -0.063 A  
HETATM   12  O   UNL     1      -8.741   9.667  66.367  1.00  0.00    -0.131 OA 
HETATM   13  C   UNL     1      -6.055  13.652  67.725  1.00  0.00    -0.143 A  
HETATM   14  C   UNL     1     -10.686  12.021  68.151  1.00  0.00    -0.216 C  
ENDROOT
BRANCH  10  15
HETATM   15  C   UNL     1     -11.341  11.064  65.881  1.00  0.00     0.284 C  
HETATM   16  C   UNL     1     -10.793  10.425  64.574  1.00  0.00     0.765 C  
HETATM   17  N   UNL     1     -11.024  11.278  63.375  1.00  0.00    -0.287 NA 
HETATM   18  C   UNL     1     -12.473  11.497  63.202  1.00  0.00     0.168 C  
HETATM   19  C   UNL     1     -13.113  12.113  64.458  1.00  0.00     0.220 C  
HETATM   20  C   UNL     1     -12.014  12.418  65.504  1.00  0.00    -0.453 C  
HETATM   21  C   UNL     1     -11.018  13.345  64.781  1.00  0.00    -0.371 C  
HETATM   22  C   UNL     1     -10.377  12.592  63.603  1.00  0.00    -0.251 C  
ENDBRANCH  10  15
TORSDOF 1
ENDMDL
MODEL      156
REMARK 921   NORMALIZED FREE ENERGY PREDICTED BY IDOCK:   -0.31 KCAL/MOL
REMARK 922        TOTAL FREE ENERGY PREDICTED BY IDOCK:   -0.63 KCAL/MOL
REMARK 923 INTER-LIGAND FREE ENERGY PREDICTED BY IDOCK:   -0.40 KCAL/MOL
REMARK 924 INTRA-LIGAND FREE ENERGY PREDICTED BY IDOCK:   -0.23 KCAL/MOL
REMARK 927      BINDING AFFINITY PREDICTED BY RF-SCORE:    0.00 PKD
ROOT
HETATM    1  C   UNL     1      -7.888  18.512  65.341  1.00  0.00     0.794 C  
HETATM    2  C   UNL     1      -7.228  19.714  64.644  1.00  0.00     0.877 C  
HETATM    3  C   UNL     1      -5.712  19.837  64.890  1.00  0.00    -0.242 C  
HETATM    4  C   UNL     1      -5.126  18.770  65.816  1.00  0.00    -0.176 C  
HETATM    5  C   UNL     1      -6.024  18.560  67.006  1.00  0.00    -0.171 A  
HETATM    6  C   UNL     1      -7.406  18.446  66.769  1.00  0.00    -0.234 A  
HETATM    7  C   UNL     1      -8.279  18.202  67.836  1.00  0.00    -0.253 A  
HETATM    8  C   UNL     1      -7.773  18.089  69.137  1.00  0.00    -0.023 A  
HETATM    9  C   UNL     1      -9.715  17.891  67.585  1.00  0.00    -0.280 C  
HETATM   10  N   UNL     1     -10.062  17.722  66.249  1.00  0.00    -0.348 N  
HETATM   11  C   UNL     1      -6.400  18.188  69.368  1.00  0.00    -0.249 A  
HETATM   12  O   UNL     1     -10.459  17.673  68.532  1.00  0.00    -0.359 OA 
HETATM   13  C   UNL     1      -5.525  18.416  68.304  1.00  0.00    -0.168 A  
HETATM   14  C   UNL     1      -9.416  18.605  65.284  1.00  0.00     1.743 C  
ENDROOT
BRANCH  10  15
HETATM   15  C   UNL     1     -10.838  16.550  65.786  1.00  0.00    -0.134 C  
HETATM   16  C   UNL     1     -11.906  16.007  66.777  1.00  0.00     0.918 C  
HETATM   17  N   UNL     1     -11.748  14.552  67.052  1.00  0.00    -0.391 NA 
HETATM   18  C   UNL     1     -11.874  13.798  65.790  1.00  0.00    -0.372 C  
HETATM   19  C   UNL     1     -10.865  14.280  64.732  1.00  0.00    -0.420 C  
HETATM   20  C   UNL     1      -9.939  15.354  65.351  1.00  0.00    -0.356 C  
HETATM   21  C   UNL     1      -9.297  14.674  66.575  1.00  0.00    -0.313 C  
HETATM   22  C   UNL     1     -10.390  14.321  67.599  1.00  0.00    -0.248 C  
ENDBRANCH  10  15
TORSDOF 1
ENDMDL
MODEL      157
REMARK 921   NORMALIZED FREE ENERGY PREDICTED BY IDOCK:    1.12 KCAL/MOL
REMARK 922        TOTAL FREE ENERGY PREDICTED BY IDOCK:    0.89 KCAL/MOL
REMARK 923 INTER-LIGAND FREE ENERGY PREDICTED BY IDOCK:    1.10 KCAL/MOL
REMARK 924 INTRA-LIGAND FREE ENERGY PREDICTED BY IDOCK:   -0.21 KCAL/MOL
REMARK 927      BINDING AFFINITY PREDICTED BY RF-SCORE:    0.00 PKD
ROOT
HETATM    1  C   UNL     1      -8.631  14.300  66.652  1.00  0.00    -0.017 C  
HETATM    2  C   UNL     1      -7.141  14.506  66.975  1.00  0.00     0.464 C  
HETATM    3  C   UNL     1      -6.766  14.229  68.444  1.00  0.00    -0.104 C  
HETATM    4  C   UNL     1      -7.942  13.836  69.341  1.00  0.00     0.503 C  
HETATM    5  C   UNL     1      -9.127  14.720  69.066  1.00  0.00    -0.136 A  
HETATM    6  C   UNL     1      -9.463  14.964  67.721  1.00  0.00    -0.203 A  
HETATM    7  C   UNL     1     -10.585  15.741  67.411  1.00  0.00    -0.313 A  
HETATM    8  C   UNL     1     -11.361  16.285  68.443  1.00  0.00    -0.312 A  
HETATM    9  C   UNL     1     -11.066  15.854  66.005  1.00  0.00    -0.037 C  
HETATM   10  N   UNL     1     -10.418  15.033  65.089  1.00  0.00    -0.400 N  
HETATM   11  C   UNL     1     -11.035  16.030  69.777  1.00  0.00    -0.334 A  
HETATM   12  O   UNL     1     -12.054  16.532  65.758  1.00  0.00     1.616 OA 
HETATM   13  C   UNL     1      -9.925  15.243  70.088  1.00  0.00    -0.051 A  
HETATM   14  C   UNL     1      -8.981  14.852  65.267  1.00  0.00     1.581 C  
ENDROOT
BRANCH  10  15
HETATM   15  C   UNL     1     -11.166  14.177  64.141  1.00  0.00    -0.035 C  
HETATM   16  C   UNL     1     -12.695  14.054  64.399  1.00  0.00    -0.006 C  
HETATM   17  N   UNL     1     -13.148  12.639  64.500  1.00  0.00    -0.820 NA 
HETATM   18  C   UNL     1     -12.842  11.935  63.239  1.00  0.00    -0.161 C  
HETATM   19  C   UNL     1     -11.346  12.019  62.887  1.00  0.00     0.200 C  
HETATM   20  C   UNL     1     -10.584  12.736  64.027  1.00  0.00    -0.446 C  
HETATM   21  C   UNL     1     -10.891  11.917  65.294  1.00  0.00    -0.347 C  
HETATM   22  C   UNL     1     -12.398  11.981  65.596  1.00  0.00     0.453 C  
ENDBRANCH  10  15
TORSDOF 1
ENDMDL
MODEL      158
REMARK 921   NORMALIZED FREE ENERGY PREDICTED BY IDOCK:    2.45 KCAL/MOL
REMARK 922        TOTAL FREE ENERGY PREDICTED BY IDOCK:    2.30 KCAL/MOL
REMARK 923 INTER-LIGAND FREE ENERGY PREDICTED BY IDOCK:    1.55 KCAL/MOL
REMARK 924 INTRA-LIGAND FREE ENERGY PREDICTED BY IDOCK:    0.75 KCAL/MOL
REMARK 927      BINDING AFFINITY PREDICTED BY RF-SCORE:    0.00 PKD
ROOT
HETATM    1  C   UNL     1      -8.016  11.629  66.588  1.00  0.00    -0.098 C  
HETATM    2  C   UNL     1      -7.763  10.256  65.943  1.00  0.00    -0.137 C  
HETATM    3  C   UNL     1      -9.041   9.514  65.504  1.00  0.00    -0.262 C  
HETATM    4  C   UNL     1     -10.346  10.249  65.819  1.00  0.00    -0.236 C  
HETATM    5  C   UNL     1     -10.300  10.823  67.209  1.00  0.00    -0.262 A  
HETATM    6  C   UNL     1      -9.129  11.500  67.598  1.00  0.00    -0.168 A  
HETATM    7  C   UNL     1      -9.054  12.095  68.863  1.00  0.00     0.230 A  
HETATM    8  C   UNL     1     -10.140  11.998  69.743  1.00  0.00     1.274 A  
HETATM    9  C   UNL     1      -7.905  12.973  69.223  1.00  0.00     0.540 C  
HETATM   10  N   UNL     1      -7.029  13.259  68.182  1.00  0.00    -0.098 N  
HETATM   11  C   UNL     1     -11.307  11.339  69.349  1.00  0.00    -0.360 A  
HETATM   12  O   UNL     1      -7.863  13.489  70.332  1.00  0.00     2.031 OA 
HETATM   13  C   UNL     1     -11.389  10.758  68.082  1.00  0.00    -0.377 A  
HETATM   14  C   UNL     1      -6.746  12.179  67.243  1.00  0.00    -0.144 C  
ENDROOT
BRANCH  10  15
HETATM   15  C   UNL     1      -6.603  14.644  67.877  1.00  0.00    -0.164 C  
HETATM   16  C   UNL     1      -5.637  15.299  68.903  1.00  0.00    -0.098 C  
HETATM   17  N   UNL     1      -6.132  16.612  69.402  1.00  0.00    -0.187 NA 
HETATM   18  C   UNL     1      -6.286  17.541  68.266  1.00  0.00    -0.180 C  
HETATM   19  C   UNL     1      -7.216  16.968  67.181  1.00  0.00    -0.206 C  
HETATM   20  C   UNL     1      -7.800  15.617  67.659  1.00  0.00    -0.173 C  
HETATM   21  C   UNL     1      -8.502  15.933  68.994  1.00  0.00    -0.242 C  
HETATM   22  C   UNL     1      -7.462  16.408  70.022  1.00  0.00     0.863 C  
ENDBRANCH  10  15
TORSDOF 1
ENDMDL
MODEL      159
REMARK 921   NORMALIZED FREE ENERGY PREDICTED BY IDOCK:    5.12 KCAL/MOL
REMARK 922        TOTAL FREE ENERGY PREDICTED BY IDOCK:    5.13 KCAL/MOL
REMARK 923 INTER-LIGAND FREE ENERGY PREDICTED BY IDOCK:    3.86 KCAL/MOL
REMARK 924 INTRA-LIGAND FREE ENERGY PREDICTED BY IDOCK:    1.27 KCAL/MOL
REMARK 927      BINDING AFFINITY PREDICTED BY RF-SCORE:    0.00 PKD
ROOT
HETATM    1  C   UNL     1     -10.364  16.497  68.514  1.00  0.00    -0.289 C  
HETATM    2  C   UNL     1     -11.739  16.468  69.204  1.00  0.00     0.130 C  
HETATM    3  C   UNL     1     -12.082  15.127  69.882  1.00  0.00    -0.373 C  
HETATM    4  C   UNL     1     -11.018  14.039  69.722  1.00  0.00    -0.022 C  
HETATM    5  C   UNL     1     -10.510  14.009  68.306  1.00  0.00    -0.245 A  
HETATM    6  C   UNL     1     -10.197  15.239  67.697  1.00  0.00    -0.242 A  
HETATM    7  C   UNL     1      -9.676  15.263  66.399  1.00  0.00    -0.308 A  
HETATM    8  C   UNL     1      -9.483  14.061  65.704  1.00  0.00     0.027 A  
HETATM    9  C   UNL     1      -9.163  16.532  65.809  1.00  0.00    -0.036 C  
HETATM   10  N   UNL     1      -9.112  17.613  66.682  1.00  0.00    -0.257 N  
HETATM   11  C   UNL     1      -9.780  12.841  66.315  1.00  0.00    -0.262 A  
HETATM   12  O   UNL     1      -8.704  16.529  64.675  1.00  0.00     3.145 OA 
HETATM   13  C   UNL     1     -10.285  12.814  67.616  1.00  0.00    -0.219 A  
HETATM   14  C   UNL     1     -10.207  17.742  67.637  1.00  0.00    -0.358 C  
ENDROOT
BRANCH  10  15
HETATM   15  C   UNL     1      -7.896  18.445  66.825  1.00  0.00    -0.235 C  
HETATM   16  C   UNL     1      -8.125  19.983  66.851  1.00  0.00    -0.321 C  
HETATM   17  N   UNL     1      -7.302  20.704  65.840  1.00  0.00    -0.043 NA 
HETATM   18  C   UNL     1      -5.872  20.452  66.102  1.00  0.00    -0.183 C  
HETATM   19  C   UNL     1      -5.549  18.948  66.116  1.00  0.00    -0.181 C  
HETATM   20  C   UNL     1      -6.817  18.142  65.743  1.00  0.00    -0.305 C  
HETATM   21  C   UNL     1      -7.248  18.686  64.368  1.00  0.00     3.146 C  
HETATM   22  C   UNL     1      -7.632  20.169  64.498  1.00  0.00     1.285 C  
ENDBRANCH  10  15
TORSDOF 1
ENDMDL
MODEL      160
REMARK 921   NORMALIZED FREE ENERGY PREDICTED BY IDOCK:    5.23 KCAL/MOL
REMARK 922        TOTAL FREE ENERGY PREDICTED BY IDOCK:    5.23 KCAL/MOL
REMARK 923 INTER-LIGAND FREE ENERGY PREDICTED BY IDOCK:    5.25 KCAL/MOL
REMARK 924 INTRA-LIGAND FREE ENERGY PREDICTED BY IDOCK:   -0.02 KCAL/MOL
REMARK 927      BINDING AFFINITY PREDICTED BY RF-SCORE:    0.00 PKD
ROOT
HETATM    1  C   UNL     1      -7.686  18.166  69.189  1.00  0.00    -0.036 C  
HETATM    2  C   UNL     1      -7.579  19.321  70.198  1.00  0.00     0.787 C  
HETATM    3  C   UNL     1      -6.194  19.461  70.861  1.00  0.00     0.100 C  
HETATM    4  C   UNL     1      -5.173  18.404  70.435  1.00  0.00    -0.247 C  
HETATM    5  C   UNL     1      -5.812  17.042  70.405  1.00  0.00    -0.016 A  
HETATM    6  C   UNL     1      -7.075  16.926  69.795  1.00  0.00     0.328 A  
HETATM    7  C   UNL     1      -7.690  15.673  69.696  1.00  0.00    -0.107 A  
HETATM    8  C   UNL     1      -7.053  14.541  70.221  1.00  0.00     0.233 A  
HETATM    9  C   UNL     1      -8.932  15.498  68.892  1.00  0.00    -0.220 C  
HETATM   10  N   UNL     1      -9.324  16.611  68.155  1.00  0.00    -0.220 N  
HETATM   11  C   UNL     1      -5.793  14.656  70.813  1.00  0.00    -0.159 A  
HETATM   12  O   UNL     1      -9.450  14.392  68.813  1.00  0.00    -0.205 OA 
HETATM   13  C   UNL     1      -5.170  15.902  70.898  1.00  0.00    -0.143 A  
HETATM   14  C   UNL     1      -9.141  17.915  68.783  1.00  0.00    -0.206 C  
ENDROOT
BRANCH  10  15
HETATM   15  C   UNL     1      -9.663  16.515  66.717  1.00  0.00    -0.258 C  
HETATM   16  C   UNL     1     -10.220  17.812  66.064  1.00  0.00    -0.293 C  
HETATM   17  N   UNL     1     -11.521  17.594  65.372  1.00  0.00     0.721 NA 
HETATM   18  C   UNL     1     -11.348  16.587  64.308  1.00  0.00     0.249 C  
HETATM   19  C   UNL     1     -10.778  15.267  64.858  1.00  0.00    -0.423 C  
HETATM   20  C   UNL     1     -10.654  15.357  66.397  1.00  0.00    -0.307 C  
HETATM   21  C   UNL     1     -12.072  15.691  66.897  1.00  0.00     0.864 C  
HETATM   22  C   UNL     1     -12.495  17.069  66.358  1.00  0.00     4.809 C  
ENDBRANCH  10  15
TORSDOF 1
ENDMDL
MODEL      161
REMARK 921   NORMALIZED FREE ENERGY PREDICTED BY IDOCK:   12.02 KCAL/MOL
REMARK 922        TOTAL FREE ENERGY PREDICTED BY IDOCK:   12.42 KCAL/MOL
REMARK 923 INTER-LIGAND FREE ENERGY PREDICTED BY IDOCK:   12.30 KCAL/MOL
REMARK 924 INTRA-LIGAND FREE ENERGY PREDICTED BY IDOCK:    0.12 KCAL/MOL
REMARK 927      BINDING AFFINITY PREDICTED BY RF-SCORE:    0.00 PKD
ROOT
HETATM    1  C   UNL     1      -9.567  11.567  65.239  1.00  0.00    -0.244 C  
HETATM    2  C   UNL     1     -10.716  12.506  65.644  1.00  0.00    -0.297 C  
HETATM    3  C   UNL     1     -10.291  13.971  65.864  1.00  0.00    -0.327 C  
HETATM    4  C   UNL     1      -8.795  14.238  65.683  1.00  0.00     1.137 C  
HETATM    5  C   UNL     1      -7.988  13.156  66.349  1.00  0.00     0.953 A  
HETATM    6  C   UNL     1      -8.383  11.822  66.139  1.00  0.00     0.102 A  
HETATM    7  C   UNL     1      -7.637  10.777  66.696  1.00  0.00    -0.134 A  
HETATM    8  C   UNL     1      -6.508  11.066  67.475  1.00  0.00    -0.063 A  
HETATM    9  C   UNL     1      -7.924   9.361  66.332  1.00  0.00    -0.108 C  
HETATM   10  N   UNL     1      -8.860   9.187  65.318  1.00  0.00    -0.191 N  
HETATM   11  C   UNL     1      -6.110  12.390  67.669  1.00  0.00    -0.129 A  
HETATM   12  O   UNL     1      -7.255   8.463  66.825  1.00  0.00    -0.076 OA 
HETATM   13  C   UNL     1      -6.843  13.433  67.102  1.00  0.00     0.282 A  
HETATM   14  C   UNL     1      -9.998  10.099  65.307  1.00  0.00    -0.311 C  
ENDROOT
BRANCH  10  15
HETATM   15  C   UNL     1      -8.599   8.305  64.158  1.00  0.00     0.144 C  
HETATM   16  C   UNL     1      -9.826   7.988  63.256  1.00  0.00     4.774 C  
HETATM   17  N   UNL     1     -10.036   6.526  63.065  1.00  0.00     3.753 NA 
HETATM   18  C   UNL     1      -8.840   5.938  62.429  1.00  0.00     0.167 C  
HETATM   19  C   UNL     1      -7.564   6.219  63.243  1.00  0.00    -0.086 C  
HETATM   20  C   UNL     1      -7.935   6.952  64.553  1.00  0.00    -0.106 C  
HETATM   21  C   UNL     1      -8.946   6.029  65.259  1.00  0.00     0.067 C  
HETATM   22  C   UNL     1     -10.213   5.898  64.396  1.00  0.00     2.993 C  
ENDBRANCH  10  15
TORSDOF 1
ENDMDL
MODEL      162
REMARK 921   NORMALIZED FREE ENERGY PREDICTED BY IDOCK:   14.57 KCAL/MOL
REMARK 922        TOTAL FREE ENERGY PREDICTED BY IDOCK:   15.12 KCAL/MOL
REMARK 923 INTER-LIGAND FREE ENERGY PREDICTED BY IDOCK:   14.80 KCAL/MOL
REMARK 924 INTRA-LIGAND FREE ENERGY PREDICTED BY IDOCK:    0.32 KCAL/MOL
REMARK 927      BINDING AFFINITY PREDICTED BY RF-SCORE:    0.00 PKD
ROOT
HETATM    1  C   UNL     1     -11.515   9.905  68.087  1.00  0.00     0.153 C  
HETATM    2  C   UNL     1     -12.700  10.355  68.958  1.00  0.00     1.340 C  
HETATM    3  C   UNL     1     -12.372  11.501  69.935  1.00  0.00    -0.247 C  
HETATM    4  C   UNL     1     -10.916  11.971  69.903  1.00  0.00     0.285 C  
HETATM    5  C   UNL     1      -9.986  10.789  69.857  1.00  0.00     0.250 A  
HETATM    6  C   UNL     1     -10.294   9.750  68.959  1.00  0.00    -0.222 A  
HETATM    7  C   UNL     1      -9.435   8.651  68.843  1.00  0.00    -0.146 A  
HETATM    8  C   UNL     1      -8.281   8.583  69.634  1.00  0.00    -0.115 A  
HETATM    9  C   UNL     1      -9.641   7.636  67.771  1.00  0.00    -0.144 C  
HETATM   10  N   UNL     1     -10.628   7.947  66.842  1.00  0.00    -0.331 N  
HETATM   11  C   UNL     1      -7.969   9.622  70.513  1.00  0.00    -0.148 A  
HETATM   12  O   UNL     1      -8.873   6.687  67.683  1.00  0.00    -0.118 OA 
HETATM   13  C   UNL     1      -8.816  10.727  70.619  1.00  0.00     2.715 A  
HETATM   14  C   UNL     1     -11.829   8.600  67.350  1.00  0.00     3.728 C  
ENDROOT
BRANCH  10  15
HETATM   15  C   UNL     1     -10.383   7.866  65.384  1.00  0.00     2.890 C  
HETATM   16  C   UNL     1      -9.965   6.469  64.843  1.00  0.00     2.579 C  
HETATM   17  N   UNL     1      -8.702   6.513  64.054  1.00  0.00     0.429 NA 
HETATM   18  C   UNL     1      -8.877   7.415  62.899  1.00  0.00     0.776 C  
HETATM   19  C   UNL     1      -9.313   8.825  63.336  1.00  0.00     1.197 C  
HETATM   20  C   UNL     1      -9.337   8.905  64.881  1.00  0.00     0.159 C  
HETATM   21  C   UNL     1      -7.915   8.515  65.327  1.00  0.00    -0.120 C  
HETATM   22  C   UNL     1      -7.628   7.061  64.916  1.00  0.00    -0.106 C  
ENDBRANCH  10  15
TORSDOF 1
ENDMDL
MODEL      163
REMARK 921   NORMALIZED FREE ENERGY PREDICTED BY IDOCK:   26.68 KCAL/MOL
REMARK 922        TOTAL FREE ENERGY PREDICTED BY IDOCK:   27.94 KCAL/MOL
REMARK 923 INTER-LIGAND FREE ENERGY PREDICTED BY IDOCK:   28.26 KCAL/MOL
REMARK 924 INTRA-LIGAND FREE ENERGY PREDICTED BY IDOCK:   -0.31 KCAL/MOL
REMARK 927      BINDING AFFINITY PREDICTED BY RF-SCORE:    0.00 PKD
ROOT
HETATM    1  C   UNL     1      -8.331  14.298  68.179  1.00  0.00    -0.162 C  
HETATM    2  C   UNL     1      -7.335  14.412  69.345  1.00  0.00    -0.060 C  
HETATM    3  C   UNL     1      -7.063  15.857  69.810  1.00  0.00    -0.038 C  
HETATM    4  C   UNL     1      -7.797  16.934  69.009  1.00  0.00    -0.184 C  
HETATM    5  C   UNL     1      -7.718  16.635  67.536  1.00  0.00    -0.186 A  
HETATM    6  C   UNL     1      -7.970  15.314  67.123  1.00  0.00    -0.251 A  
HETATM    7  C   UNL     1      -7.958  14.993  65.761  1.00  0.00     2.898 A  
HETATM    8  C   UNL     1      -7.676  15.988  64.814  1.00  0.00     8.381 A  
HETATM    9  C   UNL     1      -8.406  13.652  65.292  1.00  0.00     3.903 C  
HETATM   10  N   UNL     1      -8.957  12.834  66.272  1.00  0.00    -0.033 N  
HETATM   11  C   UNL     1      -7.441  17.301  65.225  1.00  0.00     1.931 A  
HETATM   12  O   UNL     1      -8.394  13.395  64.095  1.00  0.00     5.118 OA 
HETATM   13  C   UNL     1      -7.468  17.626  66.582  1.00  0.00    -0.270 A  
HETATM   14  C   UNL     1      -8.342  12.883  67.594  1.00  0.00    -0.176 C  
ENDROOT
BRANCH  10  15
HETATM   15  C   UNL     1     -10.254  12.147  66.077  1.00  0.00    -0.237 C  
HETATM   16  C   UNL     1     -10.920  11.577  67.362  1.00  0.00    -0.265 C  
HETATM   17  N   UNL     1     -11.259  10.132  67.241  1.00  0.00    -0.201 NA 
HETATM   18  C   UNL     1     -12.197   9.940  66.118  1.00  0.00     6.897 C  
HETATM   19  C   UNL     1     -11.631  10.494  64.799  1.00  0.00     2.087 C  
HETATM   20  C   UNL     1     -10.186  10.999  65.026  1.00  0.00    -0.360 C  
HETATM   21  C   UNL     1      -9.420   9.786  65.584  1.00  0.00    -0.307 C  
HETATM   22  C   UNL     1     -10.016   9.381  66.943  1.00  0.00    -0.229 C  
ENDBRANCH  10  15
TORSDOF 1
ENDMDL
MODEL      164
REMARK 921   NORMALIZED FREE ENERGY PREDICTED BY IDOCK:   27.82 KCAL/MOL
REMARK 922        TOTAL FREE ENERGY PREDICTED BY IDOCK:   29.15 KCAL/MOL
REMARK 923 INTER-LIGAND FREE ENERGY PREDICTED BY IDOCK:   29.13 KCAL/MOL
REMARK 924 INTRA-LIGAND FREE ENERGY PREDICTED BY IDOCK:    0.02 KCAL/MOL
REMARK 927      BINDING AFFINITY PREDICTED BY RF-SCORE:    0.00 PKD
ROOT
HETATM    1  C   UNL     1      -7.249  18.496  70.191  1.00  0.00     1.028 C  
HETATM    2  C   UNL     1      -6.903  19.620  71.181  1.00  0.00     0.725 C  
HETATM    3  C   UNL     1      -5.747  19.286  72.144  1.00  0.00     0.224 C  
HETATM    4  C   UNL     1      -5.165  17.881  71.981  1.00  0.00     0.711 C  
HETATM    5  C   UNL     1      -6.271  16.873  71.822  1.00  0.00     2.733 A  
HETATM    6  C   UNL     1      -7.320  17.187  70.938  1.00  0.00     4.239 A  
HETATM    7  C   UNL     1      -8.348  16.263  70.718  1.00  0.00     3.657 A  
HETATM    8  C   UNL     1      -8.335  15.034  71.391  1.00  0.00     3.820 A  
HETATM    9  C   UNL     1      -9.361  16.494  69.650  1.00  0.00     0.272 C  
HETATM   10  N   UNL     1      -9.117  17.589  68.828  1.00  0.00    -0.250 N  
HETATM   11  C   UNL     1      -7.286  14.718  72.257  1.00  0.00     3.453 A  
HETATM   12  O   UNL     1     -10.247  15.669  69.469  1.00  0.00    -0.239 OA 
HETATM   13  C   UNL     1      -6.252  15.632  72.466  1.00  0.00     2.211 A  
HETATM   14  C   UNL     1      -8.565  18.780  69.462  1.00  0.00     0.516 C  
ENDROOT
BRANCH  10  15
HETATM   15  C   UNL     1      -9.161  17.482  67.352  1.00  0.00    -0.238 C  
HETATM   16  C   UNL     1      -7.786  17.333  66.641  1.00  0.00    -0.263 C  
HETATM   17  N   UNL     1      -7.578  18.352  65.574  1.00  0.00    -0.458 NA 
HETATM   18  C   UNL     1      -8.635  18.216  64.553  1.00  0.00     6.752 C  
HETATM   19  C   UNL     1     -10.041  18.329  65.168  1.00  0.00     1.412 C  
HETATM   20  C   UNL     1      -9.923  18.660  66.675  1.00  0.00    -0.394 C  
HETATM   21  C   UNL     1      -9.098  19.958  66.738  1.00  0.00    -0.460 C  
HETATM   22  C   UNL     1      -7.687  19.699  66.182  1.00  0.00    -0.321 C  
ENDBRANCH  10  15
TORSDOF 1
ENDMDL
MODEL      165
REMARK 921   NORMALIZED FREE ENERGY PREDICTED BY IDOCK:   48.73 KCAL/MOL
REMARK 922        TOTAL FREE ENERGY PREDICTED BY IDOCK:   51.28 KCAL/MOL
REMARK 923 INTER-LIGAND FREE ENERGY PREDICTED BY IDOCK:   51.25 KCAL/MOL
REMARK 924 INTRA-LIGAND FREE ENERGY PREDICTED BY IDOCK:    0.03 KCAL/MOL
REMARK 927      BINDING AFFINITY PREDICTED BY RF-SCORE:    0.00 PKD
ROOT
HETATM    1  C   UNL     1      -9.280  14.770  68.427  1.00  0.00    -0.189 C  
HETATM    2  C   UNL     1     -10.370  15.829  68.665  1.00  0.00    -0.225 C  
HETATM    3  C   UNL     1     -11.465  15.869  67.582  1.00  0.00    -0.070 C  
HETATM    4  C   UNL     1     -11.264  14.879  66.433  1.00  0.00    -0.331 C  
HETATM    5  C   UNL     1      -9.826  14.878  65.989  1.00  0.00    -0.345 A  
HETATM    6  C   UNL     1      -8.834  14.839  66.987  1.00  0.00    -0.258 A  
HETATM    7  C   UNL     1      -7.483  14.787  66.626  1.00  0.00     0.887 A  
HETATM    8  C   UNL     1      -7.123  14.792  65.272  1.00  0.00    10.652 A  
HETATM    9  C   UNL     1      -6.431  14.555  67.655  1.00  0.00    -0.132 C  
HETATM   10  N   UNL     1      -6.902  14.256  68.929  1.00  0.00    -0.098 N  
HETATM   11  C   UNL     1      -8.110  14.817  64.283  1.00  0.00    12.705 A  
HETATM   12  O   UNL     1      -5.255  14.506  67.317  1.00  0.00    -0.282 OA 
HETATM   13  C   UNL     1      -9.458  14.852  64.641  1.00  0.00     1.801 A  
HETATM   14  C   UNL     1      -8.094  14.968  69.375  1.00  0.00    -0.155 C  
ENDROOT
BRANCH  10  15
HETATM   15  C   UNL     1      -6.394  13.097  69.697  1.00  0.00    -0.086 C  
HETATM   16  C   UNL     1      -7.050  11.725  69.371  1.00  0.00     0.025 C  
HETATM   17  N   UNL     1      -7.580  11.039  70.582  1.00  0.00     1.243 NA 
HETATM   18  C   UNL     1      -6.477  10.801  71.533  1.00  0.00     1.480 C  
HETATM   19  C   UNL     1      -5.750  12.106  71.903  1.00  0.00     0.947 C  
HETATM   20  C   UNL     1      -6.467  13.306  71.239  1.00  0.00     1.488 C  
HETATM   21  C   UNL     1      -7.922  13.229  71.737  1.00  0.00    10.598 C  
HETATM   22  C   UNL     1      -8.571  11.930  71.231  1.00  0.00    11.600 C  
ENDBRANCH  10  15
TORSDOF 1
ENDMDL
MODEL      166
REMARK 921   NORMALIZED FREE ENERGY PREDICTED BY IDOCK:   75.20 KCAL/MOL
REMARK 922        TOTAL FREE ENERGY PREDICTED BY IDOCK:   79.30 KCAL/MOL
REMARK 923 INTER-LIGAND FREE ENERGY PREDICTED BY IDOCK:   77.94 KCAL/MOL
REMARK 924 INTRA-LIGAND FREE ENERGY PREDICTED BY IDOCK:    1.36 KCAL/MOL
REMARK 927      BINDING AFFINITY PREDICTED BY RF-SCORE:    0.00 PKD
ROOT
HETATM    1  C   UNL     1      -8.834  14.804  72.927  1.00  0.00     8.564 C  
HETATM    2  C   UNL     1      -9.044  15.633  74.206  1.00  0.00    15.600 C  
HETATM    3  C   UNL     1     -10.073  16.771  74.064  1.00  0.00    10.185 C  
HETATM    4  C   UNL     1     -10.683  16.911  72.668  1.00  0.00     3.444 C  
HETATM    5  C   UNL     1      -9.614  16.785  71.616  1.00  0.00     6.717 A  
HETATM    6  C   UNL     1      -8.681  15.741  71.754  1.00  0.00     6.543 A  
HETATM    7  C   UNL     1      -7.696  15.550  70.777  1.00  0.00     1.897 A  
HETATM    8  C   UNL     1      -7.635  16.412  69.674  1.00  0.00     0.215 A  
HETATM    9  C   UNL     1      -6.822  14.344  70.805  1.00  0.00     0.508 C  
HETATM   10  N   UNL     1      -7.158  13.390  71.760  1.00  0.00     4.223 N  
HETATM   11  C   UNL     1      -8.571  17.438  69.531  1.00  0.00     0.661 A  
HETATM   12  O   UNL     1      -5.973  14.193  69.937  1.00  0.00    -0.114 OA 
HETATM   13  C   UNL     1      -9.563  17.621  70.496  1.00  0.00     3.051 A  
HETATM   14  C   UNL     1      -7.616  13.884  73.053  1.00  0.00     7.337 C  
ENDROOT
BRANCH  10  15
HETATM   15  C   UNL     1      -7.300  11.957  71.416  1.00  0.00     6.699 C  
HETATM   16  C   UNL     1      -6.001  11.106  71.501  1.00  0.00     0.769 C  
HETATM   17  N   UNL     1      -5.716  10.365  70.241  1.00  0.00    -0.063 NA 
HETATM   18  C   UNL     1      -6.838   9.453  69.945  1.00  0.00    -0.061 C  
HETATM   19  C   UNL     1      -8.178  10.205  69.860  1.00  0.00    -0.128 C  
HETATM   20  C   UNL     1      -7.931  11.725  70.011  1.00  0.00     2.042 C  
HETATM   21  C   UNL     1      -6.933  12.082  68.893  1.00  0.00    -0.104 C  
HETATM   22  C   UNL     1      -5.605  11.343  69.134  1.00  0.00    -0.044 C  
ENDBRANCH  10  15
TORSDOF 1
ENDMDL
