MODEL        1
REMARK 921   NORMALIZED FREE ENERGY PREDICTED BY IDOCK:   -5.89 KCAL/MOL
REMARK 922        TOTAL FREE ENERGY PREDICTED BY IDOCK:   -6.55 KCAL/MOL
REMARK 923 INTER-LIGAND FREE ENERGY PREDICTED BY IDOCK:   -6.58 KCAL/MOL
REMARK 924 INTRA-LIGAND FREE ENERGY PREDICTED BY IDOCK:    0.03 KCAL/MOL
REMARK 927      BINDING AFFINITY PREDICTED BY RF-SCORE:    0.00 PKD
ROOT
HETATM    1  N   UNL     1     -11.197  16.815  64.181  1.00  0.00    -1.383 NA 
HETATM    2  H2  UNL     1     -11.748  16.331  63.473  1.00  0.00     0.000 HD 
HETATM    3  H1  UNL     1     -11.649  17.684  64.463  1.00  0.00     0.000 HD 
HETATM    4  C   UNL     1     -10.904  15.934  65.301  1.00  0.00    -0.387 C  
ENDROOT
BRANCH   4   5
HETATM    5  C   UNL     1     -10.224  14.627  64.877  1.00  0.00    -0.322 C  
BRANCH   5   6
HETATM    6  C   UNL     1     -10.848  13.286  65.389  1.00  0.00    -0.291 C  
HETATM    7  O   UNL     1      -9.760  12.295  65.433  1.00  0.00    -0.352 OA 
HETATM    8  P   UNL     1     -12.102  12.524  64.295  1.00  0.00    -0.465 P  
HETATM    9  P   UNL     1     -11.561  13.530  67.057  1.00  0.00    -0.401 P  
HETATM   10  H   UNL     1     -10.139  11.480  65.743  1.00  0.00     0.000 HD 
HETATM   11  O   UNL     1     -13.162  11.880  63.369  1.00  0.00    -0.649 OA 
HETATM   12  O   UNL     1     -10.885  12.333  63.182  1.00  0.00    -0.377 OA 
HETATM   13  O   UNL     1     -12.565  14.028  63.815  1.00  0.00    -0.772 OA 
HETATM   14  O   UNL     1     -10.074  13.248  67.717  1.00  0.00    -0.220 OA 
HETATM   15  O   UNL     1     -12.011  11.948  67.058  1.00  0.00    -0.615 OA 
HETATM   16  O   UNL     1     -12.164  13.737  68.468  1.00  0.00    -0.348 OA 
ENDBRANCH   5   6
ENDBRANCH   4   5
TORSDOF 2
ENDMDL
MODEL        2
REMARK 921   NORMALIZED FREE ENERGY PREDICTED BY IDOCK:   -5.66 KCAL/MOL
REMARK 922        TOTAL FREE ENERGY PREDICTED BY IDOCK:   -6.28 KCAL/MOL
REMARK 923 INTER-LIGAND FREE ENERGY PREDICTED BY IDOCK:   -5.69 KCAL/MOL
REMARK 924 INTRA-LIGAND FREE ENERGY PREDICTED BY IDOCK:   -0.60 KCAL/MOL
REMARK 927      BINDING AFFINITY PREDICTED BY RF-SCORE:    0.00 PKD
ROOT
HETATM    1  N   UNL     1     -11.466  16.694  63.972  1.00  0.00    -1.551 NA 
HETATM    2  H2  UNL     1     -12.249  16.086  63.732  1.00  0.00     0.000 HD 
HETATM    3  H1  UNL     1     -11.709  17.673  63.828  1.00  0.00     0.000 HD 
HETATM    4  C   UNL     1     -10.988  16.416  65.317  1.00  0.00    -0.195 C  
ENDROOT
BRANCH   4   5
HETATM    5  C   UNL     1     -10.623  14.943  65.534  1.00  0.00    -0.373 C  
BRANCH   5   6
HETATM    6  C   UNL     1     -11.797  13.915  65.650  1.00  0.00    -0.371 C  
HETATM    7  O   UNL     1     -13.045  14.693  65.719  1.00  0.00    -0.264 OA 
HETATM    8  P   UNL     1     -11.819  12.902  67.175  1.00  0.00    -0.241 P  
HETATM    9  P   UNL     1     -11.805  12.815  64.187  1.00  0.00    -0.496 P  
HETATM   10  H   UNL     1     -13.758  14.069  65.789  1.00  0.00     0.000 HD 
HETATM   11  O   UNL     1     -11.838  12.046  68.464  1.00  0.00    -0.318 OA 
HETATM   12  O   UNL     1     -12.064  14.318  68.006  1.00  0.00    -0.338 OA 
HETATM   13  O   UNL     1     -10.175  12.947  67.202  1.00  0.00    -0.235 OA 
HETATM   14  O   UNL     1     -12.692  13.940  63.366  1.00  0.00    -0.806 OA 
HETATM   15  O   UNL     1     -13.115  12.045  64.817  1.00  0.00    -0.430 OA 
HETATM   16  O   UNL     1     -11.812  11.885  62.950  1.00  0.00    -0.066 OA 
ENDBRANCH   5   6
ENDBRANCH   4   5
TORSDOF 2
ENDMDL
MODEL        3
REMARK 921   NORMALIZED FREE ENERGY PREDICTED BY IDOCK:   -5.47 KCAL/MOL
REMARK 922        TOTAL FREE ENERGY PREDICTED BY IDOCK:   -6.07 KCAL/MOL
REMARK 923 INTER-LIGAND FREE ENERGY PREDICTED BY IDOCK:   -5.51 KCAL/MOL
REMARK 924 INTRA-LIGAND FREE ENERGY PREDICTED BY IDOCK:   -0.56 KCAL/MOL
REMARK 927      BINDING AFFINITY PREDICTED BY RF-SCORE:    0.00 PKD
ROOT
HETATM    1  N   UNL     1     -10.627  13.958  69.349  1.00  0.00    -0.444 NA 
HETATM    2  H2  UNL     1     -10.834  14.876  68.956  1.00  0.00     0.000 HD 
HETATM    3  H1  UNL     1     -10.969  13.887  70.307  1.00  0.00     0.000 HD 
HETATM    4  C   UNL     1     -11.127  12.899  68.485  1.00  0.00    -0.267 C  
ENDROOT
BRANCH   4   5
HETATM    5  C   UNL     1     -10.614  13.005  67.044  1.00  0.00    -0.262 C  
BRANCH   5   6
HETATM    6  C   UNL     1     -11.194  14.151  66.150  1.00  0.00    -0.326 C  
HETATM    7  O   UNL     1     -12.388  14.670  66.837  1.00  0.00    -0.475 OA 
HETATM    8  P   UNL     1     -11.813  13.639  64.506  1.00  0.00    -0.446 P  
HETATM    9  P   UNL     1      -9.944  15.473  65.948  1.00  0.00    -0.386 P  
HETATM   10  H   UNL     1     -12.741  15.365  66.294  1.00  0.00     0.000 HD 
HETATM   11  O   UNL     1     -12.336  13.206  63.114  1.00  0.00    -0.677 OA 
HETATM   12  O   UNL     1     -12.961  12.752  65.312  1.00  0.00    -0.690 OA 
HETATM   13  O   UNL     1     -10.661  12.466  64.462  1.00  0.00    -0.289 OA 
HETATM   14  O   UNL     1     -10.447  16.144  67.370  1.00  0.00    -0.299 OA 
HETATM   15  O   UNL     1     -11.022  16.301  65.020  1.00  0.00    -0.479 OA 
HETATM   16  O   UNL     1      -8.887  16.591  65.776  1.00  0.00    -0.474 OA 
ENDBRANCH   5   6
ENDBRANCH   4   5
TORSDOF 2
ENDMDL
MODEL        4
REMARK 921   NORMALIZED FREE ENERGY PREDICTED BY IDOCK:   -5.43 KCAL/MOL
REMARK 922        TOTAL FREE ENERGY PREDICTED BY IDOCK:   -6.03 KCAL/MOL
REMARK 923 INTER-LIGAND FREE ENERGY PREDICTED BY IDOCK:   -5.53 KCAL/MOL
REMARK 924 INTRA-LIGAND FREE ENERGY PREDICTED BY IDOCK:   -0.51 KCAL/MOL
REMARK 927      BINDING AFFINITY PREDICTED BY RF-SCORE:    0.00 PKD
ROOT
HETATM    1  N   UNL     1     -12.206  13.309  62.771  1.00  0.00    -0.712 NA 
HETATM    2  H2  UNL     1     -11.623  13.903  62.182  1.00  0.00     0.000 HD 
HETATM    3  H1  UNL     1     -12.775  12.682  62.203  1.00  0.00     0.000 HD 
HETATM    4  C   UNL     1     -11.400  12.611  63.761  1.00  0.00    -0.467 C  
ENDROOT
BRANCH   4   5
HETATM    5  C   UNL     1     -10.544  13.554  64.613  1.00  0.00    -0.441 C  
BRANCH   5   6
HETATM    6  C   UNL     1     -11.282  14.467  65.647  1.00  0.00    -0.335 C  
HETATM    7  O   UNL     1     -12.718  14.404  65.329  1.00  0.00    -0.498 OA 
HETATM    8  P   UNL     1     -10.884  16.252  65.558  1.00  0.00    -0.075 P  
HETATM    9  P   UNL     1     -10.973  13.858  67.345  1.00  0.00    -0.302 P  
HETATM   10  H   UNL     1     -13.166  14.959  65.957  1.00  0.00     0.000 HD 
HETATM   11  O   UNL     1     -10.548  17.761  65.482  1.00  0.00    -0.632 OA 
HETATM   12  O   UNL     1     -11.568  16.238  64.045  1.00  0.00    -0.953 OA 
HETATM   13  O   UNL     1      -9.358  15.865  65.081  1.00  0.00    -0.125 OA 
HETATM   14  O   UNL     1     -12.230  12.801  67.178  1.00  0.00    -0.404 OA 
HETATM   15  O   UNL     1     -11.906  15.086  67.918  1.00  0.00    -0.334 OA 
HETATM   16  O   UNL     1     -10.711  13.342  68.781  1.00  0.00    -0.247 OA 
ENDBRANCH   5   6
ENDBRANCH   4   5
TORSDOF 2
ENDMDL
MODEL        5
REMARK 921   NORMALIZED FREE ENERGY PREDICTED BY IDOCK:   -5.41 KCAL/MOL
REMARK 922        TOTAL FREE ENERGY PREDICTED BY IDOCK:   -6.01 KCAL/MOL
REMARK 923 INTER-LIGAND FREE ENERGY PREDICTED BY IDOCK:   -5.46 KCAL/MOL
REMARK 924 INTRA-LIGAND FREE ENERGY PREDICTED BY IDOCK:   -0.55 KCAL/MOL
REMARK 927      BINDING AFFINITY PREDICTED BY RF-SCORE:    0.00 PKD
ROOT
HETATM    1  N   UNL     1     -11.950  11.601  67.878  1.00  0.00    -0.623 NA 
HETATM    2  H2  UNL     1     -12.124  10.930  67.130  1.00  0.00     0.000 HD 
HETATM    3  H1  UNL     1     -12.212  11.212  68.783  1.00  0.00     0.000 HD 
HETATM    4  C   UNL     1     -10.575  12.076  67.837  1.00  0.00    -0.202 C  
ENDROOT
BRANCH   4   5
HETATM    5  C   UNL     1     -10.181  12.661  66.476  1.00  0.00    -0.255 C  
BRANCH   5   6
HETATM    6  C   UNL     1     -10.899  13.972  66.015  1.00  0.00    -0.295 C  
HETATM    7  O   UNL     1     -11.935  14.271  67.018  1.00  0.00    -0.414 OA 
HETATM    8  P   UNL     1     -11.824  13.860  64.440  1.00  0.00    -0.396 P  
HETATM    9  P   UNL     1      -9.688  15.341  65.915  1.00  0.00    -0.325 P  
HETATM   10  H   UNL     1     -12.371  15.068  66.738  1.00  0.00     0.000 HD 
HETATM   11  O   UNL     1     -12.607  13.765  63.107  1.00  0.00    -0.793 OA 
HETATM   12  O   UNL     1     -12.815  12.768  65.202  1.00  0.00    -0.726 OA 
HETATM   13  O   UNL     1     -10.721  12.769  63.895  1.00  0.00    -0.406 OA 
HETATM   14  O   UNL     1      -9.904  15.629  67.527  1.00  0.00    -0.225 OA 
HETATM   15  O   UNL     1     -10.906  16.338  65.436  1.00  0.00    -0.343 OA 
HETATM   16  O   UNL     1      -8.663  16.498  65.831  1.00  0.00    -0.456 OA 
ENDBRANCH   5   6
ENDBRANCH   4   5
TORSDOF 2
ENDMDL
MODEL        6
REMARK 921   NORMALIZED FREE ENERGY PREDICTED BY IDOCK:   -5.41 KCAL/MOL
REMARK 922        TOTAL FREE ENERGY PREDICTED BY IDOCK:   -6.01 KCAL/MOL
REMARK 923 INTER-LIGAND FREE ENERGY PREDICTED BY IDOCK:   -5.46 KCAL/MOL
REMARK 924 INTRA-LIGAND FREE ENERGY PREDICTED BY IDOCK:   -0.55 KCAL/MOL
REMARK 927      BINDING AFFINITY PREDICTED BY RF-SCORE:    0.00 PKD
ROOT
HETATM    1  N   UNL     1     -12.459  14.122  63.750  1.00  0.00    -1.009 NA 
HETATM    2  H2  UNL     1     -11.561  14.538  63.501  1.00  0.00     0.000 HD 
HETATM    3  H1  UNL     1     -12.849  13.602  62.964  1.00  0.00     0.000 HD 
HETATM    4  C   UNL     1     -12.342  13.325  64.961  1.00  0.00    -0.448 C  
ENDROOT
BRANCH   4   5
HETATM    5  C   UNL     1     -11.755  14.106  66.142  1.00  0.00    -0.402 C  
BRANCH   5   6
HETATM    6  C   UNL     1     -10.341  14.750  65.954  1.00  0.00    -0.320 C  
HETATM    7  O   UNL     1      -9.813  14.261  64.669  1.00  0.00    -0.561 OA 
HETATM    8  P   UNL     1      -9.072  14.252  67.175  1.00  0.00    -0.243 P  
HETATM    9  P   UNL     1     -10.487  16.574  65.936  1.00  0.00    -0.198 P  
HETATM   10  H   UNL     1      -8.954  14.652  64.555  1.00  0.00     0.000 HD 
HETATM   11  O   UNL     1      -7.999  13.830  68.209  1.00  0.00    -0.130 OA 
HETATM   12  O   UNL     1      -9.213  12.715  66.562  1.00  0.00    -0.233 OA 
HETATM   13  O   UNL     1     -10.253  14.112  68.312  1.00  0.00    -0.230 OA 
HETATM   14  O   UNL     1     -10.824  16.516  64.321  1.00  0.00    -0.729 OA 
HETATM   15  O   UNL     1      -8.858  16.668  65.730  1.00  0.00    -0.493 OA 
HETATM   16  O   UNL     1     -10.611  18.117  65.921  1.00  0.00    -0.465 OA 
ENDBRANCH   5   6
ENDBRANCH   4   5
TORSDOF 2
ENDMDL
MODEL        7
REMARK 921   NORMALIZED FREE ENERGY PREDICTED BY IDOCK:   -5.39 KCAL/MOL
REMARK 922        TOTAL FREE ENERGY PREDICTED BY IDOCK:   -5.98 KCAL/MOL
REMARK 923 INTER-LIGAND FREE ENERGY PREDICTED BY IDOCK:   -5.40 KCAL/MOL
REMARK 924 INTRA-LIGAND FREE ENERGY PREDICTED BY IDOCK:   -0.58 KCAL/MOL
REMARK 927      BINDING AFFINITY PREDICTED BY RF-SCORE:    0.00 PKD
ROOT
HETATM    1  N   UNL     1     -12.394  13.759  62.955  1.00  0.00    -1.030 NA 
HETATM    2  H2  UNL     1     -11.582  14.314  63.223  1.00  0.00     0.000 HD 
HETATM    3  H1  UNL     1     -12.467  13.687  61.941  1.00  0.00     0.000 HD 
HETATM    4  C   UNL     1     -12.380  12.466  63.621  1.00  0.00    -0.548 C  
ENDROOT
BRANCH   4   5
HETATM    5  C   UNL     1     -12.271  12.574  65.146  1.00  0.00    -0.509 C  
BRANCH   5   6
HETATM    6  C   UNL     1     -10.866  12.905  65.750  1.00  0.00    -0.269 C  
HETATM    7  O   UNL     1      -9.891  12.805  64.652  1.00  0.00    -0.524 OA 
HETATM    8  P   UNL     1     -10.244  11.728  67.006  1.00  0.00    -0.224 P  
HETATM    9  P   UNL     1     -10.874  14.596  66.450  1.00  0.00    -0.326 P  
HETATM   10  H   UNL     1      -9.038  13.005  65.019  1.00  0.00     0.000 HD 
HETATM   11  O   UNL     1      -9.719  10.732  68.069  1.00  0.00    -0.157 OA 
HETATM   12  O   UNL     1     -10.220  10.589  65.799  1.00  0.00    -0.255 OA 
HETATM   13  O   UNL     1     -11.794  11.460  67.490  1.00  0.00    -0.614 OA 
HETATM   14  O   UNL     1     -10.522  15.200  64.954  1.00  0.00    -0.398 OA 
HETATM   15  O   UNL     1      -9.301  14.386  66.883  1.00  0.00    -0.234 OA 
HETATM   16  O   UNL     1     -10.881  16.027  67.042  1.00  0.00    -0.309 OA 
ENDBRANCH   5   6
ENDBRANCH   4   5
TORSDOF 2
ENDMDL
MODEL        8
REMARK 921   NORMALIZED FREE ENERGY PREDICTED BY IDOCK:   -5.29 KCAL/MOL
REMARK 922        TOTAL FREE ENERGY PREDICTED BY IDOCK:   -5.88 KCAL/MOL
REMARK 923 INTER-LIGAND FREE ENERGY PREDICTED BY IDOCK:   -5.33 KCAL/MOL
REMARK 924 INTRA-LIGAND FREE ENERGY PREDICTED BY IDOCK:   -0.54 KCAL/MOL
REMARK 927      BINDING AFFINITY PREDICTED BY RF-SCORE:    0.00 PKD
ROOT
HETATM    1  N   UNL     1     -11.035  16.053  68.478  1.00  0.00    -0.308 NA 
HETATM    2  H2  UNL     1     -10.415  15.480  69.050  1.00  0.00     0.000 HD 
HETATM    3  H1  UNL     1     -11.174  16.970  68.900  1.00  0.00     0.000 HD 
HETATM    4  C   UNL     1     -10.556  16.123  67.106  1.00  0.00    -0.294 C  
ENDROOT
BRANCH   4   5
HETATM    5  C   UNL     1     -10.346  14.744  66.471  1.00  0.00    -0.287 C  
BRANCH   5   6
HETATM    6  C   UNL     1     -11.609  13.845  66.254  1.00  0.00    -0.365 C  
HETATM    7  O   UNL     1     -12.766  14.601  66.762  1.00  0.00    -0.341 OA 
HETATM    8  P   UNL     1     -11.645  12.282  67.206  1.00  0.00    -0.283 P  
HETATM    9  P   UNL     1     -11.811  13.480  64.473  1.00  0.00    -0.447 P  
HETATM   10  H   UNL     1     -13.533  14.055  66.630  1.00  0.00     0.000 HD 
HETATM   11  O   UNL     1     -11.675  10.960  68.011  1.00  0.00    -0.540 OA 
HETATM   12  O   UNL     1     -11.698  13.220  68.574  1.00  0.00    -0.310 OA 
HETATM   13  O   UNL     1     -10.005  12.202  67.093  1.00  0.00    -0.199 OA 
HETATM   14  O   UNL     1     -12.626  14.904  64.289  1.00  0.00    -0.699 OA 
HETATM   15  O   UNL     1     -13.154  12.603  64.841  1.00  0.00    -0.850 OA 
HETATM   16  O   UNL     1     -11.983  13.170  62.965  1.00  0.00    -0.411 OA 
ENDBRANCH   5   6
ENDBRANCH   4   5
TORSDOF 2
ENDMDL
MODEL        9
REMARK 921   NORMALIZED FREE ENERGY PREDICTED BY IDOCK:   -5.26 KCAL/MOL
REMARK 922        TOTAL FREE ENERGY PREDICTED BY IDOCK:   -5.85 KCAL/MOL
REMARK 923 INTER-LIGAND FREE ENERGY PREDICTED BY IDOCK:   -5.29 KCAL/MOL
REMARK 924 INTRA-LIGAND FREE ENERGY PREDICTED BY IDOCK:   -0.55 KCAL/MOL
REMARK 927      BINDING AFFINITY PREDICTED BY RF-SCORE:    0.00 PKD
ROOT
HETATM    1  N   UNL     1      -8.539  15.195  66.545  1.00  0.00    -0.422 NA 
HETATM    2  H2  UNL     1      -8.448  14.190  66.694  1.00  0.00     0.000 HD 
HETATM    3  H1  UNL     1      -7.643  15.606  66.285  1.00  0.00     0.000 HD 
HETATM    4  C   UNL     1      -9.598  15.484  65.590  1.00  0.00    -0.293 C  
ENDROOT
BRANCH   4   5
HETATM    5  C   UNL     1     -10.945  14.865  65.981  1.00  0.00    -0.334 C  
BRANCH   5   6
HETATM    6  C   UNL     1     -11.053  13.303  65.978  1.00  0.00    -0.283 C  
HETATM    7  O   UNL     1      -9.747  12.782  65.542  1.00  0.00    -0.414 OA 
HETATM    8  P   UNL     1     -12.239  12.591  64.779  1.00  0.00    -0.399 P  
HETATM    9  P   UNL     1     -11.454  12.706  67.661  1.00  0.00    -0.369 P  
HETATM   10  H   UNL     1      -9.813  11.834  65.540  1.00  0.00     0.000 HD 
HETATM   11  O   UNL     1     -13.242  11.989  63.765  1.00  0.00    -0.723 OA 
HETATM   12  O   UNL     1     -11.268  13.213  63.585  1.00  0.00    -0.355 OA 
HETATM   13  O   UNL     1     -13.190  13.921  64.963  1.00  0.00    -0.729 OA 
HETATM   14  O   UNL     1      -9.847  12.729  68.035  1.00  0.00    -0.213 OA 
HETATM   15  O   UNL     1     -11.436  11.167  67.081  1.00  0.00    -0.461 OA 
HETATM   16  O   UNL     1     -11.794  12.201  69.084  1.00  0.00    -0.300 OA 
ENDBRANCH   5   6
ENDBRANCH   4   5
TORSDOF 2
ENDMDL
MODEL       10
REMARK 921   NORMALIZED FREE ENERGY PREDICTED BY IDOCK:   -5.26 KCAL/MOL
REMARK 922        TOTAL FREE ENERGY PREDICTED BY IDOCK:   -5.84 KCAL/MOL
REMARK 923 INTER-LIGAND FREE ENERGY PREDICTED BY IDOCK:   -5.31 KCAL/MOL
REMARK 924 INTRA-LIGAND FREE ENERGY PREDICTED BY IDOCK:   -0.54 KCAL/MOL
REMARK 927      BINDING AFFINITY PREDICTED BY RF-SCORE:    0.00 PKD
ROOT
HETATM    1  N   UNL     1     -11.391  16.591  64.169  1.00  0.00    -1.452 NA 
HETATM    2  H2  UNL     1     -10.747  17.358  64.358  1.00  0.00     0.000 HD 
HETATM    3  H1  UNL     1     -11.490  16.438  63.165  1.00  0.00     0.000 HD 
HETATM    4  C   UNL     1     -10.995  15.392  64.891  1.00  0.00    -0.437 C  
ENDROOT
BRANCH   4   5
HETATM    5  C   UNL     1     -10.845  15.620  66.400  1.00  0.00    -0.252 C  
BRANCH   5   6
HETATM    6  C   UNL     1      -9.668  16.531  66.882  1.00  0.00    -0.251 C  
HETATM    7  O   UNL     1      -8.736  16.664  65.749  1.00  0.00    -0.482 OA 
HETATM    8  P   UNL     1      -8.635  15.848  68.230  1.00  0.00    -0.188 P  
HETATM    9  P   UNL     1     -10.314  18.170  67.378  1.00  0.00    -0.389 P  
HETATM   10  H   UNL     1      -8.021  17.217  66.042  1.00  0.00     0.000 HD 
HETATM   11  O   UNL     1      -7.762  15.271  69.371  1.00  0.00    -0.200 OA 
HETATM   12  O   UNL     1      -8.188  14.657  67.164  1.00  0.00    -0.202 OA 
HETATM   13  O   UNL     1      -9.962  15.081  68.828  1.00  0.00    -0.214 OA 
HETATM   14  O   UNL     1     -10.229  18.662  65.804  1.00  0.00    -0.552 OA 
HETATM   15  O   UNL     1      -8.776  18.626  67.744  1.00  0.00    -0.273 OA 
HETATM   16  O   UNL     1     -10.861  19.556  67.798  1.00  0.00    -0.417 OA 
ENDBRANCH   5   6
ENDBRANCH   4   5
TORSDOF 2
ENDMDL
MODEL       11
REMARK 921   NORMALIZED FREE ENERGY PREDICTED BY IDOCK:   -5.23 KCAL/MOL
REMARK 922        TOTAL FREE ENERGY PREDICTED BY IDOCK:   -5.81 KCAL/MOL
REMARK 923 INTER-LIGAND FREE ENERGY PREDICTED BY IDOCK:   -5.25 KCAL/MOL
REMARK 924 INTRA-LIGAND FREE ENERGY PREDICTED BY IDOCK:   -0.56 KCAL/MOL
REMARK 927      BINDING AFFINITY PREDICTED BY RF-SCORE:    0.00 PKD
ROOT
HETATM    1  N   UNL     1     -11.717  16.099  63.926  1.00  0.00    -1.452 NA 
HETATM    2  H2  UNL     1     -10.880  16.292  64.476  1.00  0.00     0.000 HD 
HETATM    3  H1  UNL     1     -11.606  16.429  62.968  1.00  0.00     0.000 HD 
HETATM    4  C   UNL     1     -12.077  14.692  64.007  1.00  0.00    -0.200 C  
ENDROOT
BRANCH   4   5
HETATM    5  C   UNL     1     -12.243  14.195  65.448  1.00  0.00    -0.441 C  
BRANCH   5   6
HETATM    6  C   UNL     1     -10.953  14.071  66.325  1.00  0.00    -0.300 C  
HETATM    7  O   UNL     1      -9.817  14.466  65.477  1.00  0.00    -0.442 OA 
HETATM    8  P   UNL     1     -10.530  12.380  66.880  1.00  0.00    -0.230 P  
HETATM    9  P   UNL     1     -11.083  15.176  67.779  1.00  0.00    -0.321 P  
HETATM   10  H   UNL     1      -9.033  14.390  66.010  1.00  0.00     0.000 HD 
HETATM   11  O   UNL     1     -10.171  10.948  67.350  1.00  0.00    -0.188 OA 
HETATM   12  O   UNL     1     -10.307  12.005  65.278  1.00  0.00    -0.257 OA 
HETATM   13  O   UNL     1     -12.134  12.021  66.939  1.00  0.00    -0.608 OA 
HETATM   14  O   UNL     1     -10.504  16.422  66.864  1.00  0.00    -0.302 OA 
HETATM   15  O   UNL     1      -9.597  14.660  68.260  1.00  0.00    -0.196 OA 
HETATM   16  O   UNL     1     -11.194  16.110  69.009  1.00  0.00    -0.317 OA 
ENDBRANCH   5   6
ENDBRANCH   4   5
TORSDOF 2
ENDMDL
MODEL       12
REMARK 921   NORMALIZED FREE ENERGY PREDICTED BY IDOCK:   -5.18 KCAL/MOL
REMARK 922        TOTAL FREE ENERGY PREDICTED BY IDOCK:   -5.75 KCAL/MOL
REMARK 923 INTER-LIGAND FREE ENERGY PREDICTED BY IDOCK:   -5.17 KCAL/MOL
REMARK 924 INTRA-LIGAND FREE ENERGY PREDICTED BY IDOCK:   -0.58 KCAL/MOL
REMARK 927      BINDING AFFINITY PREDICTED BY RF-SCORE:    0.00 PKD
ROOT
HETATM    1  N   UNL     1     -10.457  16.762  67.211  1.00  0.00    -0.321 NA 
HETATM    2  H2  UNL     1     -11.291  17.209  66.830  1.00  0.00     0.000 HD 
HETATM    3  H1  UNL     1      -9.834  17.452  67.628  1.00  0.00     0.000 HD 
HETATM    4  C   UNL     1     -10.817  15.690  68.126  1.00  0.00    -0.301 C  
ENDROOT
BRANCH   4   5
HETATM    5  C   UNL     1     -11.755  14.653  67.499  1.00  0.00    -0.403 C  
BRANCH   5   6
HETATM    6  C   UNL     1     -11.154  13.690  66.421  1.00  0.00    -0.303 C  
HETATM    7  O   UNL     1      -9.753  14.092  66.218  1.00  0.00    -0.284 OA 
HETATM    8  P   UNL     1     -11.896  13.802  64.752  1.00  0.00    -0.439 P  
HETATM    9  P   UNL     1     -11.246  11.961  67.015  1.00  0.00    -0.323 P  
HETATM   10  H   UNL     1      -9.388  13.508  65.564  1.00  0.00     0.000 HD 
HETATM   11  O   UNL     1     -12.524  13.898  63.340  1.00  0.00    -0.833 OA 
HETATM   12  O   UNL     1     -11.306  15.352  64.691  1.00  0.00    -0.407 OA 
HETATM   13  O   UNL     1     -13.341  14.176  65.444  1.00  0.00    -0.705 OA 
HETATM   14  O   UNL     1      -9.818  12.176  67.814  1.00  0.00    -0.190 OA 
HETATM   15  O   UNL     1     -10.541  11.478  65.609  1.00  0.00    -0.261 OA 
HETATM   16  O   UNL     1     -11.324  10.498  67.516  1.00  0.00    -0.396 OA 
ENDBRANCH   5   6
ENDBRANCH   4   5
TORSDOF 2
ENDMDL
MODEL       13
REMARK 921   NORMALIZED FREE ENERGY PREDICTED BY IDOCK:   -5.16 KCAL/MOL
REMARK 922        TOTAL FREE ENERGY PREDICTED BY IDOCK:   -5.73 KCAL/MOL
REMARK 923 INTER-LIGAND FREE ENERGY PREDICTED BY IDOCK:   -5.15 KCAL/MOL
REMARK 924 INTRA-LIGAND FREE ENERGY PREDICTED BY IDOCK:   -0.58 KCAL/MOL
REMARK 927      BINDING AFFINITY PREDICTED BY RF-SCORE:    0.00 PKD
ROOT
HETATM    1  N   UNL     1      -9.719  13.161  68.756  1.00  0.00    -0.418 NA 
HETATM    2  H2  UNL     1      -9.034  12.865  68.061  1.00  0.00     0.000 HD 
HETATM    3  H1  UNL     1      -9.291  13.768  69.454  1.00  0.00     0.000 HD 
HETATM    4  C   UNL     1     -10.881  13.757  68.116  1.00  0.00    -0.246 C  
ENDROOT
BRANCH   4   5
HETATM    5  C   UNL     1     -11.526  12.844  67.067  1.00  0.00    -0.390 C  
BRANCH   5   6
HETATM    6  C   UNL     1     -10.812  12.718  65.679  1.00  0.00    -0.273 C  
HETATM    7  O   UNL     1      -9.693  13.675  65.683  1.00  0.00    -0.460 OA 
HETATM    8  P   UNL     1     -11.811  13.206  64.225  1.00  0.00    -0.462 P  
HETATM    9  P   UNL     1     -10.196  11.010  65.451  1.00  0.00    -0.265 P  
HETATM   10  H   UNL     1      -9.261  13.599  64.840  1.00  0.00     0.000 HD 
HETATM   11  O   UNL     1     -12.656  13.618  62.995  1.00  0.00    -0.729 OA 
HETATM   12  O   UNL     1     -11.817  14.742  64.856  1.00  0.00    -0.382 OA 
HETATM   13  O   UNL     1     -13.161  12.675  65.002  1.00  0.00    -0.808 OA 
HETATM   14  O   UNL     1      -8.822  11.413  66.273  1.00  0.00    -0.191 OA 
HETATM   15  O   UNL     1      -9.609  11.456  63.981  1.00  0.00    -0.232 OA 
HETATM   16  O   UNL     1      -9.675   9.565  65.258  1.00  0.00    -0.293 OA 
ENDBRANCH   5   6
ENDBRANCH   4   5
TORSDOF 2
ENDMDL
MODEL       14
REMARK 921   NORMALIZED FREE ENERGY PREDICTED BY IDOCK:   -5.16 KCAL/MOL
REMARK 922        TOTAL FREE ENERGY PREDICTED BY IDOCK:   -5.72 KCAL/MOL
REMARK 923 INTER-LIGAND FREE ENERGY PREDICTED BY IDOCK:   -5.18 KCAL/MOL
REMARK 924 INTRA-LIGAND FREE ENERGY PREDICTED BY IDOCK:   -0.54 KCAL/MOL
REMARK 927      BINDING AFFINITY PREDICTED BY RF-SCORE:    0.00 PKD
ROOT
HETATM    1  N   UNL     1      -7.810  11.877  66.418  1.00  0.00    -0.382 NA 
HETATM    2  H2  UNL     1      -7.917  11.715  67.420  1.00  0.00     0.000 HD 
HETATM    3  H1  UNL     1      -6.839  11.755  66.132  1.00  0.00     0.000 HD 
HETATM    4  C   UNL     1      -8.737  11.052  65.659  1.00  0.00    -0.157 C  
ENDROOT
BRANCH   4   5
HETATM    5  C   UNL     1     -10.197  11.235  66.090  1.00  0.00    -0.291 C  
BRANCH   5   6
HETATM    6  C   UNL     1     -10.879  12.607  65.774  1.00  0.00    -0.274 C  
HETATM    7  O   UNL     1      -9.819  13.518  65.310  1.00  0.00    -0.506 OA 
HETATM    8  P   UNL     1     -11.617  13.476  67.206  1.00  0.00    -0.402 P  
HETATM    9  P   UNL     1     -12.149  12.385  64.475  1.00  0.00    -0.391 P  
HETATM   10  H   UNL     1     -10.234  14.351  65.119  1.00  0.00     0.000 HD 
HETATM   11  O   UNL     1     -12.241  14.210  68.418  1.00  0.00    -0.314 OA 
HETATM   12  O   UNL     1     -10.077  13.600  67.812  1.00  0.00    -0.233 OA 
HETATM   13  O   UNL     1     -11.970  12.017  67.881  1.00  0.00    -0.526 OA 
HETATM   14  O   UNL     1     -10.977  12.549  63.324  1.00  0.00    -0.425 OA 
HETATM   15  O   UNL     1     -12.474  13.995  64.567  1.00  0.00    -0.593 OA 
HETATM   16  O   UNL     1     -13.223  12.196  63.376  1.00  0.00    -0.689 OA 
ENDBRANCH   5   6
ENDBRANCH   4   5
TORSDOF 2
ENDMDL
MODEL       15
REMARK 921   NORMALIZED FREE ENERGY PREDICTED BY IDOCK:   -5.10 KCAL/MOL
REMARK 922        TOTAL FREE ENERGY PREDICTED BY IDOCK:   -5.67 KCAL/MOL
REMARK 923 INTER-LIGAND FREE ENERGY PREDICTED BY IDOCK:   -5.09 KCAL/MOL
REMARK 924 INTRA-LIGAND FREE ENERGY PREDICTED BY IDOCK:   -0.58 KCAL/MOL
REMARK 927      BINDING AFFINITY PREDICTED BY RF-SCORE:    0.00 PKD
ROOT
HETATM    1  N   UNL     1     -12.229  14.831  63.722  1.00  0.00    -1.039 NA 
HETATM    2  H2  UNL     1     -12.801  14.204  64.288  1.00  0.00     0.000 HD 
HETATM    3  H1  UNL     1     -12.806  15.358  63.068  1.00  0.00     0.000 HD 
HETATM    4  C   UNL     1     -11.402  15.680  64.566  1.00  0.00    -0.320 C  
ENDROOT
BRANCH   4   5
HETATM    5  C   UNL     1     -10.534  14.887  65.550  1.00  0.00    -0.380 C  
BRANCH   5   6
HETATM    6  C   UNL     1     -11.258  14.160  66.732  1.00  0.00    -0.323 C  
HETATM    7  O   UNL     1     -12.685  14.510  66.642  1.00  0.00    -0.423 OA 
HETATM    8  P   UNL     1     -10.772  14.698  68.413  1.00  0.00    -0.257 P  
HETATM    9  P   UNL     1     -11.029  12.351  66.580  1.00  0.00    -0.298 P  
HETATM   10  H   UNL     1     -13.125  14.068  67.360  1.00  0.00     0.000 HD 
HETATM   11  O   UNL     1     -10.361  15.152  69.834  1.00  0.00    -0.246 OA 
HETATM   12  O   UNL     1     -11.411  16.180  68.027  1.00  0.00    -0.326 OA 
HETATM   13  O   UNL     1      -9.253  14.993  67.855  1.00  0.00    -0.179 OA 
HETATM   14  O   UNL     1     -12.330  12.287  65.566  1.00  0.00    -0.602 OA 
HETATM   15  O   UNL     1     -11.918  12.158  67.951  1.00  0.00    -0.489 OA 
HETATM   16  O   UNL     1     -10.835  10.820  66.452  1.00  0.00    -0.204 OA 
ENDBRANCH   5   6
ENDBRANCH   4   5
TORSDOF 2
ENDMDL
MODEL       16
REMARK 921   NORMALIZED FREE ENERGY PREDICTED BY IDOCK:   -5.03 KCAL/MOL
REMARK 922        TOTAL FREE ENERGY PREDICTED BY IDOCK:   -5.58 KCAL/MOL
REMARK 923 INTER-LIGAND FREE ENERGY PREDICTED BY IDOCK:   -5.42 KCAL/MOL
REMARK 924 INTRA-LIGAND FREE ENERGY PREDICTED BY IDOCK:   -0.16 KCAL/MOL
REMARK 927      BINDING AFFINITY PREDICTED BY RF-SCORE:    0.00 PKD
ROOT
HETATM    1  N   UNL     1      -7.980  14.448  66.582  1.00  0.00    -0.225 NA 
HETATM    2  H2  UNL     1      -7.493  14.224  65.715  1.00  0.00     0.000 HD 
HETATM    3  H1  UNL     1      -7.347  14.879  67.254  1.00  0.00     0.000 HD 
HETATM    4  C   UNL     1      -9.164  15.252  66.318  1.00  0.00    -0.315 C  
ENDROOT
BRANCH   4   5
HETATM    5  C   UNL     1     -10.118  14.604  65.307  1.00  0.00    -0.393 C  
BRANCH   5   6
HETATM    6  C   UNL     1     -10.740  13.218  65.681  1.00  0.00    -0.282 C  
HETATM    7  O   UNL     1      -9.643  12.236  65.666  1.00  0.00    -0.344 OA 
HETATM    8  P   UNL     1     -11.957  12.546  64.492  1.00  0.00    -0.430 P  
HETATM    9  P   UNL     1     -11.498  13.308  67.345  1.00  0.00    -0.374 P  
HETATM   10  H   UNL     1     -10.021  11.394  65.893  1.00  0.00     0.000 HD 
HETATM   11  O   UNL     1     -12.987  11.977  63.485  1.00  0.00    -0.774 OA 
HETATM   12  O   UNL     1     -10.710  12.464  63.399  1.00  0.00    -0.446 OA 
HETATM   13  O   UNL     1     -12.423  14.082  64.135  1.00  0.00    -0.665 OA 
HETATM   14  O   UNL     1     -10.025  12.981  68.017  1.00  0.00    -0.220 OA 
HETATM   15  O   UNL     1     -11.931  11.728  67.195  1.00  0.00    -0.617 OA 
HETATM   16  O   UNL     1     -12.139  13.384  68.752  1.00  0.00    -0.337 OA 
ENDBRANCH   5   6
ENDBRANCH   4   5
TORSDOF 2
ENDMDL
MODEL       17
REMARK 921   NORMALIZED FREE ENERGY PREDICTED BY IDOCK:   -5.03 KCAL/MOL
REMARK 922        TOTAL FREE ENERGY PREDICTED BY IDOCK:   -5.58 KCAL/MOL
REMARK 923 INTER-LIGAND FREE ENERGY PREDICTED BY IDOCK:   -5.55 KCAL/MOL
REMARK 924 INTRA-LIGAND FREE ENERGY PREDICTED BY IDOCK:   -0.03 KCAL/MOL
REMARK 927      BINDING AFFINITY PREDICTED BY RF-SCORE:    0.00 PKD
ROOT
HETATM    1  N   UNL     1     -11.241  16.723  64.139  1.00  0.00    -1.383 NA 
HETATM    2  H2  UNL     1     -11.214  17.612  64.638  1.00  0.00     0.000 HD 
HETATM    3  H1  UNL     1     -10.986  16.847  63.160  1.00  0.00     0.000 HD 
HETATM    4  C   UNL     1     -10.431  15.723  64.818  1.00  0.00    -0.019 C  
ENDROOT
BRANCH   4   5
HETATM    5  C   UNL     1     -10.815  15.536  66.291  1.00  0.00    -0.283 C  
BRANCH   5   6
HETATM    6  C   UNL     1     -11.337  14.128  66.731  1.00  0.00    -0.343 C  
HETATM    7  O   UNL     1     -12.480  14.355  67.630  1.00  0.00    -0.596 OA 
HETATM    8  P   UNL     1     -10.175  13.128  67.731  1.00  0.00    -0.242 P  
HETATM    9  P   UNL     1     -11.856  13.171  65.260  1.00  0.00    -0.421 P  
HETATM   10  H   UNL     1     -12.796  13.499  67.898  1.00  0.00     0.000 HD 
HETATM   11  O   UNL     1      -9.192  12.282  68.577  1.00  0.00    -0.175 OA 
HETATM   12  O   UNL     1     -10.306  14.302  68.897  1.00  0.00    -0.235 OA 
HETATM   13  O   UNL     1      -8.920  13.809  66.914  1.00  0.00    -0.237 OA 
HETATM   14  O   UNL     1     -13.339  13.893  65.334  1.00  0.00    -0.710 OA 
HETATM   15  O   UNL     1     -12.262  11.927  66.256  1.00  0.00    -0.471 OA 
HETATM   16  O   UNL     1     -12.295  12.362  64.015  1.00  0.00    -0.442 OA 
ENDBRANCH   5   6
ENDBRANCH   4   5
TORSDOF 2
ENDMDL
MODEL       18
REMARK 921   NORMALIZED FREE ENERGY PREDICTED BY IDOCK:   -5.00 KCAL/MOL
REMARK 922        TOTAL FREE ENERGY PREDICTED BY IDOCK:   -5.55 KCAL/MOL
REMARK 923 INTER-LIGAND FREE ENERGY PREDICTED BY IDOCK:   -5.28 KCAL/MOL
REMARK 924 INTRA-LIGAND FREE ENERGY PREDICTED BY IDOCK:   -0.27 KCAL/MOL
REMARK 927      BINDING AFFINITY PREDICTED BY RF-SCORE:    0.00 PKD
ROOT
HETATM    1  N   UNL     1     -11.922  10.751  68.451  1.00  0.00    -0.809 NA 
HETATM    2  H2  UNL     1     -12.461  11.603  68.605  1.00  0.00     0.000 HD 
HETATM    3  H1  UNL     1     -12.528   9.931  68.456  1.00  0.00     0.000 HD 
HETATM    4  C   UNL     1     -11.116  10.859  67.244  1.00  0.00    -0.283 C  
ENDROOT
BRANCH   4   5
HETATM    5  C   UNL     1     -10.205  12.092  67.237  1.00  0.00    -0.221 C  
BRANCH   5   6
HETATM    6  C   UNL     1     -10.671  13.332  66.404  1.00  0.00    -0.285 C  
HETATM    7  O   UNL     1      -9.519  13.764  65.596  1.00  0.00    -0.504 OA 
HETATM    8  P   UNL     1     -11.118  14.818  67.374  1.00  0.00    -0.342 P  
HETATM    9  P   UNL     1     -12.073  12.863  65.325  1.00  0.00    -0.484 P  
HETATM   10  H   UNL     1      -9.802  14.518  65.090  1.00  0.00     0.000 HD 
HETATM   11  O   UNL     1     -11.496  16.076  68.194  1.00  0.00    -0.338 OA 
HETATM   12  O   UNL     1      -9.530  14.873  67.854  1.00  0.00    -0.196 OA 
HETATM   13  O   UNL     1     -11.650  13.841  68.585  1.00  0.00    -0.287 OA 
HETATM   14  O   UNL     1     -11.000  12.333  64.188  1.00  0.00    -0.308 OA 
HETATM   15  O   UNL     1     -12.112  14.409  64.763  1.00  0.00    -0.412 OA 
HETATM   16  O   UNL     1     -13.259  12.467  64.412  1.00  0.00    -0.816 OA 
ENDBRANCH   5   6
ENDBRANCH   4   5
TORSDOF 2
ENDMDL
MODEL       19
REMARK 921   NORMALIZED FREE ENERGY PREDICTED BY IDOCK:   -5.00 KCAL/MOL
REMARK 922        TOTAL FREE ENERGY PREDICTED BY IDOCK:   -5.55 KCAL/MOL
REMARK 923 INTER-LIGAND FREE ENERGY PREDICTED BY IDOCK:   -4.99 KCAL/MOL
REMARK 924 INTRA-LIGAND FREE ENERGY PREDICTED BY IDOCK:   -0.56 KCAL/MOL
REMARK 927      BINDING AFFINITY PREDICTED BY RF-SCORE:    0.00 PKD
ROOT
HETATM    1  N   UNL     1     -10.426  14.937  70.411  1.00  0.00    -0.498 NA 
HETATM    2  H2  UNL     1     -10.491  15.951  70.500  1.00  0.00     0.000 HD 
HETATM    3  H1  UNL     1     -10.299  14.500  71.323  1.00  0.00     0.000 HD 
HETATM    4  C   UNL     1     -11.565  14.407  69.677  1.00  0.00    -0.292 C  
ENDROOT
BRANCH   4   5
HETATM    5  C   UNL     1     -11.757  15.065  68.306  1.00  0.00    -0.338 C  
BRANCH   5   6
HETATM    6  C   UNL     1     -10.922  14.500  67.108  1.00  0.00    -0.304 C  
HETATM    7  O   UNL     1     -10.083  13.415  67.643  1.00  0.00    -0.222 OA 
HETATM    8  P   UNL     1      -9.723  15.662  66.358  1.00  0.00    -0.333 P  
HETATM    9  P   UNL     1     -12.048  13.864  65.813  1.00  0.00    -0.475 P  
HETATM   10  H   UNL     1      -9.576  13.072  66.915  1.00  0.00     0.000 HD 
HETATM   11  O   UNL     1      -8.709  16.645  65.723  1.00  0.00    -0.482 OA 
HETATM   12  O   UNL     1      -8.929  15.644  67.815  1.00  0.00    -0.175 OA 
HETATM   13  O   UNL     1     -10.741  16.905  66.711  1.00  0.00    -0.240 OA 
HETATM   14  O   UNL     1     -12.128  12.422  66.613  1.00  0.00    -0.592 OA 
HETATM   15  O   UNL     1     -10.730  13.450  64.920  1.00  0.00    -0.327 OA 
HETATM   16  O   UNL     1     -13.000  13.326  64.717  1.00  0.00    -0.710 OA 
ENDBRANCH   5   6
ENDBRANCH   4   5
TORSDOF 2
ENDMDL
MODEL       20
REMARK 921   NORMALIZED FREE ENERGY PREDICTED BY IDOCK:   -4.99 KCAL/MOL
REMARK 922        TOTAL FREE ENERGY PREDICTED BY IDOCK:   -5.54 KCAL/MOL
REMARK 923 INTER-LIGAND FREE ENERGY PREDICTED BY IDOCK:   -5.33 KCAL/MOL
REMARK 924 INTRA-LIGAND FREE ENERGY PREDICTED BY IDOCK:   -0.21 KCAL/MOL
REMARK 927      BINDING AFFINITY PREDICTED BY RF-SCORE:    0.00 PKD
ROOT
HETATM    1  N   UNL     1     -12.478  14.421  68.989  1.00  0.00    -0.552 NA 
HETATM    2  H2  UNL     1     -12.574  15.146  68.279  1.00  0.00     0.000 HD 
HETATM    3  H1  UNL     1     -13.378  14.208  69.416  1.00  0.00     0.000 HD 
HETATM    4  C   UNL     1     -11.812  13.248  68.445  1.00  0.00    -0.360 C  
ENDROOT
BRANCH   4   5
HETATM    5  C   UNL     1     -10.457  13.568  67.803  1.00  0.00    -0.242 C  
BRANCH   5   6
HETATM    6  C   UNL     1     -10.434  13.859  66.265  1.00  0.00    -0.287 C  
HETATM    7  O   UNL     1      -9.261  13.161  65.713  1.00  0.00    -0.451 OA 
HETATM    8  P   UNL     1     -10.177  15.608  65.791  1.00  0.00    -0.408 P  
HETATM    9  P   UNL     1     -11.973  13.237  65.494  1.00  0.00    -0.461 P  
HETATM   10  H   UNL     1      -9.247  13.338  64.780  1.00  0.00     0.000 HD 
HETATM   11  O   UNL     1      -9.960  17.087  65.389  1.00  0.00    -0.556 OA 
HETATM   12  O   UNL     1      -8.675  15.483  66.487  1.00  0.00    -0.267 OA 
HETATM   13  O   UNL     1     -10.980  16.071  67.150  1.00  0.00    -0.289 OA 
HETATM   14  O   UNL     1     -11.283  11.743  65.359  1.00  0.00    -0.304 OA 
HETATM   15  O   UNL     1     -11.419  13.772  64.040  1.00  0.00    -0.334 OA 
HETATM   16  O   UNL     1     -13.274  12.711  64.841  1.00  0.00    -0.819 OA 
ENDBRANCH   5   6
ENDBRANCH   4   5
TORSDOF 2
ENDMDL
MODEL       21
REMARK 921   NORMALIZED FREE ENERGY PREDICTED BY IDOCK:   -4.99 KCAL/MOL
REMARK 922        TOTAL FREE ENERGY PREDICTED BY IDOCK:   -5.54 KCAL/MOL
REMARK 923 INTER-LIGAND FREE ENERGY PREDICTED BY IDOCK:   -4.96 KCAL/MOL
REMARK 924 INTRA-LIGAND FREE ENERGY PREDICTED BY IDOCK:   -0.57 KCAL/MOL
REMARK 927      BINDING AFFINITY PREDICTED BY RF-SCORE:    0.00 PKD
ROOT
HETATM    1  N   UNL     1     -12.256  10.872  68.725  1.00  0.00    -0.793 NA 
HETATM    2  H2  UNL     1     -11.769  10.926  67.830  1.00  0.00     0.000 HD 
HETATM    3  H1  UNL     1     -12.095   9.970  69.172  1.00  0.00     0.000 HD 
HETATM    4  C   UNL     1     -11.907  12.001  69.573  1.00  0.00    -0.326 C  
ENDROOT
BRANCH   4   5
HETATM    5  C   UNL     1     -12.149  13.357  68.900  1.00  0.00    -0.289 C  
BRANCH   5   6
HETATM    6  C   UNL     1     -11.269  13.716  67.657  1.00  0.00    -0.279 C  
HETATM    7  O   UNL     1     -10.180  12.726  67.600  1.00  0.00    -0.213 OA 
HETATM    8  P   UNL     1     -10.403  15.327  67.735  1.00  0.00    -0.252 P  
HETATM    9  P   UNL     1     -12.284  13.642  66.136  1.00  0.00    -0.405 P  
HETATM   10  H   UNL     1      -9.646  12.945  66.845  1.00  0.00     0.000 HD 
HETATM   11  O   UNL     1      -9.671  16.689  67.801  1.00  0.00    -0.235 OA 
HETATM   12  O   UNL     1      -9.553  14.707  69.019  1.00  0.00    -0.207 OA 
HETATM   13  O   UNL     1     -11.657  15.933  68.610  1.00  0.00    -0.382 OA 
HETATM   14  O   UNL     1     -11.996  12.019  66.041  1.00  0.00    -0.559 OA 
HETATM   15  O   UNL     1     -10.953  14.067  65.268  1.00  0.00    -0.307 OA 
HETATM   16  O   UNL     1     -13.144  13.579  64.849  1.00  0.00    -0.718 OA 
ENDBRANCH   5   6
ENDBRANCH   4   5
TORSDOF 2
ENDMDL
MODEL       22
REMARK 921   NORMALIZED FREE ENERGY PREDICTED BY IDOCK:   -4.98 KCAL/MOL
REMARK 922        TOTAL FREE ENERGY PREDICTED BY IDOCK:   -5.53 KCAL/MOL
REMARK 923 INTER-LIGAND FREE ENERGY PREDICTED BY IDOCK:   -4.98 KCAL/MOL
REMARK 924 INTRA-LIGAND FREE ENERGY PREDICTED BY IDOCK:   -0.55 KCAL/MOL
REMARK 927      BINDING AFFINITY PREDICTED BY RF-SCORE:    0.00 PKD
ROOT
HETATM    1  N   UNL     1      -8.432  13.129  68.642  1.00  0.00    -0.353 NA 
HETATM    2  H2  UNL     1      -8.869  13.416  69.517  1.00  0.00     0.000 HD 
HETATM    3  H1  UNL     1      -7.626  12.529  68.818  1.00  0.00     0.000 HD 
HETATM    4  C   UNL     1      -9.408  12.524  67.749  1.00  0.00    -0.198 C  
ENDROOT
BRANCH   4   5
HETATM    5  C   UNL     1     -10.620  13.425  67.484  1.00  0.00    -0.255 C  
BRANCH   5   6
HETATM    6  C   UNL     1     -10.398  14.697  66.600  1.00  0.00    -0.273 C  
HETATM    7  O   UNL     1      -8.994  14.675  66.159  1.00  0.00    -0.488 OA 
HETATM    8  P   UNL     1     -10.571  16.303  67.460  1.00  0.00    -0.261 P  
HETATM    9  P   UNL     1     -11.524  14.654  65.158  1.00  0.00    -0.382 P  
HETATM   10  H   UNL     1      -8.859  15.448  65.623  1.00  0.00     0.000 HD 
HETATM   11  O   UNL     1     -10.717  17.662  68.188  1.00  0.00    -0.375 OA 
HETATM   12  O   UNL     1      -9.251  15.860  68.365  1.00  0.00    -0.189 OA 
HETATM   13  O   UNL     1     -11.709  15.631  68.440  1.00  0.00    -0.367 OA 
HETATM   14  O   UNL     1     -10.422  13.731  64.345  1.00  0.00    -0.422 OA 
HETATM   15  O   UNL     1     -10.889  16.088  64.663  1.00  0.00    -0.608 OA 
HETATM   16  O   UNL     1     -12.477  14.617  63.938  1.00  0.00    -0.813 OA 
ENDBRANCH   5   6
ENDBRANCH   4   5
TORSDOF 2
ENDMDL
MODEL       23
REMARK 921   NORMALIZED FREE ENERGY PREDICTED BY IDOCK:   -4.93 KCAL/MOL
REMARK 922        TOTAL FREE ENERGY PREDICTED BY IDOCK:   -5.47 KCAL/MOL
REMARK 923 INTER-LIGAND FREE ENERGY PREDICTED BY IDOCK:   -5.00 KCAL/MOL
REMARK 924 INTRA-LIGAND FREE ENERGY PREDICTED BY IDOCK:   -0.47 KCAL/MOL
REMARK 927      BINDING AFFINITY PREDICTED BY RF-SCORE:    0.00 PKD
ROOT
HETATM    1  N   UNL     1     -11.549  16.520  63.947  1.00  0.00    -1.578 NA 
HETATM    2  H2  UNL     1     -10.825  16.755  63.269  1.00  0.00     0.000 HD 
HETATM    3  H1  UNL     1     -12.464  16.470  63.501  1.00  0.00     0.000 HD 
HETATM    4  C   UNL     1     -11.202  15.309  64.675  1.00  0.00    -0.356 C  
ENDROOT
BRANCH   4   5
HETATM    5  C   UNL     1      -9.826  15.383  65.347  1.00  0.00    -0.314 C  
BRANCH   5   6
HETATM    6  C   UNL     1      -9.761  15.953  66.803  1.00  0.00    -0.238 C  
HETATM    7  O   UNL     1     -11.149  16.163  67.246  1.00  0.00    -0.231 OA 
HETATM    8  P   UNL     1      -8.983  17.600  66.978  1.00  0.00    -0.264 P  
HETATM    9  P   UNL     1      -8.911  14.758  67.899  1.00  0.00    -0.185 P  
HETATM   10  H   UNL     1     -11.109  16.509  68.130  1.00  0.00     0.000 HD 
HETATM   11  O   UNL     1      -8.325  18.994  67.126  1.00  0.00    -0.270 OA 
HETATM   12  O   UNL     1     -10.239  18.191  66.068  1.00  0.00    -0.490 OA 
HETATM   13  O   UNL     1      -7.988  17.239  65.719  1.00  0.00    -0.511 OA 
HETATM   14  O   UNL     1     -10.345  13.971  68.126  1.00  0.00    -0.230 OA 
HETATM   15  O   UNL     1      -9.131  15.802  69.150  1.00  0.00    -0.228 OA 
HETATM   16  O   UNL     1      -8.192  13.747  68.825  1.00  0.00    -0.109 OA 
ENDBRANCH   5   6
ENDBRANCH   4   5
TORSDOF 2
ENDMDL
MODEL       24
REMARK 921   NORMALIZED FREE ENERGY PREDICTED BY IDOCK:   -4.85 KCAL/MOL
REMARK 922        TOTAL FREE ENERGY PREDICTED BY IDOCK:   -5.38 KCAL/MOL
REMARK 923 INTER-LIGAND FREE ENERGY PREDICTED BY IDOCK:   -4.80 KCAL/MOL
REMARK 924 INTRA-LIGAND FREE ENERGY PREDICTED BY IDOCK:   -0.58 KCAL/MOL
REMARK 927      BINDING AFFINITY PREDICTED BY RF-SCORE:    0.00 PKD
ROOT
HETATM    1  N   UNL     1      -9.512  20.874  66.904  1.00  0.00    -0.670 NA 
HETATM    2  H2  UNL     1      -8.578  20.492  66.756  1.00  0.00     0.000 HD 
HETATM    3  H1  UNL     1      -9.631  21.752  66.398  1.00  0.00     0.000 HD 
HETATM    4  C   UNL     1     -10.532  19.888  66.582  1.00  0.00    -0.460 C  
ENDROOT
BRANCH   4   5
HETATM    5  C   UNL     1     -10.354  18.568  67.342  1.00  0.00    -0.432 C  
BRANCH   5   6
HETATM    6  C   UNL     1      -9.180  17.632  66.903  1.00  0.00    -0.263 C  
HETATM    7  O   UNL     1      -8.546  18.257  65.731  1.00  0.00    -0.462 OA 
HETATM    8  P   UNL     1      -9.667  15.969  66.313  1.00  0.00    -0.360 P  
HETATM    9  P   UNL     1      -7.975  17.465  68.272  1.00  0.00    -0.269 P  
HETATM   10  H   UNL     1      -7.833  17.688  65.464  1.00  0.00     0.000 HD 
HETATM   11  O   UNL     1     -10.079  14.563  65.814  1.00  0.00    -0.308 OA 
HETATM   12  O   UNL     1     -10.435  16.737  65.058  1.00  0.00    -0.675 OA 
HETATM   13  O   UNL     1     -10.936  15.994  67.359  1.00  0.00    -0.315 OA 
HETATM   14  O   UNL     1      -7.236  18.853  67.769  1.00  0.00    -0.228 OA 
HETATM   15  O   UNL     1      -7.075  16.478  67.312  1.00  0.00    -0.137 OA 
HETATM   16  O   UNL     1      -6.957  17.324  69.429  1.00  0.00    -0.225 OA 
ENDBRANCH   5   6
ENDBRANCH   4   5
TORSDOF 2
ENDMDL
MODEL       25
REMARK 921   NORMALIZED FREE ENERGY PREDICTED BY IDOCK:   -4.84 KCAL/MOL
REMARK 922        TOTAL FREE ENERGY PREDICTED BY IDOCK:   -5.37 KCAL/MOL
REMARK 923 INTER-LIGAND FREE ENERGY PREDICTED BY IDOCK:   -4.80 KCAL/MOL
REMARK 924 INTRA-LIGAND FREE ENERGY PREDICTED BY IDOCK:   -0.57 KCAL/MOL
REMARK 927      BINDING AFFINITY PREDICTED BY RF-SCORE:    0.00 PKD
ROOT
HETATM    1  N   UNL     1     -12.055  10.994  68.314  1.00  0.00    -0.788 NA 
HETATM    2  H2  UNL     1     -12.591  11.757  68.726  1.00  0.00     0.000 HD 
HETATM    3  H1  UNL     1     -12.641  10.171  68.178  1.00  0.00     0.000 HD 
HETATM    4  C   UNL     1     -11.387  11.428  67.097  1.00  0.00    -0.255 C  
ENDROOT
BRANCH   4   5
HETATM    5  C   UNL     1     -10.507  12.666  67.302  1.00  0.00    -0.237 C  
BRANCH   5   6
HETATM    6  C   UNL     1     -11.222  14.052  67.423  1.00  0.00    -0.311 C  
HETATM    7  O   UNL     1     -12.657  13.817  67.196  1.00  0.00    -0.389 OA 
HETATM    8  P   UNL     1     -10.768  15.294  66.157  1.00  0.00    -0.314 P  
HETATM    9  P   UNL     1     -10.942  14.751  69.091  1.00  0.00    -0.286 P  
HETATM   10  H   UNL     1     -13.092  14.659  67.269  1.00  0.00     0.000 HD 
HETATM   11  O   UNL     1     -10.384  16.344  65.086  1.00  0.00    -0.610 OA 
HETATM   12  O   UNL     1     -11.444  14.270  65.038  1.00  0.00    -0.333 OA 
HETATM   13  O   UNL     1      -9.252  14.657  66.108  1.00  0.00    -0.264 OA 
HETATM   14  O   UNL     1     -12.230  13.885  69.653  1.00  0.00    -0.333 OA 
HETATM   15  O   UNL     1     -11.838  16.060  68.655  1.00  0.00    -0.367 OA 
HETATM   16  O   UNL     1     -10.704  15.342  70.502  1.00  0.00    -0.311 OA 
ENDBRANCH   5   6
ENDBRANCH   4   5
TORSDOF 2
ENDMDL
MODEL       26
REMARK 921   NORMALIZED FREE ENERGY PREDICTED BY IDOCK:   -4.83 KCAL/MOL
REMARK 922        TOTAL FREE ENERGY PREDICTED BY IDOCK:   -5.36 KCAL/MOL
REMARK 923 INTER-LIGAND FREE ENERGY PREDICTED BY IDOCK:   -5.09 KCAL/MOL
REMARK 924 INTRA-LIGAND FREE ENERGY PREDICTED BY IDOCK:   -0.27 KCAL/MOL
REMARK 927      BINDING AFFINITY PREDICTED BY RF-SCORE:    0.00 PKD
ROOT
HETATM    1  N   UNL     1      -8.664  11.027  63.880  1.00  0.00    -0.375 NA 
HETATM    2  H2  UNL     1      -8.908  11.962  63.553  1.00  0.00     0.000 HD 
HETATM    3  H1  UNL     1      -7.667  10.850  63.764  1.00  0.00     0.000 HD 
HETATM    4  C   UNL     1      -9.126  10.819  65.243  1.00  0.00    -0.195 C  
ENDROOT
BRANCH   4   5
HETATM    5  C   UNL     1     -10.625  11.086  65.418  1.00  0.00    -0.270 C  
BRANCH   5   6
HETATM    6  C   UNL     1     -11.049  12.442  66.073  1.00  0.00    -0.308 C  
HETATM    7  O   UNL     1     -12.096  12.135  67.061  1.00  0.00    -0.591 OA 
HETATM    8  P   UNL     1     -11.837  13.655  64.952  1.00  0.00    -0.425 P  
HETATM    9  P   UNL     1      -9.604  13.215  66.889  1.00  0.00    -0.257 P  
HETATM   10  H   UNL     1     -12.353  12.959  67.459  1.00  0.00     0.000 HD 
HETATM   11  O   UNL     1     -12.503  14.680  64.003  1.00  0.00    -0.796 OA 
HETATM   12  O   UNL     1     -13.074  12.561  64.782  1.00  0.00    -0.853 OA 
HETATM   13  O   UNL     1     -10.908  13.085  63.719  1.00  0.00    -0.372 OA 
HETATM   14  O   UNL     1      -9.904  12.314  68.239  1.00  0.00    -0.210 OA 
HETATM   15  O   UNL     1     -10.572  14.465  67.343  1.00  0.00    -0.266 OA 
HETATM   16  O   UNL     1      -8.381  13.868  67.578  1.00  0.00    -0.170 OA 
ENDBRANCH   5   6
ENDBRANCH   4   5
TORSDOF 2
ENDMDL
MODEL       27
REMARK 921   NORMALIZED FREE ENERGY PREDICTED BY IDOCK:   -4.80 KCAL/MOL
REMARK 922        TOTAL FREE ENERGY PREDICTED BY IDOCK:   -5.33 KCAL/MOL
REMARK 923 INTER-LIGAND FREE ENERGY PREDICTED BY IDOCK:   -4.82 KCAL/MOL
REMARK 924 INTRA-LIGAND FREE ENERGY PREDICTED BY IDOCK:   -0.51 KCAL/MOL
REMARK 927      BINDING AFFINITY PREDICTED BY RF-SCORE:    0.00 PKD
ROOT
HETATM    1  N   UNL     1     -12.532  14.004  63.377  1.00  0.00    -1.123 NA 
HETATM    2  H2  UNL     1     -12.007  14.831  63.092  1.00  0.00     0.000 HD 
HETATM    3  H1  UNL     1     -13.345  13.866  62.779  1.00  0.00     0.000 HD 
HETATM    4  C   UNL     1     -11.666  12.837  63.442  1.00  0.00    -0.488 C  
ENDROOT
BRANCH   4   5
HETATM    5  C   UNL     1     -10.442  13.044  64.342  1.00  0.00    -0.426 C  
BRANCH   5   6
HETATM    6  C   UNL     1     -10.591  12.693  65.859  1.00  0.00    -0.273 C  
HETATM    7  O   UNL     1     -11.955  12.172  66.049  1.00  0.00    -0.578 OA 
HETATM    8  P   UNL     1     -10.489  14.107  67.016  1.00  0.00    -0.274 P  
HETATM    9  P   UNL     1      -9.351  11.431  66.328  1.00  0.00    -0.220 P  
HETATM   10  H   UNL     1     -12.045  11.959  66.970  1.00  0.00     0.000 HD 
HETATM   11  O   UNL     1     -10.403  15.304  67.995  1.00  0.00    -0.239 OA 
HETATM   12  O   UNL     1     -11.878  14.674  66.305  1.00  0.00    -0.364 OA 
HETATM   13  O   UNL     1      -9.435  14.843  65.989  1.00  0.00    -0.296 OA 
HETATM   14  O   UNL     1     -10.382  10.249  65.815  1.00  0.00    -0.239 OA 
HETATM   15  O   UNL     1      -9.943  11.469  67.862  1.00  0.00    -0.176 OA 
HETATM   16  O   UNL     1      -8.301  10.364  66.724  1.00  0.00    -0.123 OA 
ENDBRANCH   5   6
ENDBRANCH   4   5
TORSDOF 2
ENDMDL
MODEL       28
REMARK 921   NORMALIZED FREE ENERGY PREDICTED BY IDOCK:   -4.79 KCAL/MOL
REMARK 922        TOTAL FREE ENERGY PREDICTED BY IDOCK:   -5.32 KCAL/MOL
REMARK 923 INTER-LIGAND FREE ENERGY PREDICTED BY IDOCK:   -5.09 KCAL/MOL
REMARK 924 INTRA-LIGAND FREE ENERGY PREDICTED BY IDOCK:   -0.23 KCAL/MOL
REMARK 927      BINDING AFFINITY PREDICTED BY RF-SCORE:    0.00 PKD
ROOT
HETATM    1  N   UNL     1     -12.467  13.546  63.228  1.00  0.00    -0.983 NA 
HETATM    2  H2  UNL     1     -11.536  13.963  63.234  1.00  0.00     0.000 HD 
HETATM    3  H1  UNL     1     -12.573  12.908  62.440  1.00  0.00     0.000 HD 
HETATM    4  C   UNL     1     -12.765  12.926  64.510  1.00  0.00    -0.286 C  
ENDROOT
BRANCH   4   5
HETATM    5  C   UNL     1     -12.604  13.885  65.695  1.00  0.00    -0.553 C  
BRANCH   5   6
HETATM    6  C   UNL     1     -11.466  13.581  66.725  1.00  0.00    -0.346 C  
HETATM    7  O   UNL     1     -12.023  13.824  68.065  1.00  0.00    -0.361 OA 
HETATM    8  P   UNL     1     -10.005  14.680  66.642  1.00  0.00    -0.296 P  
HETATM    9  P   UNL     1     -10.929  11.839  66.559  1.00  0.00    -0.298 P  
HETATM   10  H   UNL     1     -11.331  13.640  68.691  1.00  0.00     0.000 HD 
HETATM   11  O   UNL     1      -8.769  15.610  66.572  1.00  0.00    -0.260 OA 
HETATM   12  O   UNL     1     -11.020  15.915  67.088  1.00  0.00    -0.304 OA 
HETATM   13  O   UNL     1     -10.232  14.823  65.019  1.00  0.00    -0.389 OA 
HETATM   14  O   UNL     1     -12.151  11.382  67.570  1.00  0.00    -0.592 OA 
HETATM   15  O   UNL     1      -9.843  12.095  67.767  1.00  0.00    -0.190 OA 
HETATM   16  O   UNL     1     -10.475  10.365  66.418  1.00  0.00    -0.230 OA 
ENDBRANCH   5   6
ENDBRANCH   4   5
TORSDOF 2
ENDMDL
MODEL       29
REMARK 921   NORMALIZED FREE ENERGY PREDICTED BY IDOCK:   -4.72 KCAL/MOL
REMARK 922        TOTAL FREE ENERGY PREDICTED BY IDOCK:   -5.24 KCAL/MOL
REMARK 923 INTER-LIGAND FREE ENERGY PREDICTED BY IDOCK:   -4.77 KCAL/MOL
REMARK 924 INTRA-LIGAND FREE ENERGY PREDICTED BY IDOCK:   -0.48 KCAL/MOL
REMARK 927      BINDING AFFINITY PREDICTED BY RF-SCORE:    0.00 PKD
ROOT
HETATM    1  N   UNL     1     -11.605  15.183  68.360  1.00  0.00    -0.332 NA 
HETATM    2  H2  UNL     1     -12.437  14.997  67.801  1.00  0.00     0.000 HD 
HETATM    3  H1  UNL     1     -11.859  15.475  69.303  1.00  0.00     0.000 HD 
HETATM    4  C   UNL     1     -10.701  14.043  68.339  1.00  0.00    -0.251 C  
ENDROOT
BRANCH   4   5
HETATM    5  C   UNL     1     -10.320  13.603  66.921  1.00  0.00    -0.262 C  
BRANCH   5   6
HETATM    6  C   UNL     1     -11.296  12.632  66.176  1.00  0.00    -0.330 C  
HETATM    7  O   UNL     1     -12.397  12.332  67.105  1.00  0.00    -0.379 OA 
HETATM    8  P   UNL     1     -10.611  10.989  65.751  1.00  0.00    -0.094 P  
HETATM    9  P   UNL     1     -11.934  13.437  64.661  1.00  0.00    -0.442 P  
HETATM   10  H   UNL     1     -12.989  11.743  66.653  1.00  0.00     0.000 HD 
HETATM   11  O   UNL     1     -10.031   9.599  65.393  1.00  0.00    -0.316 OA 
HETATM   12  O   UNL     1     -10.488  10.717  67.384  1.00  0.00    -0.206 OA 
HETATM   13  O   UNL     1      -9.130  11.680  65.561  1.00  0.00    -0.161 OA 
HETATM   14  O   UNL     1     -13.119  14.154  65.560  1.00  0.00    -0.691 OA 
HETATM   15  O   UNL     1     -12.807  12.077  64.349  1.00  0.00    -0.506 OA 
HETATM   16  O   UNL     1     -12.475  14.117  63.379  1.00  0.00    -0.797 OA 
ENDBRANCH   5   6
ENDBRANCH   4   5
TORSDOF 2
ENDMDL
MODEL       30
REMARK 921   NORMALIZED FREE ENERGY PREDICTED BY IDOCK:   -4.72 KCAL/MOL
REMARK 922        TOTAL FREE ENERGY PREDICTED BY IDOCK:   -5.23 KCAL/MOL
REMARK 923 INTER-LIGAND FREE ENERGY PREDICTED BY IDOCK:   -4.67 KCAL/MOL
REMARK 924 INTRA-LIGAND FREE ENERGY PREDICTED BY IDOCK:   -0.57 KCAL/MOL
REMARK 927      BINDING AFFINITY PREDICTED BY RF-SCORE:    0.00 PKD
ROOT
HETATM    1  N   UNL     1     -10.886  11.774  68.116  1.00  0.00    -0.206 NA 
HETATM    2  H2  UNL     1     -11.214  12.073  69.034  1.00  0.00     0.000 HD 
HETATM    3  H1  UNL     1     -10.743  10.765  68.091  1.00  0.00     0.000 HD 
HETATM    4  C   UNL     1     -11.777  12.250  67.068  1.00  0.00    -0.329 C  
ENDROOT
BRANCH   4   5
HETATM    5  C   UNL     1     -11.992  13.768  67.105  1.00  0.00    -0.442 C  
BRANCH   5   6
HETATM    6  C   UNL     1     -10.773  14.682  66.752  1.00  0.00    -0.301 C  
HETATM    7  O   UNL     1      -9.611  13.797  66.567  1.00  0.00    -0.274 OA 
HETATM    8  P   UNL     1     -10.244  15.843  68.064  1.00  0.00    -0.250 P  
HETATM    9  P   UNL     1     -11.120  15.614  65.216  1.00  0.00    -0.205 P  
HETATM   10  H   UNL     1      -8.870  14.352  66.353  1.00  0.00     0.000 HD 
HETATM   11  O   UNL     1      -9.796  16.826  69.173  1.00  0.00    -0.263 OA 
HETATM   12  O   UNL     1      -9.858  14.506  68.969  1.00  0.00    -0.208 OA 
HETATM   13  O   UNL     1     -11.808  15.963  68.557  1.00  0.00    -0.366 OA 
HETATM   14  O   UNL     1     -10.584  14.327  64.331  1.00  0.00    -0.311 OA 
HETATM   15  O   UNL     1      -9.638  16.315  65.346  1.00  0.00    -0.448 OA 
HETATM   16  O   UNL     1     -11.415  16.403  63.916  1.00  0.00    -1.063 OA 
ENDBRANCH   5   6
ENDBRANCH   4   5
TORSDOF 2
ENDMDL
MODEL       31
REMARK 921   NORMALIZED FREE ENERGY PREDICTED BY IDOCK:   -4.59 KCAL/MOL
REMARK 922        TOTAL FREE ENERGY PREDICTED BY IDOCK:   -5.09 KCAL/MOL
REMARK 923 INTER-LIGAND FREE ENERGY PREDICTED BY IDOCK:   -4.79 KCAL/MOL
REMARK 924 INTRA-LIGAND FREE ENERGY PREDICTED BY IDOCK:   -0.30 KCAL/MOL
REMARK 927      BINDING AFFINITY PREDICTED BY RF-SCORE:    0.00 PKD
ROOT
HETATM    1  N   UNL     1     -11.470  16.336  63.985  1.00  0.00    -1.521 NA 
HETATM    2  H2  UNL     1     -10.987  17.194  64.250  1.00  0.00     0.000 HD 
HETATM    3  H1  UNL     1     -11.293  16.105  63.008  1.00  0.00     0.000 HD 
HETATM    4  C   UNL     1     -11.139  15.252  64.897  1.00  0.00    -0.424 C  
ENDROOT
BRANCH   4   5
HETATM    5  C   UNL     1     -11.406  15.599  66.367  1.00  0.00     0.065 C  
BRANCH   5   6
HETATM    6  C   UNL     1     -10.245  16.266  67.176  1.00  0.00    -0.276 C  
HETATM    7  O   UNL     1      -8.983  15.838  66.551  1.00  0.00    -0.249 OA 
HETATM    8  P   UNL     1     -10.082  15.731  68.919  1.00  0.00    -0.253 P  
HETATM    9  P   UNL     1     -10.409  18.087  67.110  1.00  0.00    -0.345 P  
HETATM   10  H   UNL     1      -8.278  16.243  67.043  1.00  0.00     0.000 HD 
HETATM   11  O   UNL     1      -9.944  15.278  70.393  1.00  0.00    -0.094 OA 
HETATM   12  O   UNL     1      -9.726  14.220  68.329  1.00  0.00    -0.209 OA 
HETATM   13  O   UNL     1     -11.713  15.530  68.987  1.00  0.00    -0.346 OA 
HETATM   14  O   UNL     1      -9.593  18.093  65.675  1.00  0.00    -0.419 OA 
HETATM   15  O   UNL     1      -9.054  18.208  68.036  1.00  0.00    -0.270 OA 
HETATM   16  O   UNL     1     -10.548  19.628  67.054  1.00  0.00    -0.447 OA 
ENDBRANCH   5   6
ENDBRANCH   4   5
TORSDOF 2
ENDMDL
MODEL       32
REMARK 921   NORMALIZED FREE ENERGY PREDICTED BY IDOCK:   -4.56 KCAL/MOL
REMARK 922        TOTAL FREE ENERGY PREDICTED BY IDOCK:   -5.06 KCAL/MOL
REMARK 923 INTER-LIGAND FREE ENERGY PREDICTED BY IDOCK:   -4.48 KCAL/MOL
REMARK 924 INTRA-LIGAND FREE ENERGY PREDICTED BY IDOCK:   -0.58 KCAL/MOL
REMARK 927      BINDING AFFINITY PREDICTED BY RF-SCORE:    0.00 PKD
ROOT
HETATM    1  N   UNL     1     -12.525  15.215  69.925  1.00  0.00    -0.552 NA 
HETATM    2  H2  UNL     1     -12.691  15.653  69.019  1.00  0.00     0.000 HD 
HETATM    3  H1  UNL     1     -13.324  15.344  70.544  1.00  0.00     0.000 HD 
HETATM    4  C   UNL     1     -12.148  13.819  69.763  1.00  0.00    -0.340 C  
ENDROOT
BRANCH   4   5
HETATM    5  C   UNL     1     -10.946  13.624  68.832  1.00  0.00    -0.281 C  
BRANCH   5   6
HETATM    6  C   UNL     1     -11.097  14.091  67.346  1.00  0.00    -0.303 C  
HETATM    7  O   UNL     1     -12.505  14.478  67.157  1.00  0.00    -0.567 OA 
HETATM    8  P   UNL     1     -10.815  12.804  66.076  1.00  0.00    -0.292 P  
HETATM    9  P   UNL     1      -9.992  15.514  67.028  1.00  0.00    -0.250 P  
HETATM   10  H   UNL     1     -12.597  14.761  66.255  1.00  0.00     0.000 HD 
HETATM   11  O   UNL     1     -10.576  11.715  65.001  1.00  0.00    -0.268 OA 
HETATM   12  O   UNL     1     -12.150  12.031  66.689  1.00  0.00    -0.615 OA 
HETATM   13  O   UNL     1      -9.711  12.096  67.069  1.00  0.00    -0.197 OA 
HETATM   14  O   UNL     1     -11.158  16.529  67.607  1.00  0.00    -0.255 OA 
HETATM   15  O   UNL     1     -10.540  15.550  65.478  1.00  0.00    -0.343 OA 
HETATM   16  O   UNL     1      -9.056  16.719  66.759  1.00  0.00    -0.219 OA 
ENDBRANCH   5   6
ENDBRANCH   4   5
TORSDOF 2
ENDMDL
MODEL       33
REMARK 921   NORMALIZED FREE ENERGY PREDICTED BY IDOCK:   -4.55 KCAL/MOL
REMARK 922        TOTAL FREE ENERGY PREDICTED BY IDOCK:   -5.05 KCAL/MOL
REMARK 923 INTER-LIGAND FREE ENERGY PREDICTED BY IDOCK:   -4.46 KCAL/MOL
REMARK 924 INTRA-LIGAND FREE ENERGY PREDICTED BY IDOCK:   -0.60 KCAL/MOL
REMARK 927      BINDING AFFINITY PREDICTED BY RF-SCORE:    0.00 PKD
ROOT
HETATM    1  N   UNL     1      -8.207  12.459  68.873  1.00  0.00    -0.343 NA 
HETATM    2  H2  UNL     1      -8.898  12.994  69.399  1.00  0.00     0.000 HD 
HETATM    3  H1  UNL     1      -7.811  11.714  69.445  1.00  0.00     0.000 HD 
HETATM    4  C   UNL     1      -8.769  11.979  67.619  1.00  0.00    -0.166 C  
ENDROOT
BRANCH   4   5
HETATM    5  C   UNL     1      -9.364  13.099  66.759  1.00  0.00    -0.244 C  
BRANCH   5   6
HETATM    6  C   UNL     1     -10.637  13.831  67.301  1.00  0.00    -0.275 C  
HETATM    7  O   UNL     1     -11.093  13.082  68.483  1.00  0.00    -0.240 OA 
HETATM    8  P   UNL     1     -12.089  13.830  66.186  1.00  0.00    -0.446 P  
HETATM    9  P   UNL     1     -10.217  15.554  67.754  1.00  0.00    -0.250 P  
HETATM   10  H   UNL     1     -11.866  13.526  68.812  1.00  0.00     0.000 HD 
HETATM   11  O   UNL     1     -13.317  13.830  65.244  1.00  0.00    -0.710 OA 
HETATM   12  O   UNL     1     -12.117  12.181  66.369  1.00  0.00    -0.630 OA 
HETATM   13  O   UNL     1     -11.070  13.862  64.895  1.00  0.00    -0.335 OA 
HETATM   14  O   UNL     1      -9.723  15.026  69.238  1.00  0.00    -0.218 OA 
HETATM   15  O   UNL     1     -11.782  15.780  68.206  1.00  0.00    -0.345 OA 
HETATM   16  O   UNL     1      -9.861  17.011  68.137  1.00  0.00    -0.254 OA 
ENDBRANCH   5   6
ENDBRANCH   4   5
TORSDOF 2
ENDMDL
MODEL       34
REMARK 921   NORMALIZED FREE ENERGY PREDICTED BY IDOCK:   -4.46 KCAL/MOL
REMARK 922        TOTAL FREE ENERGY PREDICTED BY IDOCK:   -4.95 KCAL/MOL
REMARK 923 INTER-LIGAND FREE ENERGY PREDICTED BY IDOCK:   -4.40 KCAL/MOL
REMARK 924 INTRA-LIGAND FREE ENERGY PREDICTED BY IDOCK:   -0.55 KCAL/MOL
REMARK 927      BINDING AFFINITY PREDICTED BY RF-SCORE:    0.00 PKD
ROOT
HETATM    1  N   UNL     1     -12.202  10.731  68.794  1.00  0.00    -0.814 NA 
HETATM    2  H2  UNL     1     -11.468  10.034  68.915  1.00  0.00     0.000 HD 
HETATM    3  H1  UNL     1     -13.038  10.475  69.318  1.00  0.00     0.000 HD 
HETATM    4  C   UNL     1     -11.710  12.062  69.118  1.00  0.00    -0.330 C  
ENDROOT
BRANCH   4   5
HETATM    5  C   UNL     1     -10.453  12.448  68.331  1.00  0.00    -0.245 C  
BRANCH   5   6
HETATM    6  C   UNL     1     -10.591  12.611  66.780  1.00  0.00    -0.237 C  
HETATM    7  O   UNL     1     -11.980  12.270  66.434  1.00  0.00    -0.589 OA 
HETATM    8  P   UNL     1      -9.585  11.464  65.769  1.00  0.00    -0.240 P  
HETATM    9  P   UNL     1     -10.214  14.337  66.302  1.00  0.00    -0.322 P  
HETATM   10  H   UNL     1     -12.064  12.369  65.492  1.00  0.00     0.000 HD 
HETATM   11  O   UNL     1      -8.734  10.494  64.913  1.00  0.00    -0.176 OA 
HETATM   12  O   UNL     1     -10.499  10.236  66.412  1.00  0.00    -0.224 OA 
HETATM   13  O   UNL     1      -8.431  11.477  66.941  1.00  0.00    -0.153 OA 
HETATM   14  O   UNL     1     -11.780  14.750  66.620  1.00  0.00    -0.358 OA 
HETATM   15  O   UNL     1     -10.499  13.928  64.734  1.00  0.00    -0.408 OA 
HETATM   16  O   UNL     1      -9.895  15.797  65.898  1.00  0.00    -0.300 OA 
ENDBRANCH   5   6
ENDBRANCH   4   5
TORSDOF 2
ENDMDL
MODEL       35
REMARK 921   NORMALIZED FREE ENERGY PREDICTED BY IDOCK:   -4.43 KCAL/MOL
REMARK 922        TOTAL FREE ENERGY PREDICTED BY IDOCK:   -4.92 KCAL/MOL
REMARK 923 INTER-LIGAND FREE ENERGY PREDICTED BY IDOCK:   -4.88 KCAL/MOL
REMARK 924 INTRA-LIGAND FREE ENERGY PREDICTED BY IDOCK:   -0.04 KCAL/MOL
REMARK 927      BINDING AFFINITY PREDICTED BY RF-SCORE:    0.00 PKD
ROOT
HETATM    1  N   UNL     1     -10.944  14.067  69.757  1.00  0.00    -0.459 NA 
HETATM    2  H2  UNL     1     -10.755  15.065  69.661  1.00  0.00     0.000 HD 
HETATM    3  H1  UNL     1     -11.064  13.813  70.737  1.00  0.00     0.000 HD 
HETATM    4  C   UNL     1     -12.068  13.671  68.923  1.00  0.00    -0.300 C  
ENDROOT
BRANCH   4   5
HETATM    5  C   UNL     1     -11.889  14.054  67.449  1.00  0.00    -0.445 C  
BRANCH   5   6
HETATM    6  C   UNL     1     -11.450  12.928  66.456  1.00  0.00    -0.341 C  
HETATM    7  O   UNL     1     -12.123  11.691  66.883  1.00  0.00    -0.512 OA 
HETATM    8  P   UNL     1      -9.671  12.498  66.478  1.00  0.00    -0.249 P  
HETATM    9  P   UNL     1     -11.948  13.375  64.752  1.00  0.00    -0.441 P  
HETATM   10  H   UNL     1     -11.856  11.007  66.280  1.00  0.00     0.000 HD 
HETATM   11  O   UNL     1      -8.166  12.134  66.498  1.00  0.00    -0.081 OA 
HETATM   12  O   UNL     1      -9.907  11.981  68.038  1.00  0.00    -0.187 OA 
HETATM   13  O   UNL     1      -9.320  14.062  66.847  1.00  0.00    -0.238 OA 
HETATM   14  O   UNL     1     -13.440  12.730  65.036  1.00  0.00    -0.532 OA 
HETATM   15  O   UNL     1     -11.288  11.963  64.226  1.00  0.00    -0.337 OA 
HETATM   16  O   UNL     1     -12.369  13.754  63.311  1.00  0.00    -0.756 OA 
ENDBRANCH   5   6
ENDBRANCH   4   5
TORSDOF 2
ENDMDL
MODEL       36
REMARK 921   NORMALIZED FREE ENERGY PREDICTED BY IDOCK:   -4.41 KCAL/MOL
REMARK 922        TOTAL FREE ENERGY PREDICTED BY IDOCK:   -4.89 KCAL/MOL
REMARK 923 INTER-LIGAND FREE ENERGY PREDICTED BY IDOCK:   -4.36 KCAL/MOL
REMARK 924 INTRA-LIGAND FREE ENERGY PREDICTED BY IDOCK:   -0.54 KCAL/MOL
REMARK 927      BINDING AFFINITY PREDICTED BY RF-SCORE:    0.00 PKD
ROOT
HETATM    1  N   UNL     1     -12.968  12.535  64.765  1.00  0.00    -0.842 NA 
HETATM    2  H2  UNL     1     -13.486  12.113  65.535  1.00  0.00     0.000 HD 
HETATM    3  H1  UNL     1     -13.389  12.294  63.868  1.00  0.00     0.000 HD 
HETATM    4  C   UNL     1     -12.823  13.969  64.961  1.00  0.00    -0.258 C  
ENDROOT
BRANCH   4   5
HETATM    5  C   UNL     1     -12.190  14.331  66.309  1.00  0.00    -0.433 C  
BRANCH   5   6
HETATM    6  C   UNL     1     -10.650  14.107  66.470  1.00  0.00    -0.282 C  
HETATM    7  O   UNL     1     -10.140  13.666  65.161  1.00  0.00    -0.463 OA 
HETATM    8  P   UNL     1     -10.157  12.766  67.615  1.00  0.00    -0.229 P  
HETATM    9  P   UNL     1      -9.845  15.670  66.979  1.00  0.00    -0.245 P  
HETATM   10  H   UNL     1      -9.205  13.529  65.259  1.00  0.00     0.000 HD 
HETATM   11  O   UNL     1      -9.741  11.632  68.583  1.00  0.00    -0.192 OA 
HETATM   12  O   UNL     1     -10.896  11.716  66.562  1.00  0.00    -0.261 OA 
HETATM   13  O   UNL     1     -11.487  13.087  68.528  1.00  0.00    -0.261 OA 
HETATM   14  O   UNL     1      -9.750  16.119  65.394  1.00  0.00    -0.453 OA 
HETATM   15  O   UNL     1      -8.400  14.884  66.983  1.00  0.00    -0.207 OA 
HETATM   16  O   UNL     1      -9.165  16.992  67.410  1.00  0.00    -0.230 OA 
ENDBRANCH   5   6
ENDBRANCH   4   5
TORSDOF 2
ENDMDL
MODEL       37
REMARK 921   NORMALIZED FREE ENERGY PREDICTED BY IDOCK:   -4.29 KCAL/MOL
REMARK 922        TOTAL FREE ENERGY PREDICTED BY IDOCK:   -4.76 KCAL/MOL
REMARK 923 INTER-LIGAND FREE ENERGY PREDICTED BY IDOCK:   -4.16 KCAL/MOL
REMARK 924 INTRA-LIGAND FREE ENERGY PREDICTED BY IDOCK:   -0.60 KCAL/MOL
REMARK 927      BINDING AFFINITY PREDICTED BY RF-SCORE:    0.00 PKD
ROOT
HETATM    1  N   UNL     1     -10.374  15.137  69.518  1.00  0.00    -0.262 NA 
HETATM    2  H2  UNL     1      -9.511  15.646  69.708  1.00  0.00     0.000 HD 
HETATM    3  H1  UNL     1     -10.813  14.829  70.385  1.00  0.00     0.000 HD 
HETATM    4  C   UNL     1     -11.263  15.922  68.676  1.00  0.00    -0.360 C  
ENDROOT
BRANCH   4   5
HETATM    5  C   UNL     1     -10.603  16.386  67.372  1.00  0.00    -0.306 C  
BRANCH   5   6
HETATM    6  C   UNL     1      -9.511  17.503  67.470  1.00  0.00    -0.255 C  
HETATM    7  O   UNL     1      -9.532  18.005  68.854  1.00  0.00    -0.280 OA 
HETATM    8  P   UNL     1      -9.807  18.994  66.450  1.00  0.00    -0.379 P  
HETATM    9  P   UNL     1      -7.870  16.803  67.065  1.00  0.00    -0.246 P  
HETATM   10  H   UNL     1      -8.869  18.683  68.913  1.00  0.00     0.000 HD 
HETATM   11  O   UNL     1     -10.057  20.256  65.588  1.00  0.00    -0.359 OA 
HETATM   12  O   UNL     1     -11.148  19.263  67.391  1.00  0.00    -0.444 OA 
HETATM   13  O   UNL     1     -10.549  18.051  65.325  1.00  0.00    -0.615 OA 
HETATM   14  O   UNL     1      -7.706  16.318  68.635  1.00  0.00    -0.169 OA 
HETATM   15  O   UNL     1      -7.212  18.290  67.315  1.00  0.00    -0.197 OA 
HETATM   16  O   UNL     1      -6.481  16.210  66.722  1.00  0.00    -0.285 OA 
ENDBRANCH   5   6
ENDBRANCH   4   5
TORSDOF 2
ENDMDL
MODEL       38
REMARK 921   NORMALIZED FREE ENERGY PREDICTED BY IDOCK:   -4.28 KCAL/MOL
REMARK 922        TOTAL FREE ENERGY PREDICTED BY IDOCK:   -4.74 KCAL/MOL
REMARK 923 INTER-LIGAND FREE ENERGY PREDICTED BY IDOCK:   -4.89 KCAL/MOL
REMARK 924 INTRA-LIGAND FREE ENERGY PREDICTED BY IDOCK:    0.15 KCAL/MOL
REMARK 927      BINDING AFFINITY PREDICTED BY RF-SCORE:    0.00 PKD
ROOT
HETATM    1  N   UNL     1     -11.461  11.249  63.191  1.00  0.00    -0.831 NA 
HETATM    2  H2  UNL     1     -12.199  11.889  63.485  1.00  0.00     0.000 HD 
HETATM    3  H1  UNL     1     -11.232  11.385  62.207  1.00  0.00     0.000 HD 
HETATM    4  C   UNL     1     -10.304  11.356  64.067  1.00  0.00    -0.362 C  
ENDROOT
BRANCH   4   5
HETATM    5  C   UNL     1     -10.649  11.152  65.547  1.00  0.00    -0.289 C  
BRANCH   5   6
HETATM    6  C   UNL     1     -10.730  12.424  66.454  1.00  0.00    -0.247 C  
HETATM    7  O   UNL     1      -9.437  13.119  66.337  1.00  0.00    -0.277 OA 
HETATM    8  P   UNL     1     -10.906  12.110  68.249  1.00  0.00    -0.253 P  
HETATM    9  P   UNL     1     -12.094  13.504  65.887  1.00  0.00    -0.458 P  
HETATM   10  H   UNL     1      -9.487  13.891  66.889  1.00  0.00     0.000 HD 
HETATM   11  O   UNL     1     -11.056  11.844  69.767  1.00  0.00    -0.118 OA 
HETATM   12  O   UNL     1      -9.403  11.410  68.184  1.00  0.00    -0.168 OA 
HETATM   13  O   UNL     1     -11.765  10.750  67.904  1.00  0.00    -0.543 OA 
HETATM   14  O   UNL     1     -11.072  14.190  64.786  1.00  0.00    -0.358 OA 
HETATM   15  O   UNL     1     -11.716  14.556  67.094  1.00  0.00    -0.377 OA 
HETATM   16  O   UNL     1     -13.248  14.418  65.407  1.00  0.00    -0.607 OA 
ENDBRANCH   5   6
ENDBRANCH   4   5
TORSDOF 2
ENDMDL
MODEL       39
REMARK 921   NORMALIZED FREE ENERGY PREDICTED BY IDOCK:   -4.26 KCAL/MOL
REMARK 922        TOTAL FREE ENERGY PREDICTED BY IDOCK:   -4.73 KCAL/MOL
REMARK 923 INTER-LIGAND FREE ENERGY PREDICTED BY IDOCK:   -4.17 KCAL/MOL
REMARK 924 INTRA-LIGAND FREE ENERGY PREDICTED BY IDOCK:   -0.56 KCAL/MOL
REMARK 927      BINDING AFFINITY PREDICTED BY RF-SCORE:    0.00 PKD
ROOT
HETATM    1  N   UNL     1     -11.808  12.367  66.912  1.00  0.00    -0.557 NA 
HETATM    2  H2  UNL     1     -12.337  13.204  67.155  1.00  0.00     0.000 HD 
HETATM    3  H1  UNL     1     -12.389  11.709  66.393  1.00  0.00     0.000 HD 
HETATM    4  C   UNL     1     -10.578  12.715  66.217  1.00  0.00    -0.252 C  
ENDROOT
BRANCH   4   5
HETATM    5  C   UNL     1      -9.706  13.705  66.997  1.00  0.00    -0.251 C  
BRANCH   5   6
HETATM    6  C   UNL     1     -10.317  15.108  67.324  1.00  0.00    -0.261 C  
HETATM    7  O   UNL     1     -11.638  15.163  66.678  1.00  0.00    -0.263 OA 
HETATM    8  P   UNL     1      -9.421  16.546  66.631  1.00  0.00    -0.295 P  
HETATM    9  P   UNL     1     -10.479  15.306  69.137  1.00  0.00    -0.273 P  
HETATM   10  H   UNL     1     -12.009  16.015  66.877  1.00  0.00     0.000 HD 
HETATM   11  O   UNL     1      -8.664  17.762  66.045  1.00  0.00    -0.495 OA 
HETATM   12  O   UNL     1      -9.820  15.958  65.131  1.00  0.00    -0.382 OA 
HETATM   13  O   UNL     1      -8.010  15.716  66.792  1.00  0.00    -0.232 OA 
HETATM   14  O   UNL     1     -11.938  14.535  69.074  1.00  0.00    -0.315 OA 
HETATM   15  O   UNL     1     -11.108  16.804  68.881  1.00  0.00    -0.288 OA 
HETATM   16  O   UNL     1     -10.617  15.473  70.670  1.00  0.00    -0.308 OA 
ENDBRANCH   5   6
ENDBRANCH   4   5
TORSDOF 2
ENDMDL
MODEL       40
REMARK 921   NORMALIZED FREE ENERGY PREDICTED BY IDOCK:   -4.25 KCAL/MOL
REMARK 922        TOTAL FREE ENERGY PREDICTED BY IDOCK:   -4.71 KCAL/MOL
REMARK 923 INTER-LIGAND FREE ENERGY PREDICTED BY IDOCK:   -4.13 KCAL/MOL
REMARK 924 INTRA-LIGAND FREE ENERGY PREDICTED BY IDOCK:   -0.58 KCAL/MOL
REMARK 927      BINDING AFFINITY PREDICTED BY RF-SCORE:    0.00 PKD
ROOT
HETATM    1  N   UNL     1     -13.680   8.729  73.121  1.00  0.00    -1.045 NA 
HETATM    2  H2  UNL     1     -12.764   8.725  73.569  1.00  0.00     0.000 HD 
HETATM    3  H1  UNL     1     -14.229   9.533  73.424  1.00  0.00     0.000 HD 
HETATM    4  C   UNL     1     -13.551   8.638  71.675  1.00  0.00    -0.371 C  
ENDROOT
BRANCH   4   5
HETATM    5  C   UNL     1     -12.725   7.429  71.220  1.00  0.00    -0.371 C  
BRANCH   5   6
HETATM    6  C   UNL     1     -11.172   7.508  71.388  1.00  0.00    -0.242 C  
HETATM    7  O   UNL     1     -10.859   8.863  71.870  1.00  0.00    -0.333 OA 
HETATM    8  P   UNL     1     -10.196   7.347  69.847  1.00  0.00    -0.221 P  
HETATM    9  P   UNL     1     -10.614   6.252  72.597  1.00  0.00    -0.242 P  
HETATM   10  H   UNL     1      -9.915   8.911  71.971  1.00  0.00     0.000 HD 
HETATM   11  O   UNL     1      -9.372   7.211  68.544  1.00  0.00    -0.138 OA 
HETATM   12  O   UNL     1     -10.905   8.765  69.356  1.00  0.00    -0.205 OA 
HETATM   13  O   UNL     1     -11.351   6.340  69.248  1.00  0.00    -0.410 OA 
HETATM   14  O   UNL     1     -10.936   7.311  73.822  1.00  0.00    -0.255 OA 
HETATM   15  O   UNL     1      -9.070   6.771  72.372  1.00  0.00    -0.136 OA 
HETATM   16  O   UNL     1     -10.143   5.189  73.619  1.00  0.00    -0.165 OA 
ENDBRANCH   5   6
ENDBRANCH   4   5
TORSDOF 2
ENDMDL
MODEL       41
REMARK 921   NORMALIZED FREE ENERGY PREDICTED BY IDOCK:   -4.24 KCAL/MOL
REMARK 922        TOTAL FREE ENERGY PREDICTED BY IDOCK:   -4.70 KCAL/MOL
REMARK 923 INTER-LIGAND FREE ENERGY PREDICTED BY IDOCK:   -4.23 KCAL/MOL
REMARK 924 INTRA-LIGAND FREE ENERGY PREDICTED BY IDOCK:   -0.48 KCAL/MOL
REMARK 927      BINDING AFFINITY PREDICTED BY RF-SCORE:    0.00 PKD
ROOT
HETATM    1  N   UNL     1     -14.023   8.798  73.000  1.00  0.00    -1.092 NA 
HETATM    2  H2  UNL     1     -13.721   8.829  73.973  1.00  0.00     0.000 HD 
HETATM    3  H1  UNL     1     -14.953   9.204  72.895  1.00  0.00     0.000 HD 
HETATM    4  C   UNL     1     -13.032   9.412  72.130  1.00  0.00    -0.421 C  
ENDROOT
BRANCH   4   5
HETATM    5  C   UNL     1     -11.634   8.803  72.286  1.00  0.00    -0.391 C  
BRANCH   5   6
HETATM    6  C   UNL     1     -11.236   7.643  71.315  1.00  0.00    -0.254 C  
HETATM    7  O   UNL     1     -12.391   7.403  70.434  1.00  0.00    -0.537 OA 
HETATM    8  P   UNL     1     -10.930   6.018  72.100  1.00  0.00    -0.292 P  
HETATM    9  P   UNL     1      -9.771   8.131  70.333  1.00  0.00    -0.180 P  
HETATM   10  H   UNL     1     -12.150   6.699  69.844  1.00  0.00     0.000 HD 
HETATM   11  O   UNL     1     -10.672   4.644  72.765  1.00  0.00    -0.205 OA 
HETATM   12  O   UNL     1     -12.532   6.027  72.536  1.00  0.00    -0.116 OA 
HETATM   13  O   UNL     1     -10.364   6.795  73.435  1.00  0.00    -0.235 OA 
HETATM   14  O   UNL     1     -10.766   8.879  69.249  1.00  0.00    -0.224 OA 
HETATM   15  O   UNL     1      -9.829   6.668  69.582  1.00  0.00    -0.156 OA 
HETATM   16  O   UNL     1      -8.531   8.544  69.503  1.00  0.00    -0.123 OA 
ENDBRANCH   5   6
ENDBRANCH   4   5
TORSDOF 2
ENDMDL
MODEL       42
REMARK 921   NORMALIZED FREE ENERGY PREDICTED BY IDOCK:   -4.21 KCAL/MOL
REMARK 922        TOTAL FREE ENERGY PREDICTED BY IDOCK:   -4.67 KCAL/MOL
REMARK 923 INTER-LIGAND FREE ENERGY PREDICTED BY IDOCK:   -4.11 KCAL/MOL
REMARK 924 INTRA-LIGAND FREE ENERGY PREDICTED BY IDOCK:   -0.56 KCAL/MOL
REMARK 927      BINDING AFFINITY PREDICTED BY RF-SCORE:    0.00 PKD
ROOT
HETATM    1  N   UNL     1      -9.393  21.156  67.172  1.00  0.00    -0.595 NA 
HETATM    2  H2  UNL     1      -8.843  21.350  66.335  1.00  0.00     0.000 HD 
HETATM    3  H1  UNL     1      -9.791  22.015  67.552  1.00  0.00     0.000 HD 
HETATM    4  C   UNL     1     -10.392  20.132  66.909  1.00  0.00    -0.369 C  
ENDROOT
BRANCH   4   5
HETATM    5  C   UNL     1      -9.794  18.841  66.337  1.00  0.00    -0.403 C  
BRANCH   5   6
HETATM    6  C   UNL     1      -9.201  17.807  67.350  1.00  0.00    -0.248 C  
HETATM    7  O   UNL     1      -9.378  18.374  68.697  1.00  0.00    -0.324 OA 
HETATM    8  P   UNL     1      -7.399  17.514  67.223  1.00  0.00    -0.196 P  
HETATM    9  P   UNL     1     -10.090  16.214  67.202  1.00  0.00    -0.280 P  
HETATM   10  H   UNL     1      -9.017  17.745  69.313  1.00  0.00     0.000 HD 
HETATM   11  O   UNL     1      -5.874  17.266  67.116  1.00  0.00    -0.123 OA 
HETATM   12  O   UNL     1      -7.199  19.100  67.669  1.00  0.00    -0.220 OA 
HETATM   13  O   UNL     1      -7.492  17.781  65.603  1.00  0.00    -0.533 OA 
HETATM   14  O   UNL     1     -11.241  16.777  68.243  1.00  0.00    -0.333 OA 
HETATM   15  O   UNL     1      -9.124  15.604  68.386  1.00  0.00    -0.183 OA 
HETATM   16  O   UNL     1     -10.842  14.866  67.076  1.00  0.00    -0.301 OA 
ENDBRANCH   5   6
ENDBRANCH   4   5
TORSDOF 2
ENDMDL
MODEL       43
REMARK 921   NORMALIZED FREE ENERGY PREDICTED BY IDOCK:   -4.21 KCAL/MOL
REMARK 922        TOTAL FREE ENERGY PREDICTED BY IDOCK:   -4.66 KCAL/MOL
REMARK 923 INTER-LIGAND FREE ENERGY PREDICTED BY IDOCK:   -4.12 KCAL/MOL
REMARK 924 INTRA-LIGAND FREE ENERGY PREDICTED BY IDOCK:   -0.54 KCAL/MOL
REMARK 927      BINDING AFFINITY PREDICTED BY RF-SCORE:    0.00 PKD
ROOT
HETATM    1  N   UNL     1     -10.837   9.172  67.597  1.00  0.00    -0.475 NA 
HETATM    2  H2  UNL     1     -11.665   9.712  67.850  1.00  0.00     0.000 HD 
HETATM    3  H1  UNL     1     -11.093   8.229  67.307  1.00  0.00     0.000 HD 
HETATM    4  C   UNL     1     -10.040   9.879  66.606  1.00  0.00    -0.233 C  
ENDROOT
BRANCH   4   5
HETATM    5  C   UNL     1      -9.655  11.297  67.043  1.00  0.00    -0.197 C  
BRANCH   5   6
HETATM    6  C   UNL     1     -10.768  12.396  66.999  1.00  0.00    -0.239 C  
HETATM    7  O   UNL     1     -11.867  11.863  66.176  1.00  0.00    -0.528 OA 
HETATM    8  P   UNL     1     -10.308  13.961  66.169  1.00  0.00    -0.316 P  
HETATM    9  P   UNL     1     -11.353  12.754  68.696  1.00  0.00    -0.338 P  
HETATM   10  H   UNL     1     -12.542  12.531  66.149  1.00  0.00     0.000 HD 
HETATM   11  O   UNL     1      -9.918  15.284  65.467  1.00  0.00    -0.337 OA 
HETATM   12  O   UNL     1     -10.165  13.075  64.773  1.00  0.00    -0.321 OA 
HETATM   13  O   UNL     1      -8.760  13.753  66.686  1.00  0.00    -0.141 OA 
HETATM   14  O   UNL     1     -12.409  11.490  68.582  1.00  0.00    -0.445 OA 
HETATM   15  O   UNL     1     -12.398  13.858  68.065  1.00  0.00    -0.239 OA 
HETATM   16  O   UNL     1     -11.848  13.057  70.131  1.00  0.00    -0.313 OA 
ENDBRANCH   5   6
ENDBRANCH   4   5
TORSDOF 2
ENDMDL
MODEL       44
REMARK 921   NORMALIZED FREE ENERGY PREDICTED BY IDOCK:   -4.19 KCAL/MOL
REMARK 922        TOTAL FREE ENERGY PREDICTED BY IDOCK:   -4.65 KCAL/MOL
REMARK 923 INTER-LIGAND FREE ENERGY PREDICTED BY IDOCK:   -4.16 KCAL/MOL
REMARK 924 INTRA-LIGAND FREE ENERGY PREDICTED BY IDOCK:   -0.49 KCAL/MOL
REMARK 927      BINDING AFFINITY PREDICTED BY RF-SCORE:    0.00 PKD
ROOT
HETATM    1  N   UNL     1      -7.478  13.509  69.012  1.00  0.00    -0.287 NA 
HETATM    2  H2  UNL     1      -8.306  13.059  68.622  1.00  0.00     0.000 HD 
HETATM    3  H1  UNL     1      -6.681  12.874  69.003  1.00  0.00     0.000 HD 
HETATM    4  C   UNL     1      -7.210  14.772  68.342  1.00  0.00    -0.114 C  
ENDROOT
BRANCH   4   5
HETATM    5  C   UNL     1      -8.409  15.727  68.356  1.00  0.00    -0.164 C  
BRANCH   5   6
HETATM    6  C   UNL     1      -9.503  15.533  67.255  1.00  0.00    -0.213 C  
HETATM    7  O   UNL     1      -8.915  14.679  66.210  1.00  0.00    -0.459 OA 
HETATM    8  P   UNL     1     -10.009  17.047  66.361  1.00  0.00    -0.310 P  
HETATM    9  P   UNL     1     -10.980  14.733  67.983  1.00  0.00    -0.294 P  
HETATM   10  H   UNL     1      -9.580  14.561  65.541  1.00  0.00     0.000 HD 
HETATM   11  O   UNL     1     -10.437  18.329  65.604  1.00  0.00    -0.627 OA 
HETATM   12  O   UNL     1      -8.456  17.115  65.778  1.00  0.00    -0.522 OA 
HETATM   13  O   UNL     1      -9.737  17.919  67.729  1.00  0.00    -0.269 OA 
HETATM   14  O   UNL     1     -10.281  13.257  67.740  1.00  0.00    -0.220 OA 
HETATM   15  O   UNL     1     -11.696  14.787  66.503  1.00  0.00    -0.350 OA 
HETATM   16  O   UNL     1     -12.229  14.056  68.599  1.00  0.00    -0.332 OA 
ENDBRANCH   5   6
ENDBRANCH   4   5
TORSDOF 2
ENDMDL
MODEL       45
REMARK 921   NORMALIZED FREE ENERGY PREDICTED BY IDOCK:   -4.18 KCAL/MOL
REMARK 922        TOTAL FREE ENERGY PREDICTED BY IDOCK:   -4.64 KCAL/MOL
REMARK 923 INTER-LIGAND FREE ENERGY PREDICTED BY IDOCK:   -4.52 KCAL/MOL
REMARK 924 INTRA-LIGAND FREE ENERGY PREDICTED BY IDOCK:   -0.12 KCAL/MOL
REMARK 927      BINDING AFFINITY PREDICTED BY RF-SCORE:    0.00 PKD
ROOT
HETATM    1  N   UNL     1      -8.361  13.924  68.881  1.00  0.00    -0.346 NA 
HETATM    2  H2  UNL     1      -8.942  13.221  68.424  1.00  0.00     0.000 HD 
HETATM    3  H1  UNL     1      -7.429  13.558  69.071  1.00  0.00     0.000 HD 
HETATM    4  C   UNL     1      -8.343  15.160  68.113  1.00  0.00    -0.147 C  
ENDROOT
BRANCH   4   5
HETATM    5  C   UNL     1      -9.745  15.711  67.826  1.00  0.00    -0.218 C  
BRANCH   5   6
HETATM    6  C   UNL     1      -9.969  16.448  66.464  1.00  0.00    -0.282 C  
HETATM    7  O   UNL     1      -8.686  16.419  65.743  1.00  0.00    -0.432 OA 
HETATM    8  P   UNL     1     -10.374  18.229  66.582  1.00  0.00    -0.339 P  
HETATM    9  P   UNL     1     -11.267  15.590  65.500  1.00  0.00    -0.047 P  
HETATM   10  H   UNL     1      -8.822  16.867  64.916  1.00  0.00     0.000 HD 
HETATM   11  O   UNL     1     -10.716  19.736  66.682  1.00  0.00    -0.473 OA 
HETATM   12  O   UNL     1      -8.861  18.439  67.233  1.00  0.00    -0.254 OA 
HETATM   13  O   UNL     1     -11.154  17.935  68.000  1.00  0.00    -0.176 OA 
HETATM   14  O   UNL     1     -10.123  14.558  64.907  1.00  0.00    -0.378 OA 
HETATM   15  O   UNL     1     -11.071  16.707  64.308  1.00  0.00    -1.029 OA 
HETATM   16  O   UNL     1     -12.366  14.864  64.685  1.00  0.00    -0.399 OA 
ENDBRANCH   5   6
ENDBRANCH   4   5
TORSDOF 2
ENDMDL
MODEL       46
REMARK 921   NORMALIZED FREE ENERGY PREDICTED BY IDOCK:   -4.17 KCAL/MOL
REMARK 922        TOTAL FREE ENERGY PREDICTED BY IDOCK:   -4.62 KCAL/MOL
REMARK 923 INTER-LIGAND FREE ENERGY PREDICTED BY IDOCK:   -4.04 KCAL/MOL
REMARK 924 INTRA-LIGAND FREE ENERGY PREDICTED BY IDOCK:   -0.58 KCAL/MOL
REMARK 927      BINDING AFFINITY PREDICTED BY RF-SCORE:    0.00 PKD
ROOT
HETATM    1  N   UNL     1     -11.933  12.822  70.497  1.00  0.00    -0.532 NA 
HETATM    2  H2  UNL     1     -11.061  12.924  71.017  1.00  0.00     0.000 HD 
HETATM    3  H1  UNL     1     -12.725  12.721  71.131  1.00  0.00     0.000 HD 
HETATM    4  C   UNL     1     -12.099  13.909  69.545  1.00  0.00    -0.342 C  
ENDROOT
BRANCH   4   5
HETATM    5  C   UNL     1     -10.908  14.062  68.591  1.00  0.00    -0.272 C  
BRANCH   5   6
HETATM    6  C   UNL     1     -10.851  13.116  67.346  1.00  0.00    -0.255 C  
HETATM    7  O   UNL     1     -12.011  12.214  67.438  1.00  0.00    -0.563 OA 
HETATM    8  P   UNL     1      -9.412  11.987  67.271  1.00  0.00    -0.190 P  
HETATM    9  P   UNL     1     -10.928  14.108  65.810  1.00  0.00    -0.323 P  
HETATM   10  H   UNL     1     -11.976  11.639  66.681  1.00  0.00     0.000 HD 
HETATM   11  O   UNL     1      -8.196  11.031  67.208  1.00  0.00    -0.120 OA 
HETATM   12  O   UNL     1     -10.013  11.274  68.645  1.00  0.00    -0.196 OA 
HETATM   13  O   UNL     1      -8.504  13.129  68.030  1.00  0.00    -0.161 OA 
HETATM   14  O   UNL     1     -12.576  14.102  65.908  1.00  0.00    -0.486 OA 
HETATM   15  O   UNL     1     -10.840  12.711  64.945  1.00  0.00    -0.280 OA 
HETATM   16  O   UNL     1     -10.993  14.947  64.510  1.00  0.00    -0.322 OA 
ENDBRANCH   5   6
ENDBRANCH   4   5
TORSDOF 2
ENDMDL
MODEL       47
REMARK 921   NORMALIZED FREE ENERGY PREDICTED BY IDOCK:   -4.16 KCAL/MOL
REMARK 922        TOTAL FREE ENERGY PREDICTED BY IDOCK:   -4.61 KCAL/MOL
REMARK 923 INTER-LIGAND FREE ENERGY PREDICTED BY IDOCK:   -4.11 KCAL/MOL
REMARK 924 INTRA-LIGAND FREE ENERGY PREDICTED BY IDOCK:   -0.50 KCAL/MOL
REMARK 927      BINDING AFFINITY PREDICTED BY RF-SCORE:    0.00 PKD
ROOT
HETATM    1  N   UNL     1     -13.939   8.733  71.187  1.00  0.00    -0.595 NA 
HETATM    2  H2  UNL     1     -13.778   8.951  70.205  1.00  0.00     0.000 HD 
HETATM    3  H1  UNL     1     -14.875   9.019  71.475  1.00  0.00     0.000 HD 
HETATM    4  C   UNL     1     -13.663   7.330  71.458  1.00  0.00    -0.351 C  
ENDROOT
BRANCH   4   5
HETATM    5  C   UNL     1     -12.256   6.900  71.027  1.00  0.00    -0.427 C  
BRANCH   5   6
HETATM    6  C   UNL     1     -11.102   7.039  72.074  1.00  0.00    -0.243 C  
HETATM    7  O   UNL     1     -11.709   7.539  73.319  1.00  0.00    -0.604 OA 
HETATM    8  P   UNL     1      -9.814   8.278  71.677  1.00  0.00    -0.248 P  
HETATM    9  P   UNL     1     -10.317   5.410  72.352  1.00  0.00    -0.225 P  
HETATM   10  H   UNL     1     -11.008   7.624  73.955  1.00  0.00     0.000 HD 
HETATM   11  O   UNL     1      -8.725   9.325  71.342  1.00  0.00    -0.317 OA 
HETATM   12  O   UNL     1     -11.004   9.428  71.812  1.00  0.00    -0.363 OA 
HETATM   13  O   UNL     1     -10.034   7.962  70.078  1.00  0.00    -0.187 OA 
HETATM   14  O   UNL     1     -11.476   5.060  73.475  1.00  0.00    -0.286 OA 
HETATM   15  O   UNL     1      -9.298   6.123  73.429  1.00  0.00    -0.135 OA 
HETATM   16  O   UNL     1      -9.652   4.031  72.587  1.00  0.00    -0.127 OA 
ENDBRANCH   5   6
ENDBRANCH   4   5
TORSDOF 2
ENDMDL
MODEL       48
REMARK 921   NORMALIZED FREE ENERGY PREDICTED BY IDOCK:   -4.16 KCAL/MOL
REMARK 922        TOTAL FREE ENERGY PREDICTED BY IDOCK:   -4.61 KCAL/MOL
REMARK 923 INTER-LIGAND FREE ENERGY PREDICTED BY IDOCK:   -4.07 KCAL/MOL
REMARK 924 INTRA-LIGAND FREE ENERGY PREDICTED BY IDOCK:   -0.54 KCAL/MOL
REMARK 927      BINDING AFFINITY PREDICTED BY RF-SCORE:    0.00 PKD
ROOT
HETATM    1  N   UNL     1      -8.928  20.025  67.505  1.00  0.00    -0.337 NA 
HETATM    2  H2  UNL     1      -8.282  19.782  68.256  1.00  0.00     0.000 HD 
HETATM    3  H1  UNL     1      -8.966  21.034  67.371  1.00  0.00     0.000 HD 
HETATM    4  C   UNL     1      -8.602  19.299  66.287  1.00  0.00    -0.325 C  
ENDROOT
BRANCH   4   5
HETATM    5  C   UNL     1      -8.544  17.780  66.489  1.00  0.00    -0.283 C  
BRANCH   5   6
HETATM    6  C   UNL     1      -9.867  17.052  66.902  1.00  0.00    -0.271 C  
HETATM    7  O   UNL     1     -10.905  18.088  67.032  1.00  0.00    -0.281 OA 
HETATM    8  P   UNL     1      -9.846  16.234  68.539  1.00  0.00    -0.243 P  
HETATM    9  P   UNL     1     -10.332  15.835  65.618  1.00  0.00    -0.401 P  
HETATM   10  H   UNL     1     -11.708  17.646  67.283  1.00  0.00     0.000 HD 
HETATM   11  O   UNL     1      -9.828  15.543  69.924  1.00  0.00    -0.286 OA 
HETATM   12  O   UNL     1      -9.664  17.749  69.195  1.00  0.00    -0.210 OA 
HETATM   13  O   UNL     1      -8.244  15.920  68.337  1.00  0.00    -0.151 OA 
HETATM   14  O   UNL     1     -11.095  17.034  64.778  1.00  0.00    -0.850 OA 
HETATM   15  O   UNL     1     -11.651  15.441  66.518  1.00  0.00    -0.116 OA 
HETATM   16  O   UNL     1     -10.725  14.804  64.531  1.00  0.00    -0.316 OA 
ENDBRANCH   5   6
ENDBRANCH   4   5
TORSDOF 2
ENDMDL
MODEL       49
REMARK 921   NORMALIZED FREE ENERGY PREDICTED BY IDOCK:   -4.13 KCAL/MOL
REMARK 922        TOTAL FREE ENERGY PREDICTED BY IDOCK:   -4.58 KCAL/MOL
REMARK 923 INTER-LIGAND FREE ENERGY PREDICTED BY IDOCK:   -4.45 KCAL/MOL
REMARK 924 INTRA-LIGAND FREE ENERGY PREDICTED BY IDOCK:   -0.13 KCAL/MOL
REMARK 927      BINDING AFFINITY PREDICTED BY RF-SCORE:    0.00 PKD
ROOT
HETATM    1  N   UNL     1      -9.756  11.906  68.808  1.00  0.00    -0.394 NA 
HETATM    2  H2  UNL     1      -9.236  12.671  69.237  1.00  0.00     0.000 HD 
HETATM    3  H1  UNL     1     -10.088  11.250  69.514  1.00  0.00     0.000 HD 
HETATM    4  C   UNL     1     -10.821  12.418  67.958  1.00  0.00    -0.221 C  
ENDROOT
BRANCH   4   5
HETATM    5  C   UNL     1     -10.322  13.404  66.896  1.00  0.00    -0.257 C  
BRANCH   5   6
HETATM    6  C   UNL     1     -10.894  14.861  66.934  1.00  0.00    -0.319 C  
HETATM    7  O   UNL     1     -12.199  14.793  67.613  1.00  0.00    -0.563 OA 
HETATM    8  P   UNL     1     -11.276  15.606  65.307  1.00  0.00    -0.109 P  
HETATM    9  P   UNL     1      -9.748  15.954  67.851  1.00  0.00    -0.217 P  
HETATM   10  H   UNL     1     -12.546  15.677  67.635  1.00  0.00     0.000 HD 
HETATM   11  O   UNL     1     -11.600  16.237  63.930  1.00  0.00    -0.987 OA 
HETATM   12  O   UNL     1     -12.427  14.422  65.134  1.00  0.00    -0.419 OA 
HETATM   13  O   UNL     1     -10.030  14.758  64.649  1.00  0.00    -0.150 OA 
HETATM   14  O   UNL     1     -10.465  15.491  69.265  1.00  0.00    -0.216 OA 
HETATM   15  O   UNL     1     -10.781  17.205  67.581  1.00  0.00    -0.352 OA 
HETATM   16  O   UNL     1      -8.779  16.878  68.628  1.00  0.00    -0.251 OA 
ENDBRANCH   5   6
ENDBRANCH   4   5
TORSDOF 2
ENDMDL
MODEL       50
REMARK 921   NORMALIZED FREE ENERGY PREDICTED BY IDOCK:   -4.12 KCAL/MOL
REMARK 922        TOTAL FREE ENERGY PREDICTED BY IDOCK:   -4.57 KCAL/MOL
REMARK 923 INTER-LIGAND FREE ENERGY PREDICTED BY IDOCK:   -4.03 KCAL/MOL
REMARK 924 INTRA-LIGAND FREE ENERGY PREDICTED BY IDOCK:   -0.54 KCAL/MOL
REMARK 927      BINDING AFFINITY PREDICTED BY RF-SCORE:    0.00 PKD
ROOT
HETATM    1  N   UNL     1      -6.778  18.915  65.216  1.00  0.00    -0.489 NA 
HETATM    2  H2  UNL     1      -6.532  19.668  65.858  1.00  0.00     0.000 HD 
HETATM    3  H1  UNL     1      -6.284  19.018  64.330  1.00  0.00     0.000 HD 
HETATM    4  C   UNL     1      -6.573  17.616  65.838  1.00  0.00    -0.204 C  
ENDROOT
BRANCH   4   5
HETATM    5  C   UNL     1      -7.315  17.462  67.170  1.00  0.00    -0.199 C  
BRANCH   5   6
HETATM    6  C   UNL     1      -8.873  17.322  67.120  1.00  0.00    -0.226 C  
HETATM    7  O   UNL     1      -9.257  17.295  65.698  1.00  0.00    -0.501 OA 
HETATM    8  P   UNL     1      -9.820  18.728  67.810  1.00  0.00    -0.371 P  
HETATM    9  P   UNL     1      -9.384  15.775  67.953  1.00  0.00    -0.200 P  
HETATM   10  H   UNL     1     -10.203  17.210  65.668  1.00  0.00     0.000 HD 
HETATM   11  O   UNL     1     -10.621  19.918  68.393  1.00  0.00    -0.366 OA 
HETATM   12  O   UNL     1      -9.175  19.648  66.587  1.00  0.00    -0.325 OA 
HETATM   13  O   UNL     1      -8.611  18.981  68.896  1.00  0.00    -0.333 OA 
HETATM   14  O   UNL     1      -9.129  14.951  66.545  1.00  0.00    -0.265 OA 
HETATM   15  O   UNL     1     -10.949  16.148  67.609  1.00  0.00    -0.324 OA 
HETATM   16  O   UNL     1      -9.816  14.466  68.658  1.00  0.00    -0.227 OA 
ENDBRANCH   5   6
ENDBRANCH   4   5
TORSDOF 2
ENDMDL
MODEL       51
REMARK 921   NORMALIZED FREE ENERGY PREDICTED BY IDOCK:   -4.12 KCAL/MOL
REMARK 922        TOTAL FREE ENERGY PREDICTED BY IDOCK:   -4.57 KCAL/MOL
REMARK 923 INTER-LIGAND FREE ENERGY PREDICTED BY IDOCK:   -4.44 KCAL/MOL
REMARK 924 INTRA-LIGAND FREE ENERGY PREDICTED BY IDOCK:   -0.13 KCAL/MOL
REMARK 927      BINDING AFFINITY PREDICTED BY RF-SCORE:    0.00 PKD
ROOT
HETATM    1  N   UNL     1      -9.230  17.971  67.429  1.00  0.00    -0.252 NA 
HETATM    2  H2  UNL     1      -9.949  18.544  67.870  1.00  0.00     0.000 HD 
HETATM    3  H1  UNL     1      -8.310  18.398  67.532  1.00  0.00     0.000 HD 
HETATM    4  C   UNL     1      -9.284  16.603  67.924  1.00  0.00    -0.219 C  
ENDROOT
BRANCH   4   5
HETATM    5  C   UNL     1     -10.667  15.961  67.770  1.00  0.00    -0.320 C  
BRANCH   5   6
HETATM    6  C   UNL     1     -11.052  14.821  68.770  1.00  0.00    -0.265 C  
HETATM    7  O   UNL     1      -9.814  14.415  69.456  1.00  0.00    -0.412 OA 
HETATM    8  P   UNL     1     -11.669  13.273  68.011  1.00  0.00    -0.342 P  
HETATM    9  P   UNL     1     -12.281  15.441  69.975  1.00  0.00    -0.271 P  
HETATM   10  H   UNL     1     -10.048  13.722  70.064  1.00  0.00     0.000 HD 
HETATM   11  O   UNL     1     -12.190  11.964  67.370  1.00  0.00    -0.502 OA 
HETATM   12  O   UNL     1     -10.162  13.110  67.333  1.00  0.00    -0.229 OA 
HETATM   13  O   UNL     1     -12.331  14.160  66.794  1.00  0.00    -0.438 OA 
HETATM   14  O   UNL     1     -11.050  16.026  70.906  1.00  0.00    -0.339 OA 
HETATM   15  O   UNL     1     -12.288  13.955  70.680  1.00  0.00    -0.338 OA 
HETATM   16  O   UNL     1     -13.321  15.967  70.995  1.00  0.00    -0.514 OA 
ENDBRANCH   5   6
ENDBRANCH   4   5
TORSDOF 2
ENDMDL
MODEL       52
REMARK 921   NORMALIZED FREE ENERGY PREDICTED BY IDOCK:   -4.11 KCAL/MOL
REMARK 922        TOTAL FREE ENERGY PREDICTED BY IDOCK:   -4.56 KCAL/MOL
REMARK 923 INTER-LIGAND FREE ENERGY PREDICTED BY IDOCK:   -3.98 KCAL/MOL
REMARK 924 INTRA-LIGAND FREE ENERGY PREDICTED BY IDOCK:   -0.58 KCAL/MOL
REMARK 927      BINDING AFFINITY PREDICTED BY RF-SCORE:    0.00 PKD
ROOT
HETATM    1  N   UNL     1      -7.112  12.336  66.885  1.00  0.00    -0.370 NA 
HETATM    2  H2  UNL     1      -7.708  12.451  66.065  1.00  0.00     0.000 HD 
HETATM    3  H1  UNL     1      -6.149  12.144  66.610  1.00  0.00     0.000 HD 
HETATM    4  C   UNL     1      -7.235  13.477  67.779  1.00  0.00    -0.154 C  
ENDROOT
BRANCH   4   5
HETATM    5  C   UNL     1      -8.683  13.765  68.192  1.00  0.00    -0.183 C  
BRANCH   5   6
HETATM    6  C   UNL     1      -9.617  14.439  67.133  1.00  0.00    -0.250 C  
HETATM    7  O   UNL     1      -8.789  14.730  65.951  1.00  0.00    -0.418 OA 
HETATM    8  P   UNL     1     -10.309  16.066  67.605  1.00  0.00    -0.295 P  
HETATM    9  P   UNL     1     -10.982  13.300  66.696  1.00  0.00    -0.293 P  
HETATM   10  H   UNL     1      -9.357  15.140  65.308  1.00  0.00     0.000 HD 
HETATM   11  O   UNL     1     -10.894  17.443  68.004  1.00  0.00    -0.384 OA 
HETATM   12  O   UNL     1      -8.748  16.632  67.599  1.00  0.00    -0.198 OA 
HETATM   13  O   UNL     1     -10.329  15.578  69.175  1.00  0.00    -0.212 OA 
HETATM   14  O   UNL     1     -10.004  12.583  65.576  1.00  0.00    -0.263 OA 
HETATM   15  O   UNL     1     -11.558  14.442  65.662  1.00  0.00    -0.338 OA 
HETATM   16  O   UNL     1     -12.136  12.336  66.327  1.00  0.00    -0.626 OA 
ENDBRANCH   5   6
ENDBRANCH   4   5
TORSDOF 2
ENDMDL
MODEL       53
REMARK 921   NORMALIZED FREE ENERGY PREDICTED BY IDOCK:   -4.08 KCAL/MOL
REMARK 922        TOTAL FREE ENERGY PREDICTED BY IDOCK:   -4.53 KCAL/MOL
REMARK 923 INTER-LIGAND FREE ENERGY PREDICTED BY IDOCK:   -3.99 KCAL/MOL
REMARK 924 INTRA-LIGAND FREE ENERGY PREDICTED BY IDOCK:   -0.54 KCAL/MOL
REMARK 927      BINDING AFFINITY PREDICTED BY RF-SCORE:    0.00 PKD
ROOT
HETATM    1  N   UNL     1     -12.261  15.357  68.763  1.00  0.00    -0.593 NA 
HETATM    2  H2  UNL     1     -12.860  15.674  68.000  1.00  0.00     0.000 HD 
HETATM    3  H1  UNL     1     -12.814  14.928  69.504  1.00  0.00     0.000 HD 
HETATM    4  C   UNL     1     -11.204  14.491  68.265  1.00  0.00    -0.277 C  
ENDROOT
BRANCH   4   5
HETATM    5  C   UNL     1     -10.372  15.136  67.150  1.00  0.00    -0.263 C  
BRANCH   5   6
HETATM    6  C   UNL     1      -9.311  16.208  67.565  1.00  0.00    -0.217 C  
HETATM    7  O   UNL     1      -9.564  16.540  68.977  1.00  0.00    -0.252 OA 
HETATM    8  P   UNL     1      -9.427  17.818  66.702  1.00  0.00    -0.293 P  
HETATM    9  P   UNL     1      -7.626  15.526  67.358  1.00  0.00    -0.222 P  
HETATM   10  H   UNL     1      -8.920  17.191  69.229  1.00  0.00     0.000 HD 
HETATM   11  O   UNL     1      -9.526  19.179  65.971  1.00  0.00    -0.437 OA 
HETATM   12  O   UNL     1     -10.908  18.001  67.431  1.00  0.00    -0.356 OA 
HETATM   13  O   UNL     1      -9.970  17.034  65.361  1.00  0.00    -0.556 OA 
HETATM   14  O   UNL     1      -7.731  14.851  68.862  1.00  0.00    -0.129 OA 
HETATM   15  O   UNL     1      -7.018  16.957  67.895  1.00  0.00    -0.142 OA 
HETATM   16  O   UNL     1      -6.200  14.948  67.183  1.00  0.00    -0.249 OA 
ENDBRANCH   5   6
ENDBRANCH   4   5
TORSDOF 2
ENDMDL
MODEL       54
REMARK 921   NORMALIZED FREE ENERGY PREDICTED BY IDOCK:   -4.07 KCAL/MOL
REMARK 922        TOTAL FREE ENERGY PREDICTED BY IDOCK:   -4.51 KCAL/MOL
REMARK 923 INTER-LIGAND FREE ENERGY PREDICTED BY IDOCK:   -4.04 KCAL/MOL
REMARK 924 INTRA-LIGAND FREE ENERGY PREDICTED BY IDOCK:   -0.47 KCAL/MOL
REMARK 927      BINDING AFFINITY PREDICTED BY RF-SCORE:    0.00 PKD
ROOT
HETATM    1  N   UNL     1     -10.533   5.136  72.005  1.00  0.00    -0.216 NA 
HETATM    2  H2  UNL     1      -9.784   5.225  72.691  1.00  0.00     0.000 HD 
HETATM    3  H1  UNL     1     -10.802   4.160  71.885  1.00  0.00     0.000 HD 
HETATM    4  C   UNL     1     -11.653   6.000  72.344  1.00  0.00    -0.300 C  
ENDROOT
BRANCH   4   5
HETATM    5  C   UNL     1     -11.247   7.468  72.525  1.00  0.00    -0.381 C  
BRANCH   5   6
HETATM    6  C   UNL     1     -11.345   8.405  71.275  1.00  0.00    -0.266 C  
HETATM    7  O   UNL     1     -11.899   7.599  70.175  1.00  0.00    -0.487 OA 
HETATM    8  P   UNL     1      -9.751   9.021  70.618  1.00  0.00    -0.275 P  
HETATM    9  P   UNL     1     -12.440   9.823  71.648  1.00  0.00    -0.408 P  
HETATM   10  H   UNL     1     -11.958   8.169  69.416  1.00  0.00     0.000 HD 
HETATM   11  O   UNL     1      -8.404   9.541  70.062  1.00  0.00    -0.142 OA 
HETATM   12  O   UNL     1      -9.389   7.440  70.262  1.00  0.00    -0.161 OA 
HETATM   13  O   UNL     1      -9.144   9.016  72.147  1.00  0.00    -0.372 OA 
HETATM   14  O   UNL     1     -13.746   8.905  71.229  1.00  0.00    -0.302 OA 
HETATM   15  O   UNL     1     -12.175  10.384  70.124  1.00  0.00    -0.273 OA 
HETATM   16  O   UNL     1     -13.366  11.023  71.964  1.00  0.00    -0.455 OA 
ENDBRANCH   5   6
ENDBRANCH   4   5
TORSDOF 2
ENDMDL
MODEL       55
REMARK 921   NORMALIZED FREE ENERGY PREDICTED BY IDOCK:   -4.05 KCAL/MOL
REMARK 922        TOTAL FREE ENERGY PREDICTED BY IDOCK:   -4.49 KCAL/MOL
REMARK 923 INTER-LIGAND FREE ENERGY PREDICTED BY IDOCK:   -4.35 KCAL/MOL
REMARK 924 INTRA-LIGAND FREE ENERGY PREDICTED BY IDOCK:   -0.13 KCAL/MOL
REMARK 927      BINDING AFFINITY PREDICTED BY RF-SCORE:    0.00 PKD
ROOT
HETATM    1  N   UNL     1     -10.474  11.108  62.853  1.00  0.00    -0.778 NA 
HETATM    2  H2  UNL     1      -9.621  10.593  63.070  1.00  0.00     0.000 HD 
HETATM    3  H1  UNL     1     -11.069  10.576  62.219  1.00  0.00     0.000 HD 
HETATM    4  C   UNL     1     -11.159  11.513  64.072  1.00  0.00    -0.365 C  
ENDROOT
BRANCH   4   5
HETATM    5  C   UNL     1     -10.265  12.313  65.026  1.00  0.00    -0.312 C  
BRANCH   5   6
HETATM    6  C   UNL     1     -10.781  12.537  66.486  1.00  0.00    -0.240 C  
HETATM    7  O   UNL     1     -12.164  12.036  66.535  1.00  0.00    -0.548 OA 
HETATM    8  P   UNL     1     -10.920  14.281  67.022  1.00  0.00    -0.320 P  
HETATM    9  P   UNL     1      -9.724  11.619  67.665  1.00  0.00    -0.187 P  
HETATM   10  H   UNL     1     -12.478  12.172  67.422  1.00  0.00     0.000 HD 
HETATM   11  O   UNL     1     -11.038  15.757  67.474  1.00  0.00    -0.317 OA 
HETATM   12  O   UNL     1     -12.083  14.456  65.850  1.00  0.00    -0.384 OA 
HETATM   13  O   UNL     1      -9.631  14.653  66.069  1.00  0.00    -0.304 OA 
HETATM   14  O   UNL     1     -10.635  10.267  67.406  1.00  0.00    -0.233 OA 
HETATM   15  O   UNL     1     -10.664  12.182  68.892  1.00  0.00    -0.219 OA 
HETATM   16  O   UNL     1      -8.829  10.843  68.663  1.00  0.00    -0.146 OA 
ENDBRANCH   5   6
ENDBRANCH   4   5
TORSDOF 2
ENDMDL
MODEL       56
REMARK 921   NORMALIZED FREE ENERGY PREDICTED BY IDOCK:   -4.04 KCAL/MOL
REMARK 922        TOTAL FREE ENERGY PREDICTED BY IDOCK:   -4.48 KCAL/MOL
REMARK 923 INTER-LIGAND FREE ENERGY PREDICTED BY IDOCK:   -4.10 KCAL/MOL
REMARK 924 INTRA-LIGAND FREE ENERGY PREDICTED BY IDOCK:   -0.38 KCAL/MOL
REMARK 927      BINDING AFFINITY PREDICTED BY RF-SCORE:    0.00 PKD
ROOT
HETATM    1  N   UNL     1     -11.467  14.388  70.246  1.00  0.00    -0.426 NA 
HETATM    2  H2  UNL     1     -10.945  13.512  70.265  1.00  0.00     0.000 HD 
HETATM    3  H1  UNL     1     -11.963  14.536  71.124  1.00  0.00     0.000 HD 
HETATM    4  C   UNL     1     -10.599  15.500  69.887  1.00  0.00    -0.313 C  
ENDROOT
BRANCH   4   5
HETATM    5  C   UNL     1      -9.852  15.278  68.566  1.00  0.00    -0.210 C  
BRANCH   5   6
HETATM    6  C   UNL     1     -10.456  15.923  67.275  1.00  0.00    -0.310 C  
HETATM    7  O   UNL     1     -11.612  16.731  67.698  1.00  0.00     0.168 OA 
HETATM    8  P   UNL     1     -11.154  14.752  66.053  1.00  0.00    -0.319 P  
HETATM    9  P   UNL     1      -9.199  16.976  66.462  1.00  0.00    -0.272 P  
HETATM   10  H   UNL     1     -11.979  17.123  66.913  1.00  0.00     0.000 HD 
HETATM   11  O   UNL     1     -11.744  13.762  65.020  1.00  0.00    -0.322 OA 
HETATM   12  O   UNL     1     -12.277  14.354  67.209  1.00  0.00    -0.383 OA 
HETATM   13  O   UNL     1     -10.020  13.646  66.499  1.00  0.00    -0.272 OA 
HETATM   14  O   UNL     1      -9.630  18.226  67.450  1.00  0.00    -0.276 OA 
HETATM   15  O   UNL     1     -10.305  17.338  65.299  1.00  0.00    -0.626 OA 
HETATM   16  O   UNL     1      -8.136  17.867  65.774  1.00  0.00    -0.537 OA 
ENDBRANCH   5   6
ENDBRANCH   4   5
TORSDOF 2
ENDMDL
MODEL       57
REMARK 921   NORMALIZED FREE ENERGY PREDICTED BY IDOCK:   -4.00 KCAL/MOL
REMARK 922        TOTAL FREE ENERGY PREDICTED BY IDOCK:   -4.44 KCAL/MOL
REMARK 923 INTER-LIGAND FREE ENERGY PREDICTED BY IDOCK:   -4.34 KCAL/MOL
REMARK 924 INTRA-LIGAND FREE ENERGY PREDICTED BY IDOCK:   -0.09 KCAL/MOL
REMARK 927      BINDING AFFINITY PREDICTED BY RF-SCORE:    0.00 PKD
ROOT
HETATM    1  N   UNL     1     -11.397   6.416  67.580  1.00  0.00    -0.676 NA 
HETATM    2  H2  UNL     1     -10.635   6.936  67.144  1.00  0.00     0.000 HD 
HETATM    3  H1  UNL     1     -11.573   5.544  67.083  1.00  0.00     0.000 HD 
HETATM    4  C   UNL     1     -11.145   6.223  69.000  1.00  0.00    -0.378 C  
ENDROOT
BRANCH   4   5
HETATM    5  C   UNL     1     -10.880   7.534  69.748  1.00  0.00    -0.234 C  
BRANCH   5   6
HETATM    6  C   UNL     1     -10.971   7.509  71.310  1.00  0.00    -0.242 C  
HETATM    7  O   UNL     1     -11.215   6.111  71.704  1.00  0.00    -0.269 OA 
HETATM    8  P   UNL     1     -12.375   8.429  72.040  1.00  0.00    -0.396 P  
HETATM    9  P   UNL     1      -9.403   8.115  72.033  1.00  0.00    -0.253 P  
HETATM   10  H   UNL     1     -11.271   6.096  72.653  1.00  0.00     0.000 HD 
HETATM   11  O   UNL     1     -13.563   9.208  72.656  1.00  0.00    -0.465 OA 
HETATM   12  O   UNL     1     -13.370   7.340  71.278  1.00  0.00    -0.369 OA 
HETATM   13  O   UNL     1     -12.285   9.506  70.799  1.00  0.00    -0.273 OA 
HETATM   14  O   UNL     1      -8.776   6.593  71.910  1.00  0.00    -0.129 OA 
HETATM   15  O   UNL     1     -10.041   7.877  73.531  1.00  0.00    -0.293 OA 
HETATM   16  O   UNL     1      -8.076   8.628  72.645  1.00  0.00    -0.367 OA 
ENDBRANCH   5   6
ENDBRANCH   4   5
TORSDOF 2
ENDMDL
MODEL       58
REMARK 921   NORMALIZED FREE ENERGY PREDICTED BY IDOCK:   -4.00 KCAL/MOL
REMARK 922        TOTAL FREE ENERGY PREDICTED BY IDOCK:   -4.43 KCAL/MOL
REMARK 923 INTER-LIGAND FREE ENERGY PREDICTED BY IDOCK:   -4.18 KCAL/MOL
REMARK 924 INTRA-LIGAND FREE ENERGY PREDICTED BY IDOCK:   -0.25 KCAL/MOL
REMARK 927      BINDING AFFINITY PREDICTED BY RF-SCORE:    0.00 PKD
ROOT
HETATM    1  N   UNL     1     -11.587  14.794  71.126  1.00  0.00    -0.466 NA 
HETATM    2  H2  UNL     1     -11.405  13.855  70.773  1.00  0.00     0.000 HD 
HETATM    3  H1  UNL     1     -11.218  14.905  72.070  1.00  0.00     0.000 HD 
HETATM    4  C   UNL     1     -11.096  15.801  70.199  1.00  0.00    -0.352 C  
ENDROOT
BRANCH   4   5
HETATM    5  C   UNL     1     -11.651  15.634  68.779  1.00  0.00    -0.393 C  
BRANCH   5   6
HETATM    6  C   UNL     1     -10.750  14.901  67.731  1.00  0.00    -0.271 C  
HETATM    7  O   UNL     1     -10.703  15.754  66.532  1.00  0.00    -0.313 OA 
HETATM    8  P   UNL     1     -11.389  13.301  67.114  1.00  0.00    -0.353 P  
HETATM    9  P   UNL     1      -9.069  14.663  68.416  1.00  0.00    -0.196 P  
HETATM   10  H   UNL     1     -10.156  15.309  65.895  1.00  0.00     0.000 HD 
HETATM   11  O   UNL     1     -11.930  11.947  66.592  1.00  0.00    -0.601 OA 
HETATM   12  O   UNL     1     -12.648  14.159  66.454  1.00  0.00    -0.427 OA 
HETATM   13  O   UNL     1     -12.085  13.038  68.581  1.00  0.00    -0.295 OA 
HETATM   14  O   UNL     1      -8.663  16.180  67.905  1.00  0.00    -0.172 OA 
HETATM   15  O   UNL     1      -8.638  13.927  67.009  1.00  0.00    -0.216 OA 
HETATM   16  O   UNL     1      -7.648  14.462  68.995  1.00  0.00    -0.128 OA 
ENDBRANCH   5   6
ENDBRANCH   4   5
TORSDOF 2
ENDMDL
MODEL       59
REMARK 921   NORMALIZED FREE ENERGY PREDICTED BY IDOCK:   -3.99 KCAL/MOL
REMARK 922        TOTAL FREE ENERGY PREDICTED BY IDOCK:   -4.42 KCAL/MOL
REMARK 923 INTER-LIGAND FREE ENERGY PREDICTED BY IDOCK:   -3.88 KCAL/MOL
REMARK 924 INTRA-LIGAND FREE ENERGY PREDICTED BY IDOCK:   -0.54 KCAL/MOL
REMARK 927      BINDING AFFINITY PREDICTED BY RF-SCORE:    0.00 PKD
ROOT
HETATM    1  N   UNL     1     -12.094  10.603  68.837  1.00  0.00    -0.756 NA 
HETATM    2  H2  UNL     1     -12.121   9.659  68.450  1.00  0.00     0.000 HD 
HETATM    3  H1  UNL     1     -12.931  11.125  68.578  1.00  0.00     0.000 HD 
HETATM    4  C   UNL     1     -11.864  10.568  70.273  1.00  0.00    -0.331 C  
ENDROOT
BRANCH   4   5
HETATM    5  C   UNL     1     -10.607   9.781  70.662  1.00  0.00    -0.382 C  
BRANCH   5   6
HETATM    6  C   UNL     1     -10.721   8.222  70.734  1.00  0.00    -0.218 C  
HETATM    7  O   UNL     1     -12.136   7.883  70.512  1.00  0.00    -0.489 OA 
HETATM    8  P   UNL     1     -10.331   7.471  72.357  1.00  0.00    -0.274 P  
HETATM    9  P   UNL     1      -9.669   7.464  69.442  1.00  0.00    -0.162 P  
HETATM   10  H   UNL     1     -12.205   6.937  70.556  1.00  0.00     0.000 HD 
HETATM   11  O   UNL     1     -10.002   6.835  73.729  1.00  0.00    -0.224 OA 
HETATM   12  O   UNL     1     -11.653   8.282  72.950  1.00  0.00    -0.351 OA 
HETATM   13  O   UNL     1      -9.236   8.669  72.624  1.00  0.00    -0.299 OA 
HETATM   14  O   UNL     1     -10.902   7.639  68.358  1.00  0.00    -0.098 OA 
HETATM   15  O   UNL     1     -10.158   5.982  69.964  1.00  0.00    -0.169 OA 
HETATM   16  O   UNL     1      -8.779   6.822  68.350  1.00  0.00    -0.124 OA 
ENDBRANCH   5   6
ENDBRANCH   4   5
TORSDOF 2
ENDMDL
MODEL       60
REMARK 921   NORMALIZED FREE ENERGY PREDICTED BY IDOCK:   -3.97 KCAL/MOL
REMARK 922        TOTAL FREE ENERGY PREDICTED BY IDOCK:   -4.40 KCAL/MOL
REMARK 923 INTER-LIGAND FREE ENERGY PREDICTED BY IDOCK:   -3.82 KCAL/MOL
REMARK 924 INTRA-LIGAND FREE ENERGY PREDICTED BY IDOCK:   -0.58 KCAL/MOL
REMARK 927      BINDING AFFINITY PREDICTED BY RF-SCORE:    0.00 PKD
ROOT
HETATM    1  N   UNL     1      -6.948  20.880  64.258  1.00  0.00    -0.359 NA 
HETATM    2  H2  UNL     1      -7.671  21.595  64.328  1.00  0.00     0.000 HD 
HETATM    3  H1  UNL     1      -6.365  21.032  63.435  1.00  0.00     0.000 HD 
HETATM    4  C   UNL     1      -6.182  20.795  65.492  1.00  0.00    -0.244 C  
ENDROOT
BRANCH   4   5
HETATM    5  C   UNL     1      -7.058  20.567  66.729  1.00  0.00    -0.331 C  
BRANCH   5   6
HETATM    6  C   UNL     1      -7.666  19.139  66.934  1.00  0.00    -0.238 C  
HETATM    7  O   UNL     1      -7.342  18.357  65.730  1.00  0.00    -0.462 OA 
HETATM    8  P   UNL     1      -9.491  19.060  67.041  1.00  0.00    -0.345 P  
HETATM    9  P   UNL     1      -6.933  18.362  68.421  1.00  0.00    -0.268 P  
HETATM   10  H   UNL     1      -7.711  17.490  65.854  1.00  0.00     0.000 HD 
HETATM   11  O   UNL     1     -11.035  18.993  67.130  1.00  0.00    -0.433 OA 
HETATM   12  O   UNL     1      -9.517  19.596  65.470  1.00  0.00    -0.242 OA 
HETATM   13  O   UNL     1      -9.492  20.545  67.749  1.00  0.00    -0.330 OA 
HETATM   14  O   UNL     1      -5.665  17.838  67.503  1.00  0.00    -0.136 OA 
HETATM   15  O   UNL     1      -7.861  17.033  68.139  1.00  0.00    -0.183 OA 
HETATM   16  O   UNL     1      -6.314  17.704  69.678  1.00  0.00    -0.244 OA 
ENDBRANCH   5   6
ENDBRANCH   4   5
TORSDOF 2
ENDMDL
MODEL       61
REMARK 921   NORMALIZED FREE ENERGY PREDICTED BY IDOCK:   -3.94 KCAL/MOL
REMARK 922        TOTAL FREE ENERGY PREDICTED BY IDOCK:   -4.36 KCAL/MOL
REMARK 923 INTER-LIGAND FREE ENERGY PREDICTED BY IDOCK:   -3.82 KCAL/MOL
REMARK 924 INTRA-LIGAND FREE ENERGY PREDICTED BY IDOCK:   -0.54 KCAL/MOL
REMARK 927      BINDING AFFINITY PREDICTED BY RF-SCORE:    0.00 PKD
ROOT
HETATM    1  N   UNL     1      -6.536  19.640  64.201  1.00  0.00    -0.264 NA 
HETATM    2  H2  UNL     1      -7.321  20.203  64.527  1.00  0.00     0.000 HD 
HETATM    3  H1  UNL     1      -6.052  20.101  63.431  1.00  0.00     0.000 HD 
HETATM    4  C   UNL     1      -5.652  19.295  65.304  1.00  0.00    -0.180 C  
ENDROOT
BRANCH   4   5
HETATM    5  C   UNL     1      -6.379  18.601  66.463  1.00  0.00    -0.209 C  
BRANCH   5   6
HETATM    6  C   UNL     1      -7.414  19.446  67.278  1.00  0.00    -0.229 C  
HETATM    7  O   UNL     1      -7.434  20.793  66.684  1.00  0.00    -0.488 OA 
HETATM    8  P   UNL     1      -6.993  19.739  69.034  1.00  0.00    -0.265 P  
HETATM    9  P   UNL     1      -9.069  18.672  67.168  1.00  0.00    -0.302 P  
HETATM   10  H   UNL     1      -8.062  21.305  67.179  1.00  0.00     0.000 HD 
HETATM   11  O   UNL     1      -6.637  19.987  70.521  1.00  0.00    -0.292 OA 
HETATM   12  O   UNL     1      -5.686  20.603  68.485  1.00  0.00    -0.275 OA 
HETATM   13  O   UNL     1      -6.248  18.273  69.078  1.00  0.00    -0.216 OA 
HETATM   14  O   UNL     1      -9.332  19.471  65.748  1.00  0.00    -0.386 OA 
HETATM   15  O   UNL     1      -9.659  19.881  68.115  1.00  0.00    -0.356 OA 
HETATM   16  O   UNL     1     -10.469  18.016  67.076  1.00  0.00    -0.362 OA 
ENDBRANCH   5   6
ENDBRANCH   4   5
TORSDOF 2
ENDMDL
MODEL       62
REMARK 921   NORMALIZED FREE ENERGY PREDICTED BY IDOCK:   -3.92 KCAL/MOL
REMARK 922        TOTAL FREE ENERGY PREDICTED BY IDOCK:   -4.34 KCAL/MOL
REMARK 923 INTER-LIGAND FREE ENERGY PREDICTED BY IDOCK:   -3.76 KCAL/MOL
REMARK 924 INTRA-LIGAND FREE ENERGY PREDICTED BY IDOCK:   -0.58 KCAL/MOL
REMARK 927      BINDING AFFINITY PREDICTED BY RF-SCORE:    0.00 PKD
ROOT
HETATM    1  N   UNL     1     -12.241  10.916  68.401  1.00  0.00    -0.810 NA 
HETATM    2  H2  UNL     1     -12.848  11.012  67.588  1.00  0.00     0.000 HD 
HETATM    3  H1  UNL     1     -12.677  10.330  69.113  1.00  0.00     0.000 HD 
HETATM    4  C   UNL     1     -10.920  10.450  68.009  1.00  0.00    -0.291 C  
ENDROOT
BRANCH   4   5
HETATM    5  C   UNL     1     -10.264  11.330  66.939  1.00  0.00    -0.254 C  
BRANCH   5   6
HETATM    6  C   UNL     1      -9.701  12.719  67.388  1.00  0.00    -0.197 C  
HETATM    7  O   UNL     1     -10.096  12.909  68.794  1.00  0.00    -0.390 OA 
HETATM    8  P   UNL     1     -10.401  14.176  66.528  1.00  0.00    -0.296 P  
HETATM    9  P   UNL     1      -7.879  12.732  67.226  1.00  0.00    -0.049 P  
HETATM   10  H   UNL     1      -9.755  13.753  69.067  1.00  0.00     0.000 HD 
HETATM   11  O   UNL     1     -10.993  15.408  65.801  1.00  0.00    -0.330 OA 
HETATM   12  O   UNL     1     -11.857  13.772  67.216  1.00  0.00    -0.360 OA 
HETATM   13  O   UNL     1     -10.572  13.264  65.170  1.00  0.00    -0.304 OA 
HETATM   14  O   UNL     1      -7.756  12.047  68.723  1.00  0.00    -0.118 OA 
HETATM   15  O   UNL     1      -7.874  14.279  67.785  1.00  0.00    -0.135 OA 
HETATM   16  O   UNL     1      -6.336  12.743  67.088  1.00  0.00    -0.227 OA 
ENDBRANCH   5   6
ENDBRANCH   4   5
TORSDOF 2
ENDMDL
MODEL       63
REMARK 921   NORMALIZED FREE ENERGY PREDICTED BY IDOCK:   -3.91 KCAL/MOL
REMARK 922        TOTAL FREE ENERGY PREDICTED BY IDOCK:   -4.34 KCAL/MOL
REMARK 923 INTER-LIGAND FREE ENERGY PREDICTED BY IDOCK:   -3.82 KCAL/MOL
REMARK 924 INTRA-LIGAND FREE ENERGY PREDICTED BY IDOCK:   -0.52 KCAL/MOL
REMARK 927      BINDING AFFINITY PREDICTED BY RF-SCORE:    0.00 PKD
ROOT
HETATM    1  N   UNL     1     -12.684  14.987  69.778  1.00  0.00    -0.608 NA 
HETATM    2  H2  UNL     1     -13.438  15.301  69.167  1.00  0.00     0.000 HD 
HETATM    3  H1  UNL     1     -12.932  15.119  70.758  1.00  0.00     0.000 HD 
HETATM    4  C   UNL     1     -12.300  13.619  69.465  1.00  0.00    -0.182 C  
ENDROOT
BRANCH   4   5
HETATM    5  C   UNL     1     -11.928  13.421  67.992  1.00  0.00    -0.357 C  
BRANCH   5   6
HETATM    6  C   UNL     1     -10.430  13.627  67.588  1.00  0.00    -0.238 C  
HETATM    7  O   UNL     1      -9.709  14.038  68.805  1.00  0.00    -0.320 OA 
HETATM    8  P   UNL     1     -10.106  14.981  66.400  1.00  0.00    -0.311 P  
HETATM    9  P   UNL     1      -9.743  12.062  66.933  1.00  0.00    -0.212 P  
HETATM   10  H   UNL     1      -8.800  14.163  68.560  1.00  0.00     0.000 HD 
HETATM   11  O   UNL     1      -9.832  16.126  65.395  1.00  0.00    -0.474 OA 
HETATM   12  O   UNL     1     -10.649  16.021  67.574  1.00  0.00    -0.302 OA 
HETATM   13  O   UNL     1     -11.570  14.694  65.708  1.00  0.00    -0.351 OA 
HETATM   14  O   UNL     1      -9.402  11.584  68.475  1.00  0.00    -0.184 OA 
HETATM   15  O   UNL     1      -8.304  12.829  66.709  1.00  0.00    -0.113 OA 
HETATM   16  O   UNL     1      -9.162  10.739  66.378  1.00  0.00    -0.163 OA 
ENDBRANCH   5   6
ENDBRANCH   4   5
TORSDOF 2
ENDMDL
MODEL       64
REMARK 921   NORMALIZED FREE ENERGY PREDICTED BY IDOCK:   -3.91 KCAL/MOL
REMARK 922        TOTAL FREE ENERGY PREDICTED BY IDOCK:   -4.34 KCAL/MOL
REMARK 923 INTER-LIGAND FREE ENERGY PREDICTED BY IDOCK:   -3.75 KCAL/MOL
REMARK 924 INTRA-LIGAND FREE ENERGY PREDICTED BY IDOCK:   -0.58 KCAL/MOL
REMARK 927      BINDING AFFINITY PREDICTED BY RF-SCORE:    0.00 PKD
ROOT
HETATM    1  N   UNL     1     -14.185   8.573  71.112  1.00  0.00    -0.637 NA 
HETATM    2  H2  UNL     1     -14.271   8.600  70.096  1.00  0.00     0.000 HD 
HETATM    3  H1  UNL     1     -15.102   8.613  71.555  1.00  0.00     0.000 HD 
HETATM    4  C   UNL     1     -13.395   7.426  71.534  1.00  0.00    -0.372 C  
ENDROOT
BRANCH   4   5
HETATM    5  C   UNL     1     -12.016   7.366  70.867  1.00  0.00    -0.308 C  
BRANCH   5   6
HETATM    6  C   UNL     1     -10.931   8.384  71.353  1.00  0.00    -0.253 C  
HETATM    7  O   UNL     1     -11.595   9.305  72.290  1.00  0.00    -0.234 OA 
HETATM    8  P   UNL     1     -10.237   9.482  70.064  1.00  0.00    -0.282 P  
HETATM    9  P   UNL     1      -9.571   7.488  72.189  1.00  0.00    -0.166 P  
HETATM   10  H   UNL     1     -10.936   9.924  72.585  1.00  0.00     0.000 HD 
HETATM   11  O   UNL     1      -9.650  10.411  68.974  1.00  0.00    -0.184 OA 
HETATM   12  O   UNL     1     -11.761  10.124  69.916  1.00  0.00    -0.237 OA 
HETATM   13  O   UNL     1     -10.431   8.275  68.963  1.00  0.00    -0.219 OA 
HETATM   14  O   UNL     1     -10.432   7.526  73.597  1.00  0.00    -0.349 OA 
HETATM   15  O   UNL     1      -8.826   8.932  72.447  1.00  0.00    -0.396 OA 
HETATM   16  O   UNL     1      -8.421   6.730  72.895  1.00  0.00    -0.117 OA 
ENDBRANCH   5   6
ENDBRANCH   4   5
TORSDOF 2
ENDMDL
MODEL       65
REMARK 921   NORMALIZED FREE ENERGY PREDICTED BY IDOCK:   -3.89 KCAL/MOL
REMARK 922        TOTAL FREE ENERGY PREDICTED BY IDOCK:   -4.31 KCAL/MOL
REMARK 923 INTER-LIGAND FREE ENERGY PREDICTED BY IDOCK:   -3.73 KCAL/MOL
REMARK 924 INTRA-LIGAND FREE ENERGY PREDICTED BY IDOCK:   -0.58 KCAL/MOL
REMARK 927      BINDING AFFINITY PREDICTED BY RF-SCORE:    0.00 PKD
ROOT
HETATM    1  N   UNL     1     -10.912   9.297  70.785  1.00  0.00    -0.260 NA 
HETATM    2  H2  UNL     1     -11.724   9.521  70.211  1.00  0.00     0.000 HD 
HETATM    3  H1  UNL     1     -11.087   8.472  71.357  1.00  0.00     0.000 HD 
HETATM    4  C   UNL     1      -9.715   9.180  69.966  1.00  0.00    -0.195 C  
ENDROOT
BRANCH   4   5
HETATM    5  C   UNL     1      -9.451  10.421  69.105  1.00  0.00    -0.220 C  
BRANCH   5   6
HETATM    6  C   UNL     1     -10.410  10.683  67.898  1.00  0.00    -0.199 C  
HETATM    7  O   UNL     1     -11.343   9.546  67.835  1.00  0.00    -0.494 OA 
HETATM    8  P   UNL     1      -9.622  10.705  66.246  1.00  0.00    -0.203 P  
HETATM    9  P   UNL     1     -11.323  12.248  68.159  1.00  0.00    -0.345 P  
HETATM   10  H   UNL     1     -11.926   9.705  67.101  1.00  0.00     0.000 HD 
HETATM   11  O   UNL     1      -8.955  10.723  64.849  1.00  0.00    -0.192 OA 
HETATM   12  O   UNL     1      -9.258   9.105  66.497  1.00  0.00    -0.155 OA 
HETATM   13  O   UNL     1      -8.258  11.320  66.930  1.00  0.00    -0.141 OA 
HETATM   14  O   UNL     1     -12.446  11.427  69.047  1.00  0.00    -0.364 OA 
HETATM   15  O   UNL     1     -12.084  12.004  66.721  1.00  0.00    -0.613 OA 
HETATM   16  O   UNL     1     -12.094  13.573  68.379  1.00  0.00    -0.352 OA 
ENDBRANCH   5   6
ENDBRANCH   4   5
TORSDOF 2
ENDMDL
MODEL       66
REMARK 921   NORMALIZED FREE ENERGY PREDICTED BY IDOCK:   -3.87 KCAL/MOL
REMARK 922        TOTAL FREE ENERGY PREDICTED BY IDOCK:   -4.29 KCAL/MOL
REMARK 923 INTER-LIGAND FREE ENERGY PREDICTED BY IDOCK:   -3.72 KCAL/MOL
REMARK 924 INTRA-LIGAND FREE ENERGY PREDICTED BY IDOCK:   -0.57 KCAL/MOL
REMARK 927      BINDING AFFINITY PREDICTED BY RF-SCORE:    0.00 PKD
ROOT
HETATM    1  N   UNL     1      -9.521   5.514  70.681  1.00  0.00    -0.161 NA 
HETATM    2  H2  UNL     1      -8.644   5.970  70.934  1.00  0.00     0.000 HD 
HETATM    3  H1  UNL     1      -9.364   4.538  70.432  1.00  0.00     0.000 HD 
HETATM    4  C   UNL     1     -10.514   5.683  71.731  1.00  0.00    -0.228 C  
ENDROOT
BRANCH   4   5
HETATM    5  C   UNL     1     -10.749   7.151  72.107  1.00  0.00    -0.245 C  
BRANCH   5   6
HETATM    6  C   UNL     1     -11.661   8.003  71.162  1.00  0.00    -0.282 C  
HETATM    7  O   UNL     1     -12.113   7.112  70.081  1.00  0.00    -0.579 OA 
HETATM    8  P   UNL     1     -10.831   9.380  70.287  1.00  0.00    -0.294 P  
HETATM    9  P   UNL     1     -13.092   8.651  72.101  1.00  0.00    -0.370 P  
HETATM   10  H   UNL     1     -12.666   7.630  69.508  1.00  0.00     0.000 HD 
HETATM   11  O   UNL     1     -10.128  10.544  69.547  1.00  0.00    -0.222 OA 
HETATM   12  O   UNL     1      -9.929   8.224  69.508  1.00  0.00    -0.179 OA 
HETATM   13  O   UNL     1      -9.828   9.566  71.578  1.00  0.00    -0.183 OA 
HETATM   14  O   UNL     1     -13.896   7.237  71.822  1.00  0.00    -0.365 OA 
HETATM   15  O   UNL     1     -13.620   9.380  70.724  1.00  0.00    -0.089 OA 
HETATM   16  O   UNL     1     -14.302   9.200  72.895  1.00  0.00    -0.519 OA 
ENDBRANCH   5   6
ENDBRANCH   4   5
TORSDOF 2
ENDMDL
MODEL       67
REMARK 921   NORMALIZED FREE ENERGY PREDICTED BY IDOCK:   -3.87 KCAL/MOL
REMARK 922        TOTAL FREE ENERGY PREDICTED BY IDOCK:   -4.28 KCAL/MOL
REMARK 923 INTER-LIGAND FREE ENERGY PREDICTED BY IDOCK:   -3.70 KCAL/MOL
REMARK 924 INTRA-LIGAND FREE ENERGY PREDICTED BY IDOCK:   -0.58 KCAL/MOL
REMARK 927      BINDING AFFINITY PREDICTED BY RF-SCORE:    0.00 PKD
ROOT
HETATM    1  N   UNL     1     -11.624  13.236  69.683  1.00  0.00    -0.411 NA 
HETATM    2  H2  UNL     1     -12.489  13.600  69.285  1.00  0.00     0.000 HD 
HETATM    3  H1  UNL     1     -11.546  13.483  70.669  1.00  0.00     0.000 HD 
HETATM    4  C   UNL     1     -11.503  11.806  69.442  1.00  0.00    -0.307 C  
ENDROOT
BRANCH   4   5
HETATM    5  C   UNL     1     -11.620  11.435  67.959  1.00  0.00    -0.357 C  
BRANCH   5   6
HETATM    6  C   UNL     1     -10.343  11.592  67.069  1.00  0.00    -0.220 C  
HETATM    7  O   UNL     1      -9.296  12.182  67.920  1.00  0.00    -0.179 OA 
HETATM    8  P   UNL     1     -10.489  12.759  65.668  1.00  0.00    -0.285 P  
HETATM    9  P   UNL     1      -9.816   9.954  66.446  1.00  0.00    -0.249 P  
HETATM   10  H   UNL     1      -8.520  12.278  67.380  1.00  0.00     0.000 HD 
HETATM   11  O   UNL     1     -10.613  13.747  64.482  1.00  0.00    -0.423 OA 
HETATM   12  O   UNL     1     -10.686  13.957  66.801  1.00  0.00    -0.279 OA 
HETATM   13  O   UNL     1     -12.079  12.362  65.531  1.00  0.00    -0.495 OA 
HETATM   14  O   UNL     1      -8.976   9.709  67.846  1.00  0.00    -0.120 OA 
HETATM   15  O   UNL     1      -8.568  10.690  65.668  1.00  0.00    -0.173 OA 
HETATM   16  O   UNL     1      -9.370   8.568  65.919  1.00  0.00    -0.209 OA 
ENDBRANCH   5   6
ENDBRANCH   4   5
TORSDOF 2
ENDMDL
MODEL       68
REMARK 921   NORMALIZED FREE ENERGY PREDICTED BY IDOCK:   -3.87 KCAL/MOL
REMARK 922        TOTAL FREE ENERGY PREDICTED BY IDOCK:   -4.28 KCAL/MOL
REMARK 923 INTER-LIGAND FREE ENERGY PREDICTED BY IDOCK:   -3.71 KCAL/MOL
REMARK 924 INTRA-LIGAND FREE ENERGY PREDICTED BY IDOCK:   -0.58 KCAL/MOL
REMARK 927      BINDING AFFINITY PREDICTED BY RF-SCORE:    0.00 PKD
ROOT
HETATM    1  N   UNL     1      -5.661  17.507  68.382  1.00  0.00    -0.150 NA 
HETATM    2  H2  UNL     1      -5.516  16.548  68.067  1.00  0.00     0.000 HD 
HETATM    3  H1  UNL     1      -4.814  17.882  68.807  1.00  0.00     0.000 HD 
HETATM    4  C   UNL     1      -6.172  18.336  67.301  1.00  0.00    -0.168 C  
ENDROOT
BRANCH   4   5
HETATM    5  C   UNL     1      -7.446  17.772  66.661  1.00  0.00    -0.264 C  
BRANCH   5   6
HETATM    6  C   UNL     1      -8.802  18.024  67.401  1.00  0.00    -0.245 C  
HETATM    7  O   UNL     1      -8.476  18.654  68.692  1.00  0.00    -0.325 OA 
HETATM    8  P   UNL     1      -9.746  16.526  67.862  1.00  0.00    -0.244 P  
HETATM    9  P   UNL     1      -9.861  19.128  66.397  1.00  0.00    -0.398 P  
HETATM   10  H   UNL     1      -9.300  18.807  69.141  1.00  0.00     0.000 HD 
HETATM   11  O   UNL     1     -10.545  15.258  68.252  1.00  0.00    -0.236 OA 
HETATM   12  O   UNL     1      -8.479  16.143  68.865  1.00  0.00    -0.215 OA 
HETATM   13  O   UNL     1      -9.163  15.772  66.521  1.00  0.00    -0.233 OA 
HETATM   14  O   UNL     1      -9.101  20.435  67.059  1.00  0.00    -0.359 OA 
HETATM   15  O   UNL     1     -11.011  19.033  67.569  1.00  0.00    -0.443 OA 
HETATM   16  O   UNL     1     -10.757  20.062  65.546  1.00  0.00    -0.426 OA 
ENDBRANCH   5   6
ENDBRANCH   4   5
TORSDOF 2
ENDMDL
MODEL       69
REMARK 921   NORMALIZED FREE ENERGY PREDICTED BY IDOCK:   -3.86 KCAL/MOL
REMARK 922        TOTAL FREE ENERGY PREDICTED BY IDOCK:   -4.27 KCAL/MOL
REMARK 923 INTER-LIGAND FREE ENERGY PREDICTED BY IDOCK:   -4.14 KCAL/MOL
REMARK 924 INTRA-LIGAND FREE ENERGY PREDICTED BY IDOCK:   -0.14 KCAL/MOL
REMARK 927      BINDING AFFINITY PREDICTED BY RF-SCORE:    0.00 PKD
ROOT
HETATM    1  N   UNL     1      -7.619  13.458  68.925  1.00  0.00    -0.290 NA 
HETATM    2  H2  UNL     1      -7.608  12.441  68.849  1.00  0.00     0.000 HD 
HETATM    3  H1  UNL     1      -6.672  13.827  69.003  1.00  0.00     0.000 HD 
HETATM    4  C   UNL     1      -8.374  14.051  67.831  1.00  0.00    -0.168 C  
ENDROOT
BRANCH   4   5
HETATM    5  C   UNL     1      -9.798  13.496  67.713  1.00  0.00    -0.233 C  
BRANCH   5   6
HETATM    6  C   UNL     1     -10.261  12.980  66.311  1.00  0.00    -0.288 C  
HETATM    7  O   UNL     1      -9.349  13.566  65.314  1.00  0.00    -0.352 OA 
HETATM    8  P   UNL     1     -11.922  13.528  65.771  1.00  0.00    -0.459 P  
HETATM    9  P   UNL     1     -10.177  11.152  66.263  1.00  0.00    -0.252 P  
HETATM   10  H   UNL     1      -9.631  13.252  64.462  1.00  0.00     0.000 HD 
HETATM   11  O   UNL     1     -13.327  13.992  65.314  1.00  0.00    -0.741 OA 
HETATM   12  O   UNL     1     -11.313  15.073  65.766  1.00  0.00    -0.337 OA 
HETATM   13  O   UNL     1     -12.411  13.521  67.342  1.00  0.00    -0.278 OA 
HETATM   14  O   UNL     1      -8.582  11.253  65.849  1.00  0.00    -0.167 OA 
HETATM   15  O   UNL     1     -10.721  11.202  64.711  1.00  0.00    -0.314 OA 
HETATM   16  O   UNL     1     -10.105   9.606  66.223  1.00  0.00    -0.258 OA 
ENDBRANCH   5   6
ENDBRANCH   4   5
TORSDOF 2
ENDMDL
MODEL       70
REMARK 921   NORMALIZED FREE ENERGY PREDICTED BY IDOCK:   -3.82 KCAL/MOL
REMARK 922        TOTAL FREE ENERGY PREDICTED BY IDOCK:   -4.24 KCAL/MOL
REMARK 923 INTER-LIGAND FREE ENERGY PREDICTED BY IDOCK:   -3.70 KCAL/MOL
REMARK 924 INTRA-LIGAND FREE ENERGY PREDICTED BY IDOCK:   -0.54 KCAL/MOL
REMARK 927      BINDING AFFINITY PREDICTED BY RF-SCORE:    0.00 PKD
ROOT
HETATM    1  N   UNL     1     -10.746  15.195  66.911  1.00  0.00    -0.303 NA 
HETATM    2  H2  UNL     1     -10.656  14.958  65.923  1.00  0.00     0.000 HD 
HETATM    3  H1  UNL     1     -10.815  16.204  67.038  1.00  0.00     0.000 HD 
HETATM    4  C   UNL     1     -11.848  14.466  67.520  1.00  0.00    -0.386 C  
ENDROOT
BRANCH   4   5
HETATM    5  C   UNL     1     -11.745  12.949  67.330  1.00  0.00    -0.431 C  
BRANCH   5   6
HETATM    6  C   UNL     1     -10.836  12.153  68.325  1.00  0.00    -0.223 C  
HETATM    7  O   UNL     1     -10.081  13.147  69.106  1.00  0.00    -0.422 OA 
HETATM    8  P   UNL     1      -9.542  11.111  67.559  1.00  0.00    -0.171 P  
HETATM    9  P   UNL     1     -11.875  11.125  69.427  1.00  0.00    -0.347 P  
HETATM   10  H   UNL     1      -9.529  12.664  69.710  1.00  0.00     0.000 HD 
HETATM   11  O   UNL     1      -8.446  10.229  66.911  1.00  0.00    -0.125 OA 
HETATM   12  O   UNL     1      -8.868  12.518  66.992  1.00  0.00    -0.200 OA 
HETATM   13  O   UNL     1     -10.541  10.849  66.279  1.00  0.00    -0.252 OA 
HETATM   14  O   UNL     1     -12.069  12.423  70.429  1.00  0.00    -0.359 OA 
HETATM   15  O   UNL     1     -10.504  10.591  70.162  1.00  0.00    -0.207 OA 
HETATM   16  O   UNL     1     -12.754  10.256  70.358  1.00  0.00    -0.273 OA 
ENDBRANCH   5   6
ENDBRANCH   4   5
TORSDOF 2
ENDMDL
MODEL       71
REMARK 921   NORMALIZED FREE ENERGY PREDICTED BY IDOCK:   -3.81 KCAL/MOL
REMARK 922        TOTAL FREE ENERGY PREDICTED BY IDOCK:   -4.22 KCAL/MOL
REMARK 923 INTER-LIGAND FREE ENERGY PREDICTED BY IDOCK:   -3.63 KCAL/MOL
REMARK 924 INTRA-LIGAND FREE ENERGY PREDICTED BY IDOCK:   -0.59 KCAL/MOL
REMARK 927      BINDING AFFINITY PREDICTED BY RF-SCORE:    0.00 PKD
ROOT
HETATM    1  N   UNL     1      -9.767  12.146  68.731  1.00  0.00    -0.405 NA 
HETATM    2  H2  UNL     1      -9.034  12.663  69.218  1.00  0.00     0.000 HD 
HETATM    3  H1  UNL     1     -10.102  11.369  69.299  1.00  0.00     0.000 HD 
HETATM    4  C   UNL     1     -10.831  13.040  68.301  1.00  0.00    -0.246 C  
ENDROOT
BRANCH   4   5
HETATM    5  C   UNL     1     -10.327  14.209  67.447  1.00  0.00    -0.256 C  
BRANCH   5   6
HETATM    6  C   UNL     1      -9.498  15.326  68.164  1.00  0.00    -0.203 C  
HETATM    7  O   UNL     1      -9.637  15.102  69.613  1.00  0.00    -0.387 OA 
HETATM    8  P   UNL     1     -10.095  17.039  67.920  1.00  0.00    -0.338 P  
HETATM    9  P   UNL     1      -7.742  15.215  67.662  1.00  0.00    -0.199 P  
HETATM   10  H   UNL     1      -9.134  15.780  70.048  1.00  0.00     0.000 HD 
HETATM   11  O   UNL     1     -10.600  18.488  67.713  1.00  0.00    -0.406 OA 
HETATM   12  O   UNL     1     -11.470  16.581  68.728  1.00  0.00    -0.291 OA 
HETATM   13  O   UNL     1     -10.610  16.621  66.414  1.00  0.00    -0.284 OA 
HETATM   14  O   UNL     1      -7.493  14.085  68.840  1.00  0.00    -0.120 OA 
HETATM   15  O   UNL     1      -7.418  16.499  68.637  1.00  0.00    -0.178 OA 
HETATM   16  O   UNL     1      -6.256  15.120  67.237  1.00  0.00    -0.318 OA 
ENDBRANCH   5   6
ENDBRANCH   4   5
TORSDOF 2
ENDMDL
MODEL       72
REMARK 921   NORMALIZED FREE ENERGY PREDICTED BY IDOCK:   -3.80 KCAL/MOL
REMARK 922        TOTAL FREE ENERGY PREDICTED BY IDOCK:   -4.22 KCAL/MOL
REMARK 923 INTER-LIGAND FREE ENERGY PREDICTED BY IDOCK:   -3.89 KCAL/MOL
REMARK 924 INTRA-LIGAND FREE ENERGY PREDICTED BY IDOCK:   -0.33 KCAL/MOL
REMARK 927      BINDING AFFINITY PREDICTED BY RF-SCORE:    0.00 PKD
ROOT
HETATM    1  N   UNL     1      -6.114  15.333  67.230  1.00  0.00    -0.302 NA 
HETATM    2  H2  UNL     1      -6.040  14.760  66.389  1.00  0.00     0.000 HD 
HETATM    3  H1  UNL     1      -5.214  15.397  67.706  1.00  0.00     0.000 HD 
HETATM    4  C   UNL     1      -6.691  16.632  66.922  1.00  0.00    -0.212 C  
ENDROOT
BRANCH   4   5
HETATM    5  C   UNL     1      -8.043  16.535  66.206  1.00  0.00    -0.341 C  
BRANCH   5   6
HETATM    6  C   UNL     1      -9.316  16.311  67.088  1.00  0.00    -0.222 C  
HETATM    7  O   UNL     1      -8.865  15.696  68.347  1.00  0.00    -0.175 OA 
HETATM    8  P   UNL     1     -10.543  15.125  66.427  1.00  0.00    -0.318 P  
HETATM    9  P   UNL     1     -10.134  17.916  67.415  1.00  0.00    -0.372 P  
HETATM   10  H   UNL     1      -9.638  15.559  68.882  1.00  0.00     0.000 HD 
HETATM   11  O   UNL     1     -11.580  14.121  65.867  1.00  0.00    -0.331 OA 
HETATM   12  O   UNL     1      -9.375  13.958  66.600  1.00  0.00    -0.269 OA 
HETATM   13  O   UNL     1     -10.130  15.583  64.901  1.00  0.00    -0.351 OA 
HETATM   14  O   UNL     1      -9.122  18.153  68.698  1.00  0.00    -0.308 OA 
HETATM   15  O   UNL     1     -11.275  17.116  68.290  1.00  0.00    -0.229 OA 
HETATM   16  O   UNL     1     -10.827  19.273  67.692  1.00  0.00    -0.458 OA 
ENDBRANCH   5   6
ENDBRANCH   4   5
TORSDOF 2
ENDMDL
MODEL       73
REMARK 921   NORMALIZED FREE ENERGY PREDICTED BY IDOCK:   -3.76 KCAL/MOL
REMARK 922        TOTAL FREE ENERGY PREDICTED BY IDOCK:   -4.17 KCAL/MOL
REMARK 923 INTER-LIGAND FREE ENERGY PREDICTED BY IDOCK:   -3.90 KCAL/MOL
REMARK 924 INTRA-LIGAND FREE ENERGY PREDICTED BY IDOCK:   -0.27 KCAL/MOL
REMARK 927      BINDING AFFINITY PREDICTED BY RF-SCORE:    0.00 PKD
ROOT
HETATM    1  N   UNL     1      -9.101  19.873  66.148  1.00  0.00    -0.463 NA 
HETATM    2  H2  UNL     1      -9.915  20.225  65.644  1.00  0.00     0.000 HD 
HETATM    3  H1  UNL     1      -8.373  20.584  66.204  1.00  0.00     0.000 HD 
HETATM    4  C   UNL     1      -9.486  19.345  67.449  1.00  0.00    -0.316 C  
ENDROOT
BRANCH   4   5
HETATM    5  C   UNL     1     -10.581  18.276  67.365  1.00  0.00    -0.425 C  
BRANCH   5   6
HETATM    6  C   UNL     1     -10.175  16.796  67.672  1.00  0.00    -0.289 C  
HETATM    7  O   UNL     1      -8.811  16.831  68.226  1.00  0.00    -0.213 OA 
HETATM    8  P   UNL     1     -10.038  15.691  66.220  1.00  0.00    -0.348 P  
HETATM    9  P   UNL     1     -11.341  16.072  68.882  1.00  0.00    -0.330 P  
HETATM   10  H   UNL     1      -8.565  15.932  68.413  1.00  0.00     0.000 HD 
HETATM   11  O   UNL     1      -9.922  14.757  64.991  1.00  0.00    -0.333 OA 
HETATM   12  O   UNL     1      -8.784  16.655  65.716  1.00  0.00    -0.482 OA 
HETATM   13  O   UNL     1     -11.240  16.543  65.487  1.00  0.00    -0.014 OA 
HETATM   14  O   UNL     1     -10.444  16.716  70.109  1.00  0.00    -0.115 OA 
HETATM   15  O   UNL     1     -10.487  14.668  68.813  1.00  0.00    -0.233 OA 
HETATM   16  O   UNL     1     -12.328  15.459  69.906  1.00  0.00    -0.341 OA 
ENDBRANCH   5   6
ENDBRANCH   4   5
TORSDOF 2
ENDMDL
MODEL       74
REMARK 921   NORMALIZED FREE ENERGY PREDICTED BY IDOCK:   -3.74 KCAL/MOL
REMARK 922        TOTAL FREE ENERGY PREDICTED BY IDOCK:   -4.15 KCAL/MOL
REMARK 923 INTER-LIGAND FREE ENERGY PREDICTED BY IDOCK:   -3.59 KCAL/MOL
REMARK 924 INTRA-LIGAND FREE ENERGY PREDICTED BY IDOCK:   -0.55 KCAL/MOL
REMARK 927      BINDING AFFINITY PREDICTED BY RF-SCORE:    0.00 PKD
ROOT
HETATM    1  N   UNL     1      -6.858  13.002  66.982  1.00  0.00    -0.427 NA 
HETATM    2  H2  UNL     1      -6.889  13.054  65.964  1.00  0.00     0.000 HD 
HETATM    3  H1  UNL     1      -5.942  12.689  67.302  1.00  0.00     0.000 HD 
HETATM    4  C   UNL     1      -7.270  14.264  67.577  1.00  0.00    -0.176 C  
ENDROOT
BRANCH   4   5
HETATM    5  C   UNL     1      -8.648  14.735  67.096  1.00  0.00    -0.248 C  
BRANCH   5   6
HETATM    6  C   UNL     1      -9.908  14.104  67.776  1.00  0.00    -0.231 C  
HETATM    7  O   UNL     1      -9.432  12.994  68.617  1.00  0.00    -0.380 OA 
HETATM    8  P   UNL     1     -11.114  13.321  66.644  1.00  0.00    -0.307 P  
HETATM    9  P   UNL     1     -10.758  15.364  68.796  1.00  0.00    -0.270 P  
HETATM   10  H   UNL     1     -10.197  12.610  69.030  1.00  0.00     0.000 HD 
HETATM   11  O   UNL     1     -12.134  12.658  65.687  1.00  0.00    -0.438 OA 
HETATM   12  O   UNL     1      -9.920  12.230  66.270  1.00  0.00    -0.222 OA 
HETATM   13  O   UNL     1     -10.724  14.432  65.496  1.00  0.00    -0.303 OA 
HETATM   14  O   UNL     1      -9.740  15.015  70.048  1.00  0.00    -0.039 OA 
HETATM   15  O   UNL     1     -11.873  14.227  69.208  1.00  0.00    -0.291 OA 
HETATM   16  O   UNL     1     -11.477  16.430  69.659  1.00  0.00    -0.260 OA 
ENDBRANCH   5   6
ENDBRANCH   4   5
TORSDOF 2
ENDMDL
MODEL       75
REMARK 921   NORMALIZED FREE ENERGY PREDICTED BY IDOCK:   -3.74 KCAL/MOL
REMARK 922        TOTAL FREE ENERGY PREDICTED BY IDOCK:   -4.14 KCAL/MOL
REMARK 923 INTER-LIGAND FREE ENERGY PREDICTED BY IDOCK:   -4.02 KCAL/MOL
REMARK 924 INTRA-LIGAND FREE ENERGY PREDICTED BY IDOCK:   -0.13 KCAL/MOL
REMARK 927      BINDING AFFINITY PREDICTED BY RF-SCORE:    0.00 PKD
ROOT
HETATM    1  N   UNL     1     -12.006  12.098  66.227  1.00  0.00    -0.613 NA 
HETATM    2  H2  UNL     1     -12.799  12.383  65.653  1.00  0.00     0.000 HD 
HETATM    3  H1  UNL     1     -11.624  11.210  65.903  1.00  0.00     0.000 HD 
HETATM    4  C   UNL     1     -11.010  13.156  66.298  1.00  0.00    -0.280 C  
ENDROOT
BRANCH   4   5
HETATM    5  C   UNL     1     -11.585  14.491  66.785  1.00  0.00    -0.388 C  
BRANCH   5   6
HETATM    6  C   UNL     1     -10.609  15.482  67.502  1.00  0.00    -0.297 C  
HETATM    7  O   UNL     1      -9.291  14.827  67.552  1.00  0.00    -0.189 OA 
HETATM    8  P   UNL     1     -10.992  15.846  69.255  1.00  0.00    -0.351 P  
HETATM    9  P   UNL     1     -10.513  17.049  66.561  1.00  0.00    -0.130 P  
HETATM   10  H   UNL     1      -8.699  15.429  67.988  1.00  0.00     0.000 HD 
HETATM   11  O   UNL     1     -11.316  16.153  70.737  1.00  0.00    -0.385 OA 
HETATM   12  O   UNL     1     -10.689  14.243  69.561  1.00  0.00    -0.183 OA 
HETATM   13  O   UNL     1     -12.593  15.676  68.917  1.00  0.00     0.118 OA 
HETATM   14  O   UNL     1      -9.346  16.382  65.601  1.00  0.00    -0.476 OA 
HETATM   15  O   UNL     1      -9.454  17.618  67.684  1.00  0.00    -0.253 OA 
HETATM   16  O   UNL     1     -10.431  18.374  65.765  1.00  0.00    -0.594 OA 
ENDBRANCH   5   6
ENDBRANCH   4   5
TORSDOF 2
ENDMDL
MODEL       76
REMARK 921   NORMALIZED FREE ENERGY PREDICTED BY IDOCK:   -3.73 KCAL/MOL
REMARK 922        TOTAL FREE ENERGY PREDICTED BY IDOCK:   -4.13 KCAL/MOL
REMARK 923 INTER-LIGAND FREE ENERGY PREDICTED BY IDOCK:   -3.97 KCAL/MOL
REMARK 924 INTRA-LIGAND FREE ENERGY PREDICTED BY IDOCK:   -0.17 KCAL/MOL
REMARK 927      BINDING AFFINITY PREDICTED BY RF-SCORE:    0.00 PKD
ROOT
HETATM    1  N   UNL     1      -7.520  14.538  68.558  1.00  0.00    -0.115 NA 
HETATM    2  H2  UNL     1      -7.831  14.086  67.699  1.00  0.00     0.000 HD 
HETATM    3  H1  UNL     1      -6.585  14.928  68.445  1.00  0.00     0.000 HD 
HETATM    4  C   UNL     1      -8.496  15.517  69.011  1.00  0.00    -0.229 C  
ENDROOT
BRANCH   4   5
HETATM    5  C   UNL     1      -9.902  14.931  69.181  1.00  0.00    -0.200 C  
BRANCH   5   6
HETATM    6  C   UNL     1     -10.845  14.936  67.933  1.00  0.00    -0.276 C  
HETATM    7  O   UNL     1     -12.121  15.535  68.359  1.00  0.00    -0.520 OA 
HETATM    8  P   UNL     1     -11.319  13.290  67.288  1.00  0.00    -0.351 P  
HETATM    9  P   UNL     1     -10.090  15.923  66.589  1.00  0.00    -0.305 P  
HETATM   10  H   UNL     1     -12.693  15.538  67.601  1.00  0.00     0.000 HD 
HETATM   11  O   UNL     1     -11.720  11.897  66.743  1.00  0.00    -0.548 OA 
HETATM   12  O   UNL     1     -12.098  13.047  68.734  1.00  0.00    -0.293 OA 
HETATM   13  O   UNL     1      -9.855  12.708  67.760  1.00  0.00    -0.201 OA 
HETATM   14  O   UNL     1     -10.736  17.290  67.251  1.00  0.00    -0.310 OA 
HETATM   15  O   UNL     1     -11.403  15.592  65.655  1.00  0.00    -0.212 OA 
HETATM   16  O   UNL     1      -9.451  16.757  65.452  1.00  0.00    -0.408 OA 
ENDBRANCH   5   6
ENDBRANCH   4   5
TORSDOF 2
ENDMDL
MODEL       77
REMARK 921   NORMALIZED FREE ENERGY PREDICTED BY IDOCK:   -3.71 KCAL/MOL
REMARK 922        TOTAL FREE ENERGY PREDICTED BY IDOCK:   -4.11 KCAL/MOL
REMARK 923 INTER-LIGAND FREE ENERGY PREDICTED BY IDOCK:   -3.55 KCAL/MOL
REMARK 924 INTRA-LIGAND FREE ENERGY PREDICTED BY IDOCK:   -0.56 KCAL/MOL
REMARK 927      BINDING AFFINITY PREDICTED BY RF-SCORE:    0.00 PKD
ROOT
HETATM    1  N   UNL     1      -8.238   7.123  71.114  1.00  0.00    -0.111 NA 
HETATM    2  H2  UNL     1      -8.774   6.290  71.354  1.00  0.00     0.000 HD 
HETATM    3  H1  UNL     1      -7.237   6.933  71.148  1.00  0.00     0.000 HD 
HETATM    4  C   UNL     1      -8.673   7.671  69.838  1.00  0.00    -0.139 C  
ENDROOT
BRANCH   4   5
HETATM    5  C   UNL     1     -10.178   7.956  69.787  1.00  0.00    -0.212 C  
BRANCH   5   6
HETATM    6  C   UNL     1     -10.681   9.303  70.405  1.00  0.00    -0.251 C  
HETATM    7  O   UNL     1      -9.527   9.928  71.072  1.00  0.00    -0.286 OA 
HETATM    8  P   UNL     1     -11.933   9.150  71.731  1.00  0.00    -0.375 P  
HETATM    9  P   UNL     1     -11.324  10.391  69.081  1.00  0.00    -0.160 P  
HETATM   10  H   UNL     1      -9.832  10.746  71.448  1.00  0.00     0.000 HD 
HETATM   11  O   UNL     1     -12.992   9.021  72.853  1.00  0.00    -0.328 OA 
HETATM   12  O   UNL     1     -10.764   8.381  72.625  1.00  0.00    -0.339 OA 
HETATM   13  O   UNL     1     -12.522   7.805  70.990  1.00  0.00    -0.258 OA 
HETATM   14  O   UNL     1      -9.790  10.935  68.805  1.00  0.00    -0.184 OA 
HETATM   15  O   UNL     1     -11.664  11.524  70.225  1.00  0.00    -0.327 OA 
HETATM   16  O   UNL     1     -11.868  11.311  67.961  1.00  0.00    -0.578 OA 
ENDBRANCH   5   6
ENDBRANCH   4   5
TORSDOF 2
ENDMDL
MODEL       78
REMARK 921   NORMALIZED FREE ENERGY PREDICTED BY IDOCK:   -3.70 KCAL/MOL
REMARK 922        TOTAL FREE ENERGY PREDICTED BY IDOCK:   -4.10 KCAL/MOL
REMARK 923 INTER-LIGAND FREE ENERGY PREDICTED BY IDOCK:   -3.97 KCAL/MOL
REMARK 924 INTRA-LIGAND FREE ENERGY PREDICTED BY IDOCK:   -0.13 KCAL/MOL
REMARK 927      BINDING AFFINITY PREDICTED BY RF-SCORE:    0.00 PKD
ROOT
HETATM    1  N   UNL     1      -7.011  12.951  66.956  1.00  0.00    -0.390 NA 
HETATM    2  H2  UNL     1      -7.274  12.211  66.306  1.00  0.00     0.000 HD 
HETATM    3  H1  UNL     1      -6.161  13.421  66.648  1.00  0.00     0.000 HD 
HETATM    4  C   UNL     1      -8.121  13.865  67.177  1.00  0.00    -0.083 C  
ENDROOT
BRANCH   4   5
HETATM    5  C   UNL     1      -9.400  13.158  67.641  1.00  0.00    -0.205 C  
BRANCH   5   6
HETATM    6  C   UNL     1     -10.761  13.891  67.399  1.00  0.00    -0.272 C  
HETATM    7  O   UNL     1     -10.442  15.272  67.001  1.00  0.00    -0.279 OA 
HETATM    8  P   UNL     1     -11.831  14.086  68.871  1.00  0.00    -0.341 P  
HETATM    9  P   UNL     1     -11.696  13.041  66.074  1.00  0.00    -0.433 P  
HETATM   10  H   UNL     1     -11.269  15.717  66.855  1.00  0.00     0.000 HD 
HETATM   11  O   UNL     1     -12.736  14.252  70.116  1.00  0.00    -0.331 OA 
HETATM   12  O   UNL     1     -10.637  15.052  69.501  1.00  0.00    -0.247 OA 
HETATM   13  O   UNL     1     -11.252  12.661  69.454  1.00  0.00    -0.219 OA 
HETATM   14  O   UNL     1     -10.868  13.920  64.948  1.00  0.00    -0.358 OA 
HETATM   15  O   UNL     1     -12.896  14.152  66.256  1.00  0.00    -0.311 OA 
HETATM   16  O   UNL     1     -12.486  12.322  64.954  1.00  0.00    -0.500 OA 
ENDBRANCH   5   6
ENDBRANCH   4   5
TORSDOF 2
ENDMDL
MODEL       79
REMARK 921   NORMALIZED FREE ENERGY PREDICTED BY IDOCK:   -3.70 KCAL/MOL
REMARK 922        TOTAL FREE ENERGY PREDICTED BY IDOCK:   -4.09 KCAL/MOL
REMARK 923 INTER-LIGAND FREE ENERGY PREDICTED BY IDOCK:   -4.01 KCAL/MOL
REMARK 924 INTRA-LIGAND FREE ENERGY PREDICTED BY IDOCK:   -0.08 KCAL/MOL
REMARK 927      BINDING AFFINITY PREDICTED BY RF-SCORE:    0.00 PKD
ROOT
HETATM    1  N   UNL     1     -10.412  16.262  65.108  1.00  0.00    -0.632 NA 
HETATM    2  H2  UNL     1      -9.713  16.332  64.369  1.00  0.00     0.000 HD 
HETATM    3  H1  UNL     1     -10.951  17.124  65.181  1.00  0.00     0.000 HD 
HETATM    4  C   UNL     1     -11.244  15.082  64.924  1.00  0.00    -0.416 C  
ENDROOT
BRANCH   4   5
HETATM    5  C   UNL     1     -10.434  13.786  64.813  1.00  0.00    -0.448 C  
BRANCH   5   6
HETATM    6  C   UNL     1     -10.122  13.011  66.136  1.00  0.00    -0.285 C  
HETATM    7  O   UNL     1      -8.765  13.402  66.553  1.00  0.00    -0.440 OA 
HETATM    8  P   UNL     1     -10.035  11.189  65.989  1.00  0.00    -0.258 P  
HETATM    9  P   UNL     1     -11.343  13.462  67.422  1.00  0.00    -0.346 P  
HETATM   10  H   UNL     1      -8.575  12.931  67.357  1.00  0.00     0.000 HD 
HETATM   11  O   UNL     1      -9.962   9.647  65.864  1.00  0.00    -0.285 OA 
HETATM   12  O   UNL     1      -8.720  11.420  65.003  1.00  0.00     0.037 OA 
HETATM   13  O   UNL     1     -11.175  11.253  64.804  1.00  0.00    -0.196 OA 
HETATM   14  O   UNL     1     -10.423  14.775  67.815  1.00  0.00    -0.250 OA 
HETATM   15  O   UNL     1     -10.574  12.444  68.460  1.00  0.00    -0.223 OA 
HETATM   16  O   UNL     1     -12.377  13.843  68.510  1.00  0.00    -0.272 OA 
ENDBRANCH   5   6
ENDBRANCH   4   5
TORSDOF 2
ENDMDL
MODEL       80
REMARK 921   NORMALIZED FREE ENERGY PREDICTED BY IDOCK:   -3.69 KCAL/MOL
REMARK 922        TOTAL FREE ENERGY PREDICTED BY IDOCK:   -4.08 KCAL/MOL
REMARK 923 INTER-LIGAND FREE ENERGY PREDICTED BY IDOCK:   -3.48 KCAL/MOL
REMARK 924 INTRA-LIGAND FREE ENERGY PREDICTED BY IDOCK:   -0.60 KCAL/MOL
REMARK 927      BINDING AFFINITY PREDICTED BY RF-SCORE:    0.00 PKD
ROOT
HETATM    1  N   UNL     1     -11.889  11.509  68.064  1.00  0.00    -0.601 NA 
HETATM    2  H2  UNL     1     -11.661  11.639  69.049  1.00  0.00     0.000 HD 
HETATM    3  H1  UNL     1     -11.986  12.407  67.592  1.00  0.00     0.000 HD 
HETATM    4  C   UNL     1     -10.927  10.627  67.421  1.00  0.00    -0.298 C  
ENDROOT
BRANCH   4   5
HETATM    5  C   UNL     1     -10.780   9.276  68.131  1.00  0.00    -0.205 C  
BRANCH   5   6
HETATM    6  C   UNL     1     -10.059   9.262  69.520  1.00  0.00    -0.198 C  
HETATM    7  O   UNL     1      -9.477  10.600  69.716  1.00  0.00    -0.415 OA 
HETATM    8  P   UNL     1      -8.629   8.128  69.661  1.00  0.00    -0.132 P  
HETATM    9  P   UNL     1     -11.267   8.887  70.843  1.00  0.00    -0.311 P  
HETATM   10  H   UNL     1      -9.038  10.591  70.559  1.00  0.00     0.000 HD 
HETATM   11  O   UNL     1      -7.419   7.169  69.780  1.00  0.00    -0.092 OA 
HETATM   12  O   UNL     1      -7.885   9.067  68.512  1.00  0.00    -0.099 OA 
HETATM   13  O   UNL     1      -9.371   7.098  68.614  1.00  0.00    -0.136 OA 
HETATM   14  O   UNL     1     -11.663  10.488  70.914  1.00  0.00    -0.338 OA 
HETATM   15  O   UNL     1     -10.047   9.001  71.941  1.00  0.00    -0.339 OA 
HETATM   16  O   UNL     1     -12.289   8.570  71.962  1.00  0.00    -0.320 OA 
ENDBRANCH   5   6
ENDBRANCH   4   5
TORSDOF 2
ENDMDL
MODEL       81
REMARK 921   NORMALIZED FREE ENERGY PREDICTED BY IDOCK:   -3.68 KCAL/MOL
REMARK 922        TOTAL FREE ENERGY PREDICTED BY IDOCK:   -4.08 KCAL/MOL
REMARK 923 INTER-LIGAND FREE ENERGY PREDICTED BY IDOCK:   -3.95 KCAL/MOL
REMARK 924 INTRA-LIGAND FREE ENERGY PREDICTED BY IDOCK:   -0.13 KCAL/MOL
REMARK 927      BINDING AFFINITY PREDICTED BY RF-SCORE:    0.00 PKD
ROOT
HETATM    1  N   UNL     1     -11.693  12.124  66.903  1.00  0.00    -0.552 NA 
HETATM    2  H2  UNL     1     -11.611  11.372  67.587  1.00  0.00     0.000 HD 
HETATM    3  H1  UNL     1     -12.345  11.872  66.161  1.00  0.00     0.000 HD 
HETATM    4  C   UNL     1     -12.027  13.382  67.554  1.00  0.00    -0.339 C  
ENDROOT
BRANCH   4   5
HETATM    5  C   UNL     1     -11.047  13.761  68.670  1.00  0.00    -0.293 C  
BRANCH   5   6
HETATM    6  C   UNL     1     -11.179  15.189  69.296  1.00  0.00    -0.278 C  
HETATM    7  O   UNL     1     -12.226  15.896  68.540  1.00  0.00    -0.438 OA 
HETATM    8  P   UNL     1      -9.709  16.267  69.135  1.00  0.00    -0.218 P  
HETATM    9  P   UNL     1     -11.644  15.052  71.061  1.00  0.00    -0.293 P  
HETATM   10  H   UNL     1     -12.307  16.763  68.920  1.00  0.00     0.000 HD 
HETATM   11  O   UNL     1      -8.465  17.179  68.998  1.00  0.00    -0.221 OA 
HETATM   12  O   UNL     1      -9.959  16.213  67.495  1.00  0.00    -0.236 OA 
HETATM   13  O   UNL     1      -8.749  14.934  69.226  1.00  0.00    -0.172 OA 
HETATM   14  O   UNL     1     -13.232  14.951  70.619  1.00  0.00    -0.353 OA 
HETATM   15  O   UNL     1     -11.635  16.694  71.156  1.00  0.00    -0.219 OA 
HETATM   16  O   UNL     1     -12.037  14.935  72.554  1.00  0.00    -0.336 OA 
ENDBRANCH   5   6
ENDBRANCH   4   5
TORSDOF 2
ENDMDL
MODEL       82
REMARK 921   NORMALIZED FREE ENERGY PREDICTED BY IDOCK:   -3.66 KCAL/MOL
REMARK 922        TOTAL FREE ENERGY PREDICTED BY IDOCK:   -4.05 KCAL/MOL
REMARK 923 INTER-LIGAND FREE ENERGY PREDICTED BY IDOCK:   -3.49 KCAL/MOL
REMARK 924 INTRA-LIGAND FREE ENERGY PREDICTED BY IDOCK:   -0.56 KCAL/MOL
REMARK 927      BINDING AFFINITY PREDICTED BY RF-SCORE:    0.00 PKD
ROOT
HETATM    1  N   UNL     1      -8.631   7.612  66.959  1.00  0.00    -0.120 NA 
HETATM    2  H2  UNL     1      -9.042   7.283  67.832  1.00  0.00     0.000 HD 
HETATM    3  H1  UNL     1      -8.663   6.884  66.245  1.00  0.00     0.000 HD 
HETATM    4  C   UNL     1      -9.252   8.857  66.532  1.00  0.00    -0.183 C  
ENDROOT
BRANCH   4   5
HETATM    5  C   UNL     1      -9.206   9.951  67.605  1.00  0.00    -0.146 C  
BRANCH   5   6
HETATM    6  C   UNL     1     -10.255   9.876  68.763  1.00  0.00    -0.189 C  
HETATM    7  O   UNL     1     -11.251   8.863  68.376  1.00  0.00    -0.412 OA 
HETATM    8  P   UNL     1     -11.244  11.391  69.039  1.00  0.00    -0.308 P  
HETATM    9  P   UNL     1      -9.424   9.397  70.322  1.00  0.00    -0.257 P  
HETATM   10  H   UNL     1     -11.888   8.818  69.080  1.00  0.00     0.000 HD 
HETATM   11  O   UNL     1     -12.081  12.673  69.272  1.00  0.00    -0.259 OA 
HETATM   12  O   UNL     1     -11.878  11.146  67.524  1.00  0.00    -0.591 OA 
HETATM   13  O   UNL     1      -9.954  12.293  68.563  1.00  0.00    -0.213 OA 
HETATM   14  O   UNL     1      -9.578   7.809  69.898  1.00  0.00    -0.164 OA 
HETATM   15  O   UNL     1     -10.882   9.475  71.081  1.00  0.00    -0.315 OA 
HETATM   16  O   UNL     1      -8.722   8.993  71.641  1.00  0.00    -0.331 OA 
ENDBRANCH   5   6
ENDBRANCH   4   5
TORSDOF 2
ENDMDL
MODEL       83
REMARK 921   NORMALIZED FREE ENERGY PREDICTED BY IDOCK:   -3.64 KCAL/MOL
REMARK 922        TOTAL FREE ENERGY PREDICTED BY IDOCK:   -4.03 KCAL/MOL
REMARK 923 INTER-LIGAND FREE ENERGY PREDICTED BY IDOCK:   -3.83 KCAL/MOL
REMARK 924 INTRA-LIGAND FREE ENERGY PREDICTED BY IDOCK:   -0.20 KCAL/MOL
REMARK 927      BINDING AFFINITY PREDICTED BY RF-SCORE:    0.00 PKD
ROOT
HETATM    1  N   UNL     1     -10.473  16.316  65.242  1.00  0.00    -0.604 NA 
HETATM    2  H2  UNL     1     -10.265  16.883  66.063  1.00  0.00     0.000 HD 
HETATM    3  H1  UNL     1     -10.071  16.731  64.402  1.00  0.00     0.000 HD 
HETATM    4  C   UNL     1     -10.065  14.935  65.449  1.00  0.00    -0.367 C  
ENDROOT
BRANCH   4   5
HETATM    5  C   UNL     1     -10.669  14.312  66.712  1.00  0.00    -0.287 C  
BRANCH   5   6
HETATM    6  C   UNL     1      -9.858  14.441  68.044  1.00  0.00    -0.221 C  
HETATM    7  O   UNL     1      -9.904  13.127  68.706  1.00  0.00    -0.399 OA 
HETATM    8  P   UNL     1     -10.552  15.591  69.288  1.00  0.00    -0.278 P  
HETATM    9  P   UNL     1      -8.129  14.914  67.674  1.00  0.00    -0.197 P  
HETATM   10  H   UNL     1      -9.412  13.206  69.515  1.00  0.00     0.000 HD 
HETATM   11  O   UNL     1     -11.139  16.563  70.340  1.00  0.00    -0.333 OA 
HETATM   12  O   UNL     1     -11.856  14.567  69.377  1.00  0.00    -0.290 OA 
HETATM   13  O   UNL     1     -11.129  16.529  68.067  1.00  0.00    -0.345 OA 
HETATM   14  O   UNL     1      -7.759  13.321  67.446  1.00  0.00    -0.161 OA 
HETATM   15  O   UNL     1      -7.815  14.895  69.289  1.00  0.00    -0.168 OA 
HETATM   16  O   UNL     1      -6.667  15.314  67.361  1.00  0.00    -0.182 OA 
ENDBRANCH   5   6
ENDBRANCH   4   5
TORSDOF 2
ENDMDL
MODEL       84
REMARK 921   NORMALIZED FREE ENERGY PREDICTED BY IDOCK:   -3.62 KCAL/MOL
REMARK 922        TOTAL FREE ENERGY PREDICTED BY IDOCK:   -4.01 KCAL/MOL
REMARK 923 INTER-LIGAND FREE ENERGY PREDICTED BY IDOCK:   -3.97 KCAL/MOL
REMARK 924 INTRA-LIGAND FREE ENERGY PREDICTED BY IDOCK:   -0.03 KCAL/MOL
REMARK 927      BINDING AFFINITY PREDICTED BY RF-SCORE:    0.00 PKD
ROOT
HETATM    1  N   UNL     1     -10.040  15.702  64.937  1.00  0.00    -0.432 NA 
HETATM    2  H2  UNL     1      -9.361  14.946  64.848  1.00  0.00     0.000 HD 
HETATM    3  H1  UNL     1     -10.990  15.354  64.811  1.00  0.00     0.000 HD 
HETATM    4  C   UNL     1      -9.856  16.419  66.190  1.00  0.00    -0.338 C  
ENDROOT
BRANCH   4   5
HETATM    5  C   UNL     1      -8.427  16.942  66.380  1.00  0.00    -0.325 C  
BRANCH   5   6
HETATM    6  C   UNL     1      -8.251  18.454  66.742  1.00  0.00    -0.253 C  
HETATM    7  O   UNL     1      -7.537  19.085  65.620  1.00  0.00    -0.474 OA 
HETATM    8  P   UNL     1      -7.196  18.805  68.196  1.00  0.00    -0.268 P  
HETATM    9  P   UNL     1      -9.892  19.230  66.978  1.00  0.00    -0.400 P  
HETATM   10  H   UNL     1      -7.430  20.003  65.841  1.00  0.00     0.000 HD 
HETATM   11  O   UNL     1      -6.304  19.101  69.426  1.00  0.00    -0.278 OA 
HETATM   12  O   UNL     1      -5.938  18.158  67.328  1.00  0.00    -0.145 OA 
HETATM   13  O   UNL     1      -7.703  17.395  68.876  1.00  0.00    -0.257 OA 
HETATM   14  O   UNL     1      -9.984  19.492  65.350  1.00  0.00    -0.237 OA 
HETATM   15  O   UNL     1      -9.133  20.654  67.300  1.00  0.00    -0.367 OA 
HETATM   16  O   UNL     1     -11.280  19.887  67.177  1.00  0.00    -0.198 OA 
ENDBRANCH   5   6
ENDBRANCH   4   5
TORSDOF 2
ENDMDL
MODEL       85
REMARK 921   NORMALIZED FREE ENERGY PREDICTED BY IDOCK:   -3.61 KCAL/MOL
REMARK 922        TOTAL FREE ENERGY PREDICTED BY IDOCK:   -4.00 KCAL/MOL
REMARK 923 INTER-LIGAND FREE ENERGY PREDICTED BY IDOCK:   -3.43 KCAL/MOL
REMARK 924 INTRA-LIGAND FREE ENERGY PREDICTED BY IDOCK:   -0.57 KCAL/MOL
REMARK 927      BINDING AFFINITY PREDICTED BY RF-SCORE:    0.00 PKD
ROOT
HETATM    1  N   UNL     1     -10.941   8.262  67.695  1.00  0.00    -0.489 NA 
HETATM    2  H2  UNL     1     -10.890   9.265  67.871  1.00  0.00     0.000 HD 
HETATM    3  H1  UNL     1     -10.958   8.069  66.694  1.00  0.00     0.000 HD 
HETATM    4  C   UNL     1      -9.876   7.559  68.394  1.00  0.00    -0.164 C  
ENDROOT
BRANCH   4   5
HETATM    5  C   UNL     1      -9.849   7.849  69.899  1.00  0.00    -0.182 C  
BRANCH   5   6
HETATM    6  C   UNL     1     -10.964   7.198  70.782  1.00  0.00    -0.252 C  
HETATM    7  O   UNL     1     -11.936   6.582  69.864  1.00  0.00    -0.611 OA 
HETATM    8  P   UNL     1     -11.967   8.359  71.780  1.00  0.00    -0.377 P  
HETATM    9  P   UNL     1     -10.225   5.932  71.879  1.00  0.00    -0.216 P  
HETATM   10  H   UNL     1     -12.613   6.186  70.401  1.00  0.00     0.000 HD 
HETATM   11  O   UNL     1     -12.816   9.341  72.623  1.00  0.00    -0.334 OA 
HETATM   12  O   UNL     1     -12.511   8.984  70.342  1.00  0.00     0.158 OA 
HETATM   13  O   UNL     1     -10.651   9.335  71.927  1.00  0.00    -0.324 OA 
HETATM   14  O   UNL     1     -10.354   4.824  70.662  1.00  0.00    -0.208 OA 
HETATM   15  O   UNL     1     -11.724   5.636  72.489  1.00  0.00    -0.297 OA 
HETATM   16  O   UNL     1      -9.600   4.862  72.807  1.00  0.00    -0.137 OA 
ENDBRANCH   5   6
ENDBRANCH   4   5
TORSDOF 2
ENDMDL
MODEL       86
REMARK 921   NORMALIZED FREE ENERGY PREDICTED BY IDOCK:   -3.61 KCAL/MOL
REMARK 922        TOTAL FREE ENERGY PREDICTED BY IDOCK:   -4.00 KCAL/MOL
REMARK 923 INTER-LIGAND FREE ENERGY PREDICTED BY IDOCK:   -3.43 KCAL/MOL
REMARK 924 INTRA-LIGAND FREE ENERGY PREDICTED BY IDOCK:   -0.57 KCAL/MOL
REMARK 927      BINDING AFFINITY PREDICTED BY RF-SCORE:    0.00 PKD
ROOT
HETATM    1  N   UNL     1     -11.284   7.119  67.341  1.00  0.00    -0.585 NA 
HETATM    2  H2  UNL     1     -11.013   8.003  67.772  1.00  0.00     0.000 HD 
HETATM    3  H1  UNL     1     -11.079   7.124  66.342  1.00  0.00     0.000 HD 
HETATM    4  C   UNL     1     -10.683   5.995  68.042  1.00  0.00    -0.282 C  
ENDROOT
BRANCH   4   5
HETATM    5  C   UNL     1     -10.991   5.988  69.544  1.00  0.00    -0.467 C  
BRANCH   5   6
HETATM    6  C   UNL     1     -10.186   6.975  70.453  1.00  0.00    -0.196 C  
HETATM    7  O   UNL     1      -9.076   7.500  69.641  1.00  0.00    -0.141 OA 
HETATM    8  P   UNL     1      -9.360   6.224  71.904  1.00  0.00    -0.146 P  
HETATM    9  P   UNL     1     -11.276   8.336  71.008  1.00  0.00    -0.265 P  
HETATM   10  H   UNL     1      -8.587   8.099  70.194  1.00  0.00     0.000 HD 
HETATM   11  O   UNL     1      -8.662   5.589  73.131  1.00  0.00    -0.121 OA 
HETATM   12  O   UNL     1      -8.430   5.375  70.823  1.00  0.00    -0.116 OA 
HETATM   13  O   UNL     1     -10.583   5.128  72.005  1.00  0.00    -0.218 OA 
HETATM   14  O   UNL     1     -10.950   9.148  69.608  1.00  0.00    -0.226 OA 
HETATM   15  O   UNL     1     -10.003   8.973  71.833  1.00  0.00    -0.332 OA 
HETATM   16  O   UNL     1     -12.198   9.488  71.478  1.00  0.00    -0.336 OA 
ENDBRANCH   5   6
ENDBRANCH   4   5
TORSDOF 2
ENDMDL
MODEL       87
REMARK 921   NORMALIZED FREE ENERGY PREDICTED BY IDOCK:   -3.61 KCAL/MOL
REMARK 922        TOTAL FREE ENERGY PREDICTED BY IDOCK:   -4.00 KCAL/MOL
REMARK 923 INTER-LIGAND FREE ENERGY PREDICTED BY IDOCK:   -3.46 KCAL/MOL
REMARK 924 INTRA-LIGAND FREE ENERGY PREDICTED BY IDOCK:   -0.54 KCAL/MOL
REMARK 927      BINDING AFFINITY PREDICTED BY RF-SCORE:    0.00 PKD
ROOT
HETATM    1  N   UNL     1     -10.485   7.227  66.551  1.00  0.00    -0.503 NA 
HETATM    2  H2  UNL     1      -9.510   7.092  66.285  1.00  0.00     0.000 HD 
HETATM    3  H1  UNL     1     -11.101   7.110  65.746  1.00  0.00     0.000 HD 
HETATM    4  C   UNL     1     -10.840   6.369  67.671  1.00  0.00    -0.339 C  
ENDROOT
BRANCH   4   5
HETATM    5  C   UNL     1      -9.915   6.544  68.880  1.00  0.00    -0.165 C  
BRANCH   5   6
HETATM    6  C   UNL     1     -10.275   7.664  69.912  1.00  0.00    -0.215 C  
HETATM    7  O   UNL     1     -11.410   8.416  69.352  1.00  0.00    -0.429 OA 
HETATM    8  P   UNL     1      -8.989   8.936  70.187  1.00  0.00    -0.205 P  
HETATM    9  P   UNL     1     -10.735   6.906  71.514  1.00  0.00    -0.230 P  
HETATM   10  H   UNL     1     -11.629   9.096  69.979  1.00  0.00     0.000 HD 
HETATM   11  O   UNL     1      -7.901  10.013  70.418  1.00  0.00    -0.216 OA 
HETATM   12  O   UNL     1      -9.207   9.372  68.600  1.00  0.00    -0.131 OA 
HETATM   13  O   UNL     1      -7.835   7.796  69.914  1.00  0.00    -0.100 OA 
HETATM   14  O   UNL     1     -12.282   6.725  70.966  1.00  0.00    -0.377 OA 
HETATM   15  O   UNL     1     -10.982   8.416  72.118  1.00  0.00    -0.293 OA 
HETATM   16  O   UNL     1     -11.124   6.265  72.868  1.00  0.00    -0.254 OA 
ENDBRANCH   5   6
ENDBRANCH   4   5
TORSDOF 2
ENDMDL
MODEL       88
REMARK 921   NORMALIZED FREE ENERGY PREDICTED BY IDOCK:   -3.61 KCAL/MOL
REMARK 922        TOTAL FREE ENERGY PREDICTED BY IDOCK:   -4.00 KCAL/MOL
REMARK 923 INTER-LIGAND FREE ENERGY PREDICTED BY IDOCK:   -3.43 KCAL/MOL
REMARK 924 INTRA-LIGAND FREE ENERGY PREDICTED BY IDOCK:   -0.56 KCAL/MOL
REMARK 927      BINDING AFFINITY PREDICTED BY RF-SCORE:    0.00 PKD
ROOT
HETATM    1  N   UNL     1     -11.074   6.927  66.869  1.00  0.00    -0.630 NA 
HETATM    2  H2  UNL     1     -12.063   7.085  67.058  1.00  0.00     0.000 HD 
HETATM    3  H1  UNL     1     -10.935   6.595  65.915  1.00  0.00     0.000 HD 
HETATM    4  C   UNL     1     -10.291   8.113  67.181  1.00  0.00    -0.321 C  
ENDROOT
BRANCH   4   5
HETATM    5  C   UNL     1     -10.499   8.612  68.615  1.00  0.00    -0.208 C  
BRANCH   5   6
HETATM    6  C   UNL     1      -9.851   7.782  69.773  1.00  0.00    -0.178 C  
HETATM    7  O   UNL     1      -9.340   6.537  69.176  1.00  0.00    -0.134 OA 
HETATM    8  P   UNL     1     -10.997   7.212  71.080  1.00  0.00    -0.264 P  
HETATM    9  P   UNL     1      -8.487   8.738  70.531  1.00  0.00    -0.204 P  
HETATM   10  H   UNL     1      -8.946   6.033  69.879  1.00  0.00     0.000 HD 
HETATM   11  O   UNL     1     -11.967   6.729  72.187  1.00  0.00    -0.299 OA 
HETATM   12  O   UNL     1     -11.734   6.294  69.910  1.00  0.00    -0.408 OA 
HETATM   13  O   UNL     1     -11.897   8.570  70.853  1.00  0.00    -0.281 OA 
HETATM   14  O   UNL     1      -7.462   8.169  69.368  1.00  0.00    -0.087 OA 
HETATM   15  O   UNL     1      -8.228   7.483  71.563  1.00  0.00    -0.101 OA 
HETATM   16  O   UNL     1      -7.333   9.546  71.173  1.00  0.00    -0.318 OA 
ENDBRANCH   5   6
ENDBRANCH   4   5
TORSDOF 2
ENDMDL
MODEL       89
REMARK 921   NORMALIZED FREE ENERGY PREDICTED BY IDOCK:   -3.61 KCAL/MOL
REMARK 922        TOTAL FREE ENERGY PREDICTED BY IDOCK:   -3.99 KCAL/MOL
REMARK 923 INTER-LIGAND FREE ENERGY PREDICTED BY IDOCK:   -3.84 KCAL/MOL
REMARK 924 INTRA-LIGAND FREE ENERGY PREDICTED BY IDOCK:   -0.16 KCAL/MOL
REMARK 927      BINDING AFFINITY PREDICTED BY RF-SCORE:    0.00 PKD
ROOT
HETATM    1  N   UNL     1      -7.672  13.033  68.777  1.00  0.00    -0.293 NA 
HETATM    2  H2  UNL     1      -7.308  12.300  68.169  1.00  0.00     0.000 HD 
HETATM    3  H1  UNL     1      -6.978  13.768  68.916  1.00  0.00     0.000 HD 
HETATM    4  C   UNL     1      -8.943  13.536  68.278  1.00  0.00    -0.180 C  
ENDROOT
BRANCH   4   5
HETATM    5  C   UNL     1      -9.986  12.432  68.069  1.00  0.00    -0.207 C  
BRANCH   5   6
HETATM    6  C   UNL     1     -10.664  12.333  66.662  1.00  0.00    -0.245 C  
HETATM    7  O   UNL     1     -12.092  12.062  66.891  1.00  0.00    -0.608 OA 
HETATM    8  P   UNL     1     -10.109  10.943  65.609  1.00  0.00    -0.268 P  
HETATM    9  P   UNL     1     -10.446  13.909  65.757  1.00  0.00    -0.330 P  
HETATM   10  H   UNL     1     -12.504  12.002  66.036  1.00  0.00     0.000 HD 
HETATM   11  O   UNL     1      -9.640   9.767  64.718  1.00  0.00    -0.293 OA 
HETATM   12  O   UNL     1     -10.759   9.932  66.754  1.00  0.00    -0.176 OA 
HETATM   13  O   UNL     1      -8.613  11.058  66.282  1.00  0.00    -0.159 OA 
HETATM   14  O   UNL     1     -11.787  14.509  66.510  1.00  0.00    -0.383 OA 
HETATM   15  O   UNL     1     -11.280  13.259  64.496  1.00  0.00    -0.332 OA 
HETATM   16  O   UNL     1     -10.262  15.242  64.990  1.00  0.00    -0.365 OA 
ENDBRANCH   5   6
ENDBRANCH   4   5
TORSDOF 2
ENDMDL
MODEL       90
REMARK 921   NORMALIZED FREE ENERGY PREDICTED BY IDOCK:   -3.60 KCAL/MOL
REMARK 922        TOTAL FREE ENERGY PREDICTED BY IDOCK:   -3.99 KCAL/MOL
REMARK 923 INTER-LIGAND FREE ENERGY PREDICTED BY IDOCK:   -3.95 KCAL/MOL
REMARK 924 INTRA-LIGAND FREE ENERGY PREDICTED BY IDOCK:   -0.04 KCAL/MOL
REMARK 927      BINDING AFFINITY PREDICTED BY RF-SCORE:    0.00 PKD
ROOT
HETATM    1  N   UNL     1      -8.716  17.160  66.018  1.00  0.00    -0.524 NA 
HETATM    2  H2  UNL     1      -8.369  17.372  66.953  1.00  0.00     0.000 HD 
HETATM    3  H1  UNL     1      -7.952  17.128  65.344  1.00  0.00     0.000 HD 
HETATM    4  C   UNL     1      -9.520  15.948  66.027  1.00  0.00    -0.354 C  
ENDROOT
BRANCH   4   5
HETATM    5  C   UNL     1     -10.670  15.996  67.040  1.00  0.00    -0.277 C  
BRANCH   5   6
HETATM    6  C   UNL     1     -10.948  14.706  67.883  1.00  0.00    -0.277 C  
HETATM    7  O   UNL     1     -12.305  14.252  67.539  1.00  0.00    -0.600 OA 
HETATM    8  P   UNL     1     -11.001  14.939  69.697  1.00  0.00    -0.239 P  
HETATM    9  P   UNL     1      -9.716  13.418  67.469  1.00  0.00    -0.239 P  
HETATM   10  H   UNL     1     -12.474  13.470  68.052  1.00  0.00     0.000 HD 
HETATM   11  O   UNL     1     -11.046  15.136  71.232  1.00  0.00    -0.316 OA 
HETATM   12  O   UNL     1     -12.335  15.894  69.446  1.00  0.00    -0.209 OA 
HETATM   13  O   UNL     1      -9.881  16.136  69.554  1.00  0.00    -0.246 OA 
HETATM   14  O   UNL     1     -10.655  12.950  66.195  1.00  0.00    -0.266 OA 
HETATM   15  O   UNL     1     -10.449  12.419  68.550  1.00  0.00    -0.226 OA 
HETATM   16  O   UNL     1      -8.673  12.328  67.119  1.00  0.00    -0.179 OA 
ENDBRANCH   5   6
ENDBRANCH   4   5
TORSDOF 2
ENDMDL
MODEL       91
REMARK 921   NORMALIZED FREE ENERGY PREDICTED BY IDOCK:   -3.60 KCAL/MOL
REMARK 922        TOTAL FREE ENERGY PREDICTED BY IDOCK:   -3.98 KCAL/MOL
REMARK 923 INTER-LIGAND FREE ENERGY PREDICTED BY IDOCK:   -3.72 KCAL/MOL
REMARK 924 INTRA-LIGAND FREE ENERGY PREDICTED BY IDOCK:   -0.27 KCAL/MOL
REMARK 927      BINDING AFFINITY PREDICTED BY RF-SCORE:    0.00 PKD
ROOT
HETATM    1  N   UNL     1      -9.762  10.452  69.927  1.00  0.00    -0.418 NA 
HETATM    2  H2  UNL     1      -8.955   9.835  70.012  1.00  0.00     0.000 HD 
HETATM    3  H1  UNL     1      -9.841  10.819  68.979  1.00  0.00     0.000 HD 
HETATM    4  C   UNL     1     -10.973   9.788  70.385  1.00  0.00    -0.312 C  
ENDROOT
BRANCH   4   5
HETATM    5  C   UNL     1     -10.855   9.236  71.810  1.00  0.00    -0.358 C  
BRANCH   5   6
HETATM    6  C   UNL     1     -10.658   7.692  71.975  1.00  0.00    -0.220 C  
HETATM    7  O   UNL     1     -11.556   7.257  73.058  1.00  0.00    -0.561 OA 
HETATM    8  P   UNL     1      -8.998   7.159  72.531  1.00  0.00    -0.130 P  
HETATM    9  P   UNL     1     -11.080   6.842  70.410  1.00  0.00    -0.334 P  
HETATM   10  H   UNL     1     -11.435   6.320  73.158  1.00  0.00     0.000 HD 
HETATM   11  O   UNL     1      -7.594   6.707  73.002  1.00  0.00    -0.091 OA 
HETATM   12  O   UNL     1      -9.311   7.965  73.948  1.00  0.00    -0.249 OA 
HETATM   13  O   UNL     1      -8.342   8.435  71.727  1.00  0.00    -0.134 OA 
HETATM   14  O   UNL     1     -12.666   6.824  70.866  1.00  0.00    -0.301 OA 
HETATM   15  O   UNL     1     -10.716   5.409  71.132  1.00  0.00    -0.231 OA 
HETATM   16  O   UNL     1     -11.436   6.123  69.086  1.00  0.00    -0.379 OA 
ENDBRANCH   5   6
ENDBRANCH   4   5
TORSDOF 2
ENDMDL
MODEL       92
REMARK 921   NORMALIZED FREE ENERGY PREDICTED BY IDOCK:   -3.59 KCAL/MOL
REMARK 922        TOTAL FREE ENERGY PREDICTED BY IDOCK:   -3.97 KCAL/MOL
REMARK 923 INTER-LIGAND FREE ENERGY PREDICTED BY IDOCK:   -3.51 KCAL/MOL
REMARK 924 INTRA-LIGAND FREE ENERGY PREDICTED BY IDOCK:   -0.46 KCAL/MOL
REMARK 927      BINDING AFFINITY PREDICTED BY RF-SCORE:    0.00 PKD
ROOT
HETATM    1  N   UNL     1     -11.170   6.227  66.531  1.00  0.00    -0.719 NA 
HETATM    2  H2  UNL     1     -10.902   7.162  66.224  1.00  0.00     0.000 HD 
HETATM    3  H1  UNL     1     -10.955   5.533  65.816  1.00  0.00     0.000 HD 
HETATM    4  C   UNL     1     -10.580   5.918  67.824  1.00  0.00    -0.259 C  
ENDROOT
BRANCH   4   5
HETATM    5  C   UNL     1     -10.904   6.962  68.899  1.00  0.00    -0.247 C  
BRANCH   5   6
HETATM    6  C   UNL     1      -9.983   8.224  68.985  1.00  0.00    -0.189 C  
HETATM    7  O   UNL     1      -8.758   7.914  68.230  1.00  0.00    -0.130 OA 
HETATM    8  P   UNL     1      -9.379   8.654  70.658  1.00  0.00    -0.218 P  
HETATM    9  P   UNL     1     -10.839   9.667  68.256  1.00  0.00    -0.067 P  
HETATM   10  H   UNL     1      -8.198   8.681  68.282  1.00  0.00     0.000 HD 
HETATM   11  O   UNL     1      -8.867   9.018  72.074  1.00  0.00    -0.373 OA 
HETATM   12  O   UNL     1      -8.561   7.209  70.638  1.00  0.00    -0.140 OA 
HETATM   13  O   UNL     1     -10.781   8.071  71.291  1.00  0.00    -0.224 OA 
HETATM   14  O   UNL     1     -10.304   9.211  66.762  1.00  0.00    -0.258 OA 
HETATM   15  O   UNL     1      -9.516  10.582  68.600  1.00  0.00    -0.156 OA 
HETATM   16  O   UNL     1     -11.564  10.889  67.639  1.00  0.00    -0.531 OA 
ENDBRANCH   5   6
ENDBRANCH   4   5
TORSDOF 2
ENDMDL
MODEL       93
REMARK 921   NORMALIZED FREE ENERGY PREDICTED BY IDOCK:   -3.58 KCAL/MOL
REMARK 922        TOTAL FREE ENERGY PREDICTED BY IDOCK:   -3.97 KCAL/MOL
REMARK 923 INTER-LIGAND FREE ENERGY PREDICTED BY IDOCK:   -3.37 KCAL/MOL
REMARK 924 INTRA-LIGAND FREE ENERGY PREDICTED BY IDOCK:   -0.59 KCAL/MOL
REMARK 927      BINDING AFFINITY PREDICTED BY RF-SCORE:    0.00 PKD
ROOT
HETATM    1  N   UNL     1     -11.694   9.026  71.639  1.00  0.00    -0.335 NA 
HETATM    2  H2  UNL     1     -10.807   8.725  71.235  1.00  0.00     0.000 HD 
HETATM    3  H1  UNL     1     -11.677   8.944  72.655  1.00  0.00     0.000 HD 
HETATM    4  C   UNL     1     -12.045  10.361  71.180  1.00  0.00    -0.386 C  
ENDROOT
BRANCH   4   5
HETATM    5  C   UNL     1     -12.071  10.485  69.652  1.00  0.00    -0.241 C  
BRANCH   5   6
HETATM    6  C   UNL     1     -10.699  10.468  68.900  1.00  0.00    -0.220 C  
HETATM    7  O   UNL     1      -9.647  10.594  69.922  1.00  0.00    -0.399 OA 
HETATM    8  P   UNL     1     -10.394  11.875  67.771  1.00  0.00    -0.211 P  
HETATM    9  P   UNL     1     -10.515   8.896  67.981  1.00  0.00    -0.129 P  
HETATM   10  H   UNL     1      -8.813  10.584  69.466  1.00  0.00     0.000 HD 
HETATM   11  O   UNL     1     -10.136  13.065  66.815  1.00  0.00    -0.238 OA 
HETATM   12  O   UNL     1     -10.425  12.847  69.116  1.00  0.00    -0.055 OA 
HETATM   13  O   UNL     1     -12.006  11.939  67.451  1.00  0.00    -0.603 OA 
HETATM   14  O   UNL     1      -9.928   8.182  69.349  1.00  0.00    -0.180 OA 
HETATM   15  O   UNL     1      -9.044   9.414  67.458  1.00  0.00    -0.124 OA 
HETATM   16  O   UNL     1     -10.360   7.567  67.202  1.00  0.00    -0.252 OA 
ENDBRANCH   5   6
ENDBRANCH   4   5
TORSDOF 2
ENDMDL
MODEL       94
REMARK 921   NORMALIZED FREE ENERGY PREDICTED BY IDOCK:   -3.58 KCAL/MOL
REMARK 922        TOTAL FREE ENERGY PREDICTED BY IDOCK:   -3.96 KCAL/MOL
REMARK 923 INTER-LIGAND FREE ENERGY PREDICTED BY IDOCK:   -3.62 KCAL/MOL
REMARK 924 INTRA-LIGAND FREE ENERGY PREDICTED BY IDOCK:   -0.34 KCAL/MOL
REMARK 927      BINDING AFFINITY PREDICTED BY RF-SCORE:    0.00 PKD
ROOT
HETATM    1  N   UNL     1      -8.045  20.339  65.243  1.00  0.00    -0.362 NA 
HETATM    2  H2  UNL     1      -8.641  20.998  65.743  1.00  0.00     0.000 HD 
HETATM    3  H1  UNL     1      -7.581  20.792  64.456  1.00  0.00     0.000 HD 
HETATM    4  C   UNL     1      -7.117  19.687  66.154  1.00  0.00    -0.264 C  
ENDROOT
BRANCH   4   5
HETATM    5  C   UNL     1      -7.813  19.005  67.337  1.00  0.00    -0.263 C  
BRANCH   5   6
HETATM    6  C   UNL     1      -8.250  17.513  67.160  1.00  0.00    -0.212 C  
HETATM    7  O   UNL     1      -8.312  17.252  65.712  1.00  0.00    -0.535 OA 
HETATM    8  P   UNL     1      -9.929  17.100  67.760  1.00  0.00    -0.317 P  
HETATM    9  P   UNL     1      -7.027  16.410  67.960  1.00  0.00    -0.155 P  
HETATM   10  H   UNL     1      -8.577  16.346  65.605  1.00  0.00     0.000 HD 
HETATM   11  O   UNL     1     -11.349  16.750  68.267  1.00  0.00    -0.274 OA 
HETATM   12  O   UNL     1     -10.503  18.125  66.588  1.00  0.00    -0.362 OA 
HETATM   13  O   UNL     1      -9.762  18.233  68.940  1.00  0.00    -0.335 OA 
HETATM   14  O   UNL     1      -6.116  16.448  66.584  1.00  0.00    -0.306 OA 
HETATM   15  O   UNL     1      -7.933  15.121  67.486  1.00  0.00    -0.144 OA 
HETATM   16  O   UNL     1      -5.993  15.478  68.636  1.00  0.00    -0.094 OA 
ENDBRANCH   5   6
ENDBRANCH   4   5
TORSDOF 2
ENDMDL
MODEL       95
REMARK 921   NORMALIZED FREE ENERGY PREDICTED BY IDOCK:   -3.57 KCAL/MOL
REMARK 922        TOTAL FREE ENERGY PREDICTED BY IDOCK:   -3.95 KCAL/MOL
REMARK 923 INTER-LIGAND FREE ENERGY PREDICTED BY IDOCK:   -3.70 KCAL/MOL
REMARK 924 INTRA-LIGAND FREE ENERGY PREDICTED BY IDOCK:   -0.26 KCAL/MOL
REMARK 927      BINDING AFFINITY PREDICTED BY RF-SCORE:    0.00 PKD
ROOT
HETATM    1  N   UNL     1     -11.016   7.137  66.862  1.00  0.00    -0.602 NA 
HETATM    2  H2  UNL     1     -11.750   7.112  67.569  1.00  0.00     0.000 HD 
HETATM    3  H1  UNL     1     -11.415   7.185  65.925  1.00  0.00     0.000 HD 
HETATM    4  C   UNL     1     -10.069   8.207  67.135  1.00  0.00    -0.264 C  
ENDROOT
BRANCH   4   5
HETATM    5  C   UNL     1      -9.468   8.134  68.544  1.00  0.00    -0.144 C  
BRANCH   5   6
HETATM    6  C   UNL     1     -10.112   9.030  69.653  1.00  0.00    -0.197 C  
HETATM    7  O   UNL     1      -9.010   9.722  70.341  1.00  0.00    -0.309 OA 
HETATM    8  P   UNL     1     -10.982   8.136  70.993  1.00  0.00    -0.256 P  
HETATM    9  P   UNL     1     -11.252  10.241  68.888  1.00  0.00    -0.123 P  
HETATM   10  H   UNL     1      -9.401  10.266  71.015  1.00  0.00     0.000 HD 
HETATM   11  O   UNL     1     -11.717   7.379  72.126  1.00  0.00    -0.277 OA 
HETATM   12  O   UNL     1      -9.506   7.494  71.401  1.00  0.00    -0.149 OA 
HETATM   13  O   UNL     1     -11.403   6.970  69.911  1.00  0.00    -0.266 OA 
HETATM   14  O   UNL     1      -9.975  11.252  68.623  1.00  0.00    -0.196 OA 
HETATM   15  O   UNL     1     -11.579  10.829  70.390  1.00  0.00    -0.304 OA 
HETATM   16  O   UNL     1     -12.217  11.264  68.241  1.00  0.00    -0.611 OA 
ENDBRANCH   5   6
ENDBRANCH   4   5
TORSDOF 2
ENDMDL
MODEL       96
REMARK 921   NORMALIZED FREE ENERGY PREDICTED BY IDOCK:   -3.57 KCAL/MOL
REMARK 922        TOTAL FREE ENERGY PREDICTED BY IDOCK:   -3.95 KCAL/MOL
REMARK 923 INTER-LIGAND FREE ENERGY PREDICTED BY IDOCK:   -3.40 KCAL/MOL
REMARK 924 INTRA-LIGAND FREE ENERGY PREDICTED BY IDOCK:   -0.55 KCAL/MOL
REMARK 927      BINDING AFFINITY PREDICTED BY RF-SCORE:    0.00 PKD
ROOT
HETATM    1  N   UNL     1      -8.012  10.245  70.346  1.00  0.00    -0.407 NA 
HETATM    2  H2  UNL     1      -8.321  10.750  71.176  1.00  0.00     0.000 HD 
HETATM    3  H1  UNL     1      -7.287  10.766  69.853  1.00  0.00     0.000 HD 
HETATM    4  C   UNL     1      -7.610   8.889  70.684  1.00  0.00    -0.099 C  
ENDROOT
BRANCH   4   5
HETATM    5  C   UNL     1      -8.700   8.106  71.425  1.00  0.00    -0.179 C  
BRANCH   5   6
HETATM    6  C   UNL     1      -9.990   7.725  70.625  1.00  0.00    -0.186 C  
HETATM    7  O   UNL     1      -9.913   8.420  69.329  1.00  0.00    -0.185 OA 
HETATM    8  P   UNL     1     -11.571   8.300  71.346  1.00  0.00    -0.304 P  
HETATM    9  P   UNL     1     -10.055   5.913  70.379  1.00  0.00    -0.232 P  
HETATM   10  H   UNL     1     -10.697   8.189  68.843  1.00  0.00     0.000 HD 
HETATM   11  O   UNL     1     -12.909   8.786  71.955  1.00  0.00    -0.341 OA 
HETATM   12  O   UNL     1     -11.030   9.846  71.077  1.00  0.00    -0.335 OA 
HETATM   13  O   UNL     1     -10.923   8.129  72.848  1.00  0.00    -0.364 OA 
HETATM   14  O   UNL     1      -9.107   6.077  69.037  1.00  0.00    -0.123 OA 
HETATM   15  O   UNL     1     -11.472   6.109  69.567  1.00  0.00    -0.429 OA 
HETATM   16  O   UNL     1     -10.110   4.379  70.171  1.00  0.00    -0.217 OA 
ENDBRANCH   5   6
ENDBRANCH   4   5
TORSDOF 2
ENDMDL
MODEL       97
REMARK 921   NORMALIZED FREE ENERGY PREDICTED BY IDOCK:   -3.57 KCAL/MOL
REMARK 922        TOTAL FREE ENERGY PREDICTED BY IDOCK:   -3.95 KCAL/MOL
REMARK 923 INTER-LIGAND FREE ENERGY PREDICTED BY IDOCK:   -3.44 KCAL/MOL
REMARK 924 INTRA-LIGAND FREE ENERGY PREDICTED BY IDOCK:   -0.52 KCAL/MOL
REMARK 927      BINDING AFFINITY PREDICTED BY RF-SCORE:    0.00 PKD
ROOT
HETATM    1  N   UNL     1     -12.361   5.618  72.654  1.00  0.00    -0.425 NA 
HETATM    2  H2  UNL     1     -12.339   6.144  71.780  1.00  0.00     0.000 HD 
HETATM    3  H1  UNL     1     -12.823   4.718  72.525  1.00  0.00     0.000 HD 
HETATM    4  C   UNL     1     -11.026   5.499  73.220  1.00  0.00    -0.292 C  
ENDROOT
BRANCH   4   5
HETATM    5  C   UNL     1     -10.332   6.851  73.414  1.00  0.00    -0.337 C  
BRANCH   5   6
HETATM    6  C   UNL     1      -9.905   7.638  72.130  1.00  0.00    -0.178 C  
HETATM    7  O   UNL     1      -9.920   6.678  71.014  1.00  0.00    -0.183 OA 
HETATM    8  P   UNL     1      -8.197   8.294  72.131  1.00  0.00    -0.136 P  
HETATM    9  P   UNL     1     -11.083   9.003  71.819  1.00  0.00    -0.294 P  
HETATM   10  H   UNL     1      -9.660   7.156  70.234  1.00  0.00     0.000 HD 
HETATM   11  O   UNL     1      -6.751   8.849  72.132  1.00  0.00    -0.228 OA 
HETATM   12  O   UNL     1      -7.685   6.715  72.169  1.00  0.00    -0.095 OA 
HETATM   13  O   UNL     1      -8.301   8.500  73.760  1.00  0.00    -0.362 OA 
HETATM   14  O   UNL     1     -12.066   7.951  71.012  1.00  0.00    -0.298 OA 
HETATM   15  O   UNL     1     -10.204   9.412  70.490  1.00  0.00    -0.231 OA 
HETATM   16  O   UNL     1     -12.079  10.159  71.556  1.00  0.00    -0.377 OA 
ENDBRANCH   5   6
ENDBRANCH   4   5
TORSDOF 2
ENDMDL
MODEL       98
REMARK 921   NORMALIZED FREE ENERGY PREDICTED BY IDOCK:   -3.51 KCAL/MOL
REMARK 922        TOTAL FREE ENERGY PREDICTED BY IDOCK:   -3.89 KCAL/MOL
REMARK 923 INTER-LIGAND FREE ENERGY PREDICTED BY IDOCK:   -3.77 KCAL/MOL
REMARK 924 INTRA-LIGAND FREE ENERGY PREDICTED BY IDOCK:   -0.12 KCAL/MOL
REMARK 927      BINDING AFFINITY PREDICTED BY RF-SCORE:    0.00 PKD
ROOT
HETATM    1  N   UNL     1      -6.988  14.235  70.208  1.00  0.00    -0.397 NA 
HETATM    2  H2  UNL     1      -6.517  13.585  69.579  1.00  0.00     0.000 HD 
HETATM    3  H1  UNL     1      -6.425  14.408  71.040  1.00  0.00     0.000 HD 
HETATM    4  C   UNL     1      -7.361  15.455  69.507  1.00  0.00    -0.209 C  
ENDROOT
BRANCH   4   5
HETATM    5  C   UNL     1      -8.207  15.195  68.255  1.00  0.00    -0.144 C  
BRANCH   5   6
HETATM    6  C   UNL     1      -9.507  16.046  68.070  1.00  0.00    -0.207 C  
HETATM    7  O   UNL     1      -9.877  16.561  69.399  1.00  0.00    -0.234 OA 
HETATM    8  P   UNL     1     -10.989  15.122  67.522  1.00  0.00    -0.315 P  
HETATM    9  P   UNL     1      -9.185  17.426  66.913  1.00  0.00    -0.273 P  
HETATM   10  H   UNL     1     -10.667  17.077  69.286  1.00  0.00     0.000 HD 
HETATM   11  O   UNL     1     -12.243  14.342  67.058  1.00  0.00    -0.424 OA 
HETATM   12  O   UNL     1     -10.905  14.306  68.964  1.00  0.00    -0.247 OA 
HETATM   13  O   UNL     1     -10.015  14.107  66.670  1.00  0.00    -0.261 OA 
HETATM   14  O   UNL     1      -8.613  18.328  68.171  1.00  0.00    -0.263 OA 
HETATM   15  O   UNL     1     -10.748  17.905  67.104  1.00  0.00    -0.331 OA 
HETATM   16  O   UNL     1      -8.913  18.594  65.933  1.00  0.00    -0.470 OA 
ENDBRANCH   5   6
ENDBRANCH   4   5
TORSDOF 2
ENDMDL
MODEL       99
REMARK 921   NORMALIZED FREE ENERGY PREDICTED BY IDOCK:   -3.51 KCAL/MOL
REMARK 922        TOTAL FREE ENERGY PREDICTED BY IDOCK:   -3.89 KCAL/MOL
REMARK 923 INTER-LIGAND FREE ENERGY PREDICTED BY IDOCK:   -3.29 KCAL/MOL
REMARK 924 INTRA-LIGAND FREE ENERGY PREDICTED BY IDOCK:   -0.60 KCAL/MOL
REMARK 927      BINDING AFFINITY PREDICTED BY RF-SCORE:    0.00 PKD
ROOT
HETATM    1  N   UNL     1     -11.404  14.367  70.378  1.00  0.00    -0.475 NA 
HETATM    2  H2  UNL     1     -10.782  13.580  70.191  1.00  0.00     0.000 HD 
HETATM    3  H1  UNL     1     -11.721  14.358  71.347  1.00  0.00     0.000 HD 
HETATM    4  C   UNL     1     -10.779  15.623  69.993  1.00  0.00    -0.335 C  
ENDROOT
BRANCH   4   5
HETATM    5  C   UNL     1     -10.302  15.637  68.537  1.00  0.00    -0.219 C  
BRANCH   5   6
HETATM    6  C   UNL     1      -9.061  14.756  68.172  1.00  0.00    -0.180 C  
HETATM    7  O   UNL     1      -8.497  14.262  69.439  1.00  0.00    -0.358 OA 
HETATM    8  P   UNL     1      -7.668  15.636  67.376  1.00  0.00    -0.223 P  
HETATM    9  P   UNL     1      -9.584  13.357  67.113  1.00  0.00    -0.256 P  
HETATM   10  H   UNL     1      -7.743  13.727  69.217  1.00  0.00     0.000 HD 
HETATM   11  O   UNL     1      -6.489  16.380  66.702  1.00  0.00    -0.277 OA 
HETATM   12  O   UNL     1      -7.511  16.486  68.793  1.00  0.00    -0.190 OA 
HETATM   13  O   UNL     1      -8.747  16.652  66.662  1.00  0.00    -0.203 OA 
HETATM   14  O   UNL     1      -9.967  12.495  68.468  1.00  0.00    -0.219 OA 
HETATM   15  O   UNL     1      -8.019  12.851  67.070  1.00  0.00    -0.131 OA 
HETATM   16  O   UNL     1     -10.026  12.174  66.218  1.00  0.00    -0.219 OA 
ENDBRANCH   5   6
ENDBRANCH   4   5
TORSDOF 2
ENDMDL
MODEL      100
REMARK 921   NORMALIZED FREE ENERGY PREDICTED BY IDOCK:   -3.49 KCAL/MOL
REMARK 922        TOTAL FREE ENERGY PREDICTED BY IDOCK:   -3.86 KCAL/MOL
REMARK 923 INTER-LIGAND FREE ENERGY PREDICTED BY IDOCK:   -3.67 KCAL/MOL
REMARK 924 INTRA-LIGAND FREE ENERGY PREDICTED BY IDOCK:   -0.20 KCAL/MOL
REMARK 927      BINDING AFFINITY PREDICTED BY RF-SCORE:    0.00 PKD
ROOT
HETATM    1  N   UNL     1      -5.762  16.042  67.024  1.00  0.00    -0.326 NA 
HETATM    2  H2  UNL     1      -6.353  15.434  66.458  1.00  0.00     0.000 HD 
HETATM    3  H1  UNL     1      -4.907  15.561  67.303  1.00  0.00     0.000 HD 
HETATM    4  C   UNL     1      -5.511  17.302  66.343  1.00  0.00    -0.162 C  
ENDROOT
BRANCH   4   5
HETATM    5  C   UNL     1      -6.796  18.026  65.924  1.00  0.00    -0.332 C  
BRANCH   5   6
HETATM    6  C   UNL     1      -7.744  18.536  67.060  1.00  0.00    -0.225 C  
HETATM    7  O   UNL     1      -8.300  17.345  67.723  1.00  0.00    -0.211 OA 
HETATM    8  P   UNL     1      -9.218  19.468  66.505  1.00  0.00    -0.389 P  
HETATM    9  P   UNL     1      -6.794  19.550  68.251  1.00  0.00    -0.306 P  
HETATM   10  H   UNL     1      -8.876  17.655  68.412  1.00  0.00     0.000 HD 
HETATM   11  O   UNL     1     -10.466  20.256  66.036  1.00  0.00    -0.363 OA 
HETATM   12  O   UNL     1      -9.720  18.065  65.773  1.00  0.00    -0.521 OA 
HETATM   13  O   UNL     1      -8.348  20.045  65.234  1.00  0.00    -0.075 OA 
HETATM   14  O   UNL     1      -6.356  18.173  69.050  1.00  0.00    -0.224 OA 
HETATM   15  O   UNL     1      -8.178  19.771  69.113  1.00  0.00    -0.221 OA 
HETATM   16  O   UNL     1      -5.991  20.407  69.259  1.00  0.00    -0.309 OA 
ENDBRANCH   5   6
ENDBRANCH   4   5
TORSDOF 2
ENDMDL
MODEL      101
REMARK 921   NORMALIZED FREE ENERGY PREDICTED BY IDOCK:   -3.49 KCAL/MOL
REMARK 922        TOTAL FREE ENERGY PREDICTED BY IDOCK:   -3.86 KCAL/MOL
REMARK 923 INTER-LIGAND FREE ENERGY PREDICTED BY IDOCK:   -3.85 KCAL/MOL
REMARK 924 INTRA-LIGAND FREE ENERGY PREDICTED BY IDOCK:   -0.01 KCAL/MOL
REMARK 927      BINDING AFFINITY PREDICTED BY RF-SCORE:    0.00 PKD
ROOT
HETATM    1  N   UNL     1     -10.606  14.956  69.683  1.00  0.00    -0.356 NA 
HETATM    2  H2  UNL     1      -9.805  14.334  69.786  1.00  0.00     0.000 HD 
HETATM    3  H1  UNL     1     -11.162  14.978  70.537  1.00  0.00     0.000 HD 
HETATM    4  C   UNL     1     -10.183  16.277  69.244  1.00  0.00    -0.269 C  
ENDROOT
BRANCH   4   5
HETATM    5  C   UNL     1      -9.347  16.245  67.959  1.00  0.00    -0.214 C  
BRANCH   5   6
HETATM    6  C   UNL     1      -8.778  17.604  67.431  1.00  0.00    -0.234 C  
HETATM    7  O   UNL     1      -9.002  17.627  65.976  1.00  0.00    -0.495 OA 
HETATM    8  P   UNL     1      -6.971  17.831  67.608  1.00  0.00    -0.185 P  
HETATM    9  P   UNL     1      -9.650  18.997  68.236  1.00  0.00    -0.403 P  
HETATM   10  H   UNL     1      -8.656  18.452  65.655  1.00  0.00     0.000 HD 
HETATM   11  O   UNL     1      -5.442  18.023  67.757  1.00  0.00    -0.146 OA 
HETATM   12  O   UNL     1      -6.797  16.560  66.554  1.00  0.00    -0.192 OA 
HETATM   13  O   UNL     1      -7.015  16.933  68.985  1.00  0.00    -0.202 OA 
HETATM   14  O   UNL     1     -10.837  18.894  67.094  1.00  0.00    -0.444 OA 
HETATM   15  O   UNL     1      -8.717  20.037  67.368  1.00  0.00    -0.323 OA 
HETATM   16  O   UNL     1     -10.387  20.175  68.918  1.00  0.00    -0.382 OA 
ENDBRANCH   5   6
ENDBRANCH   4   5
TORSDOF 2
ENDMDL
MODEL      102
REMARK 921   NORMALIZED FREE ENERGY PREDICTED BY IDOCK:   -3.48 KCAL/MOL
REMARK 922        TOTAL FREE ENERGY PREDICTED BY IDOCK:   -3.85 KCAL/MOL
REMARK 923 INTER-LIGAND FREE ENERGY PREDICTED BY IDOCK:   -3.27 KCAL/MOL
REMARK 924 INTRA-LIGAND FREE ENERGY PREDICTED BY IDOCK:   -0.58 KCAL/MOL
REMARK 927      BINDING AFFINITY PREDICTED BY RF-SCORE:    0.00 PKD
ROOT
HETATM    1  N   UNL     1      -8.179   9.397  71.048  1.00  0.00    -0.308 NA 
HETATM    2  H2  UNL     1      -9.187   9.471  70.911  1.00  0.00     0.000 HD 
HETATM    3  H1  UNL     1      -7.764  10.316  71.195  1.00  0.00     0.000 HD 
HETATM    4  C   UNL     1      -7.869   8.453  72.111  1.00  0.00    -0.119 C  
ENDROOT
BRANCH   4   5
HETATM    5  C   UNL     1      -8.494   7.071  71.890  1.00  0.00    -0.109 C  
BRANCH   5   6
HETATM    6  C   UNL     1     -10.028   6.918  72.159  1.00  0.00    -0.162 C  
HETATM    7  O   UNL     1     -10.497   8.197  72.716  1.00  0.00    -0.322 OA 
HETATM    8  P   UNL     1     -10.493   5.682  73.427  1.00  0.00    -0.279 P  
HETATM    9  P   UNL     1     -10.898   6.542  70.593  1.00  0.00    -0.308 P  
HETATM   10  H   UNL     1     -11.428   8.104  72.880  1.00  0.00     0.000 HD 
HETATM   11  O   UNL     1     -10.886   4.637  74.499  1.00  0.00    -0.339 OA 
HETATM   12  O   UNL     1      -9.697   6.640  74.524  1.00  0.00    -0.270 OA 
HETATM   13  O   UNL     1      -9.192   4.775  72.987  1.00  0.00    -0.120 OA 
HETATM   14  O   UNL     1     -10.979   8.159  70.269  1.00  0.00    -0.248 OA 
HETATM   15  O   UNL     1     -12.314   6.502  71.430  1.00  0.00    -0.324 OA 
HETATM   16  O   UNL     1     -11.634   6.224  69.268  1.00  0.00    -0.363 OA 
ENDBRANCH   5   6
ENDBRANCH   4   5
TORSDOF 2
ENDMDL
MODEL      103
REMARK 921   NORMALIZED FREE ENERGY PREDICTED BY IDOCK:   -3.47 KCAL/MOL
REMARK 922        TOTAL FREE ENERGY PREDICTED BY IDOCK:   -3.85 KCAL/MOL
REMARK 923 INTER-LIGAND FREE ENERGY PREDICTED BY IDOCK:   -3.54 KCAL/MOL
REMARK 924 INTRA-LIGAND FREE ENERGY PREDICTED BY IDOCK:   -0.31 KCAL/MOL
REMARK 927      BINDING AFFINITY PREDICTED BY RF-SCORE:    0.00 PKD
ROOT
HETATM    1  N   UNL     1     -12.251   7.880  72.646  1.00  0.00    -0.597 NA 
HETATM    2  H2  UNL     1     -11.498   8.566  72.605  1.00  0.00     0.000 HD 
HETATM    3  H1  UNL     1     -13.100   8.294  73.031  1.00  0.00     0.000 HD 
HETATM    4  C   UNL     1     -12.457   7.258  71.347  1.00  0.00    -0.383 C  
ENDROOT
BRANCH   4   5
HETATM    5  C   UNL     1     -11.181   6.635  70.769  1.00  0.00    -0.366 C  
BRANCH   5   6
HETATM    6  C   UNL     1     -10.321   7.513  69.800  1.00  0.00    -0.221 C  
HETATM    7  O   UNL     1     -11.232   8.490  69.183  1.00  0.00    -0.423 OA 
HETATM    8  P   UNL     1      -9.580   6.632  68.377  1.00  0.00    -0.124 P  
HETATM    9  P   UNL     1      -9.004   8.367  70.742  1.00  0.00    -0.181 P  
HETATM   10  H   UNL     1     -10.709   9.023  68.594  1.00  0.00     0.000 HD 
HETATM   11  O   UNL     1      -8.954   5.888  67.173  1.00  0.00    -0.115 OA 
HETATM   12  O   UNL     1     -11.131   6.355  67.855  1.00  0.00    -0.322 OA 
HETATM   13  O   UNL     1      -9.449   5.283  69.309  1.00  0.00    -0.119 OA 
HETATM   14  O   UNL     1     -10.070   9.574  71.106  1.00  0.00    -0.288 OA 
HETATM   15  O   UNL     1      -8.496   9.056  69.337  1.00  0.00    -0.112 OA 
HETATM   16  O   UNL     1      -7.890   9.089  71.538  1.00  0.00    -0.290 OA 
ENDBRANCH   5   6
ENDBRANCH   4   5
TORSDOF 2
ENDMDL
MODEL      104
REMARK 921   NORMALIZED FREE ENERGY PREDICTED BY IDOCK:   -3.47 KCAL/MOL
REMARK 922        TOTAL FREE ENERGY PREDICTED BY IDOCK:   -3.84 KCAL/MOL
REMARK 923 INTER-LIGAND FREE ENERGY PREDICTED BY IDOCK:   -3.26 KCAL/MOL
REMARK 924 INTRA-LIGAND FREE ENERGY PREDICTED BY IDOCK:   -0.59 KCAL/MOL
REMARK 927      BINDING AFFINITY PREDICTED BY RF-SCORE:    0.00 PKD
ROOT
HETATM    1  N   UNL     1      -9.805   4.940  67.797  1.00  0.00    -0.156 NA 
HETATM    2  H2  UNL     1      -8.903   5.305  67.493  1.00  0.00     0.000 HD 
HETATM    3  H1  UNL     1     -10.040   4.085  67.294  1.00  0.00     0.000 HD 
HETATM    4  C   UNL     1      -9.839   4.780  69.242  1.00  0.00    -0.199 C  
ENDROOT
BRANCH   4   5
HETATM    5  C   UNL     1      -9.486   6.066  69.998  1.00  0.00    -0.180 C  
BRANCH   5   6
HETATM    6  C   UNL     1     -10.580   7.182  70.081  1.00  0.00    -0.230 C  
HETATM    7  O   UNL     1     -11.745   6.698  69.323  1.00  0.00    -0.645 OA 
HETATM    8  P   UNL     1     -10.156   8.772  69.280  1.00  0.00    -0.212 P  
HETATM    9  P   UNL     1     -11.030   7.481  71.830  1.00  0.00    -0.248 P  
HETATM   10  H   UNL     1     -12.410   7.376  69.373  1.00  0.00     0.000 HD 
HETATM   11  O   UNL     1      -9.797  10.117  68.602  1.00  0.00    -0.153 OA 
HETATM   12  O   UNL     1     -10.133   7.940  67.843  1.00  0.00    -0.173 OA 
HETATM   13  O   UNL     1      -8.577   8.522  69.670  1.00  0.00    -0.127 OA 
HETATM   14  O   UNL     1     -12.112   6.237  71.748  1.00  0.00    -0.323 OA 
HETATM   15  O   UNL     1     -12.099   8.623  71.323  1.00  0.00    -0.290 OA 
HETATM   16  O   UNL     1     -11.410   7.734  73.309  1.00  0.00    -0.321 OA 
ENDBRANCH   5   6
ENDBRANCH   4   5
TORSDOF 2
ENDMDL
MODEL      105
REMARK 921   NORMALIZED FREE ENERGY PREDICTED BY IDOCK:   -3.47 KCAL/MOL
REMARK 922        TOTAL FREE ENERGY PREDICTED BY IDOCK:   -3.84 KCAL/MOL
REMARK 923 INTER-LIGAND FREE ENERGY PREDICTED BY IDOCK:   -3.26 KCAL/MOL
REMARK 924 INTRA-LIGAND FREE ENERGY PREDICTED BY IDOCK:   -0.58 KCAL/MOL
REMARK 927      BINDING AFFINITY PREDICTED BY RF-SCORE:    0.00 PKD
ROOT
HETATM    1  N   UNL     1      -8.483   8.637  72.866  1.00  0.00    -0.410 NA 
HETATM    2  H2  UNL     1      -9.009   8.479  73.726  1.00  0.00     0.000 HD 
HETATM    3  H1  UNL     1      -7.696   9.263  73.031  1.00  0.00     0.000 HD 
HETATM    4  C   UNL     1      -8.090   7.374  72.261  1.00  0.00    -0.101 C  
ENDROOT
BRANCH   4   5
HETATM    5  C   UNL     1      -9.274   6.431  72.013  1.00  0.00    -0.148 C  
BRANCH   5   6
HETATM    6  C   UNL     1     -10.236   6.772  70.827  1.00  0.00    -0.195 C  
HETATM    7  O   UNL     1      -9.831   8.090  70.310  1.00  0.00    -0.182 OA 
HETATM    8  P   UNL     1     -11.998   6.988  71.270  1.00  0.00    -0.377 P  
HETATM    9  P   UNL     1     -10.086   5.498  69.521  1.00  0.00    -0.279 P  
HETATM   10  H   UNL     1     -10.416   8.297  69.590  1.00  0.00     0.000 HD 
HETATM   11  O   UNL     1     -13.489   7.171  71.644  1.00  0.00    -0.379 OA 
HETATM   12  O   UNL     1     -11.520   8.303  72.163  1.00  0.00    -0.309 OA 
HETATM   13  O   UNL     1     -11.813   5.870  72.461  1.00  0.00    -0.295 OA 
HETATM   14  O   UNL     1      -8.799   6.317  68.890  1.00  0.00    -0.124 OA 
HETATM   15  O   UNL     1     -11.211   6.316  68.642  1.00  0.00    -0.356 OA 
HETATM   16  O   UNL     1      -9.961   4.420  68.417  1.00  0.00    -0.105 OA 
ENDBRANCH   5   6
ENDBRANCH   4   5
TORSDOF 2
ENDMDL
MODEL      106
REMARK 921   NORMALIZED FREE ENERGY PREDICTED BY IDOCK:   -3.47 KCAL/MOL
REMARK 922        TOTAL FREE ENERGY PREDICTED BY IDOCK:   -3.84 KCAL/MOL
REMARK 923 INTER-LIGAND FREE ENERGY PREDICTED BY IDOCK:   -3.58 KCAL/MOL
REMARK 924 INTRA-LIGAND FREE ENERGY PREDICTED BY IDOCK:   -0.26 KCAL/MOL
REMARK 927      BINDING AFFINITY PREDICTED BY RF-SCORE:    0.00 PKD
ROOT
HETATM    1  N   UNL     1     -10.425   4.986  69.706  1.00  0.00    -0.214 NA 
HETATM    2  H2  UNL     1     -10.424   5.933  69.329  1.00  0.00     0.000 HD 
HETATM    3  H1  UNL     1      -9.796   4.383  69.176  1.00  0.00     0.000 HD 
HETATM    4  C   UNL     1     -10.139   4.995  71.132  1.00  0.00    -0.223 C  
ENDROOT
BRANCH   4   5
HETATM    5  C   UNL     1     -11.084   5.901  71.930  1.00  0.00    -0.325 C  
BRANCH   5   6
HETATM    6  C   UNL     1     -10.493   7.224  72.520  1.00  0.00    -0.237 C  
HETATM    7  O   UNL     1     -10.959   7.319  73.913  1.00  0.00    -0.533 OA 
HETATM    8  P   UNL     1     -11.084   8.774  71.746  1.00  0.00    -0.377 P  
HETATM    9  P   UNL     1      -8.665   7.169  72.457  1.00  0.00    -0.125 P  
HETATM   10  H   UNL     1     -10.601   8.123  74.272  1.00  0.00     0.000 HD 
HETATM   11  O   UNL     1     -11.584  10.084  71.090  1.00  0.00    -0.355 OA 
HETATM   12  O   UNL     1     -12.591   8.381  72.319  1.00  0.00    -0.348 OA 
HETATM   13  O   UNL     1     -11.213   7.981  70.310  1.00  0.00    -0.258 OA 
HETATM   14  O   UNL     1      -8.655   6.363  73.898  1.00  0.00    -0.121 OA 
HETATM   15  O   UNL     1      -8.631   8.665  73.140  1.00  0.00    -0.393 OA 
HETATM   16  O   UNL     1      -7.118   7.122  72.403  1.00  0.00    -0.067 OA 
ENDBRANCH   5   6
ENDBRANCH   4   5
TORSDOF 2
ENDMDL
MODEL      107
REMARK 921   NORMALIZED FREE ENERGY PREDICTED BY IDOCK:   -3.46 KCAL/MOL
REMARK 922        TOTAL FREE ENERGY PREDICTED BY IDOCK:   -3.83 KCAL/MOL
REMARK 923 INTER-LIGAND FREE ENERGY PREDICTED BY IDOCK:   -3.53 KCAL/MOL
REMARK 924 INTRA-LIGAND FREE ENERGY PREDICTED BY IDOCK:   -0.30 KCAL/MOL
REMARK 927      BINDING AFFINITY PREDICTED BY RF-SCORE:    0.00 PKD
ROOT
HETATM    1  N   UNL     1     -11.290  11.405  63.033  1.00  0.00    -0.852 NA 
HETATM    2  H2  UNL     1     -12.004  10.676  63.046  1.00  0.00     0.000 HD 
HETATM    3  H1  UNL     1     -11.241  11.849  62.117  1.00  0.00     0.000 HD 
HETATM    4  C   UNL     1     -11.499  12.353  64.117  1.00  0.00    -0.381 C  
ENDROOT
BRANCH   4   5
HETATM    5  C   UNL     1     -11.574  11.685  65.495  1.00  0.00    -0.085 C  
BRANCH   5   6
HETATM    6  C   UNL     1     -10.350  11.862  66.454  1.00  0.00    -0.219 C  
HETATM    7  O   UNL     1      -9.415  12.786  65.791  1.00  0.00    -0.441 OA 
HETATM    8  P   UNL     1      -9.352  10.358  66.756  1.00  0.00    -0.162 P  
HETATM    9  P   UNL     1     -10.910  12.554  68.053  1.00  0.00    -0.252 P  
HETATM   10  H   UNL     1      -8.671  12.894  66.373  1.00  0.00     0.000 HD 
HETATM   11  O   UNL     1      -8.508   9.086  67.011  1.00  0.00    -0.118 OA 
HETATM   12  O   UNL     1      -8.968  10.396  65.141  1.00  0.00    -0.170 OA 
HETATM   13  O   UNL     1     -10.716   9.450  66.607  1.00  0.00    -0.143 OA 
HETATM   14  O   UNL     1     -10.803  14.073  67.416  1.00  0.00    -0.276 OA 
HETATM   15  O   UNL     1      -9.351  12.518  68.576  1.00  0.00    -0.177 OA 
HETATM   16  O   UNL     1     -11.384  13.139  69.406  1.00  0.00    -0.258 OA 
ENDBRANCH   5   6
ENDBRANCH   4   5
TORSDOF 2
ENDMDL
MODEL      108
REMARK 921   NORMALIZED FREE ENERGY PREDICTED BY IDOCK:   -3.45 KCAL/MOL
REMARK 922        TOTAL FREE ENERGY PREDICTED BY IDOCK:   -3.82 KCAL/MOL
REMARK 923 INTER-LIGAND FREE ENERGY PREDICTED BY IDOCK:   -3.22 KCAL/MOL
REMARK 924 INTRA-LIGAND FREE ENERGY PREDICTED BY IDOCK:   -0.60 KCAL/MOL
REMARK 927      BINDING AFFINITY PREDICTED BY RF-SCORE:    0.00 PKD
ROOT
HETATM    1  N   UNL     1      -9.299   4.979  73.381  1.00  0.00    -0.136 NA 
HETATM    2  H2  UNL     1      -8.904   5.635  72.706  1.00  0.00     0.000 HD 
HETATM    3  H1  UNL     1      -8.647   4.807  74.145  1.00  0.00     0.000 HD 
HETATM    4  C   UNL     1     -10.606   5.429  73.835  1.00  0.00    -0.285 C  
ENDROOT
BRANCH   4   5
HETATM    5  C   UNL     1     -11.587   5.689  72.686  1.00  0.00    -0.307 C  
BRANCH   5   6
HETATM    6  C   UNL     1     -11.295   6.905  71.745  1.00  0.00    -0.261 C  
HETATM    7  O   UNL     1     -10.191   7.665  72.354  1.00  0.00    -0.199 OA 
HETATM    8  P   UNL     1     -12.646   8.130  71.588  1.00  0.00    -0.313 P  
HETATM    9  P   UNL     1     -10.820   6.303  70.083  1.00  0.00    -0.375 P  
HETATM   10  H   UNL     1     -10.014   8.403  71.783  1.00  0.00     0.000 HD 
HETATM   11  O   UNL     1     -13.788   9.166  71.454  1.00  0.00    -0.359 OA 
HETATM   12  O   UNL     1     -12.427   8.446  73.203  1.00  0.00    -0.095 OA 
HETATM   13  O   UNL     1     -13.739   6.915  71.777  1.00  0.00    -0.303 OA 
HETATM   14  O   UNL     1      -9.259   6.155  70.600  1.00  0.00    -0.152 OA 
HETATM   15  O   UNL     1     -10.655   7.867  69.602  1.00  0.00    -0.234 OA 
HETATM   16  O   UNL     1     -10.419   5.793  68.677  1.00  0.00    -0.198 OA 
ENDBRANCH   5   6
ENDBRANCH   4   5
TORSDOF 2
ENDMDL
MODEL      109
REMARK 921   NORMALIZED FREE ENERGY PREDICTED BY IDOCK:   -3.45 KCAL/MOL
REMARK 922        TOTAL FREE ENERGY PREDICTED BY IDOCK:   -3.81 KCAL/MOL
REMARK 923 INTER-LIGAND FREE ENERGY PREDICTED BY IDOCK:   -3.66 KCAL/MOL
REMARK 924 INTRA-LIGAND FREE ENERGY PREDICTED BY IDOCK:   -0.15 KCAL/MOL
REMARK 927      BINDING AFFINITY PREDICTED BY RF-SCORE:    0.00 PKD
ROOT
HETATM    1  N   UNL     1      -8.174  20.312  67.518  1.00  0.00    -0.324 NA 
HETATM    2  H2  UNL     1      -7.742  20.616  68.390  1.00  0.00     0.000 HD 
HETATM    3  H1  UNL     1      -8.133  21.050  66.815  1.00  0.00     0.000 HD 
HETATM    4  C   UNL     1      -7.594  19.058  67.062  1.00  0.00    -0.228 C  
ENDROOT
BRANCH   4   5
HETATM    5  C   UNL     1      -7.654  17.948  68.118  1.00  0.00    -0.260 C  
BRANCH   5   6
HETATM    6  C   UNL     1      -8.773  16.864  67.967  1.00  0.00    -0.215 C  
HETATM    7  O   UNL     1      -9.582  16.906  69.196  1.00  0.00    -0.241 OA 
HETATM    8  P   UNL     1      -8.193  15.131  67.875  1.00  0.00    -0.166 P  
HETATM    9  P   UNL     1      -9.807  17.239  66.504  1.00  0.00    -0.309 P  
HETATM   10  H   UNL     1     -10.261  16.248  69.104  1.00  0.00     0.000 HD 
HETATM   11  O   UNL     1      -7.702  13.664  67.798  1.00  0.00    -0.132 OA 
HETATM   12  O   UNL     1      -7.636  15.328  69.426  1.00  0.00    -0.191 OA 
HETATM   13  O   UNL     1      -6.829  15.650  67.115  1.00  0.00    -0.205 OA 
HETATM   14  O   UNL     1     -10.724  18.251  67.431  1.00  0.00    -0.412 OA 
HETATM   15  O   UNL     1     -10.703  15.901  66.837  1.00  0.00    -0.321 OA 
HETATM   16  O   UNL     1     -10.681  17.557  65.266  1.00  0.00    -0.656 OA 
ENDBRANCH   5   6
ENDBRANCH   4   5
TORSDOF 2
ENDMDL
MODEL      110
REMARK 921   NORMALIZED FREE ENERGY PREDICTED BY IDOCK:   -3.43 KCAL/MOL
REMARK 922        TOTAL FREE ENERGY PREDICTED BY IDOCK:   -3.80 KCAL/MOL
REMARK 923 INTER-LIGAND FREE ENERGY PREDICTED BY IDOCK:   -3.75 KCAL/MOL
REMARK 924 INTRA-LIGAND FREE ENERGY PREDICTED BY IDOCK:   -0.05 KCAL/MOL
REMARK 927      BINDING AFFINITY PREDICTED BY RF-SCORE:    0.00 PKD
ROOT
HETATM    1  N   UNL     1      -7.797  10.739  64.799  1.00  0.00    -0.354 NA 
HETATM    2  H2  UNL     1      -6.950  10.270  65.120  1.00  0.00     0.000 HD 
HETATM    3  H1  UNL     1      -7.941  10.586  63.802  1.00  0.00     0.000 HD 
HETATM    4  C   UNL     1      -8.942  10.349  65.609  1.00  0.00    -0.176 C  
ENDROOT
BRANCH   4   5
HETATM    5  C   UNL     1      -8.724  10.579  67.109  1.00  0.00    -0.130 C  
BRANCH   5   6
HETATM    6  C   UNL     1      -9.900  11.214  67.922  1.00  0.00    -0.174 C  
HETATM    7  O   UNL     1      -9.321  12.288  68.747  1.00  0.00    -0.391 OA 
HETATM    8  P   UNL     1     -10.715  10.111  69.135  1.00  0.00    -0.248 P  
HETATM    9  P   UNL     1     -11.154  11.891  66.774  1.00  0.00    -0.328 P  
HETATM   10  H   UNL     1     -10.035  12.674  69.241  1.00  0.00     0.000 HD 
HETATM   11  O   UNL     1     -11.404   9.178  70.160  1.00  0.00    -0.231 OA 
HETATM   12  O   UNL     1      -9.264  10.074  69.942  1.00  0.00    -0.215 OA 
HETATM   13  O   UNL     1     -10.413   8.835  68.142  1.00  0.00    -0.216 OA 
HETATM   14  O   UNL     1     -10.286  13.292  66.676  1.00  0.00    -0.267 OA 
HETATM   15  O   UNL     1     -12.037  12.371  68.077  1.00  0.00    -0.398 OA 
HETATM   16  O   UNL     1     -12.215  12.464  65.803  1.00  0.00    -0.620 OA 
ENDBRANCH   5   6
ENDBRANCH   4   5
TORSDOF 2
ENDMDL
MODEL      111
REMARK 921   NORMALIZED FREE ENERGY PREDICTED BY IDOCK:   -3.43 KCAL/MOL
REMARK 922        TOTAL FREE ENERGY PREDICTED BY IDOCK:   -3.79 KCAL/MOL
REMARK 923 INTER-LIGAND FREE ENERGY PREDICTED BY IDOCK:   -3.70 KCAL/MOL
REMARK 924 INTRA-LIGAND FREE ENERGY PREDICTED BY IDOCK:   -0.09 KCAL/MOL
REMARK 927      BINDING AFFINITY PREDICTED BY RF-SCORE:    0.00 PKD
ROOT
HETATM    1  N   UNL     1     -11.483   4.669  65.176  1.00  0.00    -1.107 NA 
HETATM    2  H2  UNL     1     -11.905   5.439  64.658  1.00  0.00     0.000 HD 
HETATM    3  H1  UNL     1     -11.123   3.958  64.540  1.00  0.00     0.000 HD 
HETATM    4  C   UNL     1     -10.482   5.160  66.110  1.00  0.00    -0.250 C  
ENDROOT
BRANCH   4   5
HETATM    5  C   UNL     1     -11.023   6.230  67.066  1.00  0.00    -0.442 C  
BRANCH   5   6
HETATM    6  C   UNL     1      -9.997   6.958  67.995  1.00  0.00    -0.154 C  
HETATM    7  O   UNL     1      -8.661   6.451  67.641  1.00  0.00    -0.116 OA 
HETATM    8  P   UNL     1     -10.150   6.599  69.783  1.00  0.00    -0.194 P  
HETATM    9  P   UNL     1     -10.090   8.766  67.726  1.00  0.00    -0.234 P  
HETATM   10  H   UNL     1      -8.037   6.893  68.206  1.00  0.00     0.000 HD 
HETATM   11  O   UNL     1     -10.279   6.294  71.296  1.00  0.00    -0.194 OA 
HETATM   12  O   UNL     1      -9.746   5.032  69.412  1.00  0.00    -0.150 OA 
HETATM   13  O   UNL     1     -11.774   6.429  69.588  1.00  0.00    -0.389 OA 
HETATM   14  O   UNL     1      -9.042   8.616  66.460  1.00  0.00    -0.145 OA 
HETATM   15  O   UNL     1      -8.910   8.960  68.855  1.00  0.00    -0.135 OA 
HETATM   16  O   UNL     1     -10.169  10.295  67.499  1.00  0.00    -0.187 OA 
ENDBRANCH   5   6
ENDBRANCH   4   5
TORSDOF 2
ENDMDL
MODEL      112
REMARK 921   NORMALIZED FREE ENERGY PREDICTED BY IDOCK:   -3.41 KCAL/MOL
REMARK 922        TOTAL FREE ENERGY PREDICTED BY IDOCK:   -3.77 KCAL/MOL
REMARK 923 INTER-LIGAND FREE ENERGY PREDICTED BY IDOCK:   -3.96 KCAL/MOL
REMARK 924 INTRA-LIGAND FREE ENERGY PREDICTED BY IDOCK:    0.18 KCAL/MOL
REMARK 927      BINDING AFFINITY PREDICTED BY RF-SCORE:    0.00 PKD
ROOT
HETATM    1  N   UNL     1      -9.826  12.428  63.480  1.00  0.00    -0.656 NA 
HETATM    2  H2  UNL     1      -9.382  11.773  64.123  1.00  0.00     0.000 HD 
HETATM    3  H1  UNL     1     -10.345  11.932  62.756  1.00  0.00     0.000 HD 
HETATM    4  C   UNL     1     -10.639  13.393  64.205  1.00  0.00    -0.341 C  
ENDROOT
BRANCH   4   5
HETATM    5  C   UNL     1      -9.860  14.139  65.294  1.00  0.00    -0.199 C  
BRANCH   5   6
HETATM    6  C   UNL     1     -10.394  14.042  66.762  1.00  0.00    -0.271 C  
HETATM    7  O   UNL     1     -11.746  14.624  66.767  1.00  0.00    -0.373 OA 
HETATM    8  P   UNL     1      -9.480  15.027  68.006  1.00  0.00    -0.199 P  
HETATM    9  P   UNL     1     -10.446  12.291  67.289  1.00  0.00    -0.224 P  
HETATM   10  H   UNL     1     -12.070  14.566  67.659  1.00  0.00     0.000 HD 
HETATM   11  O   UNL     1      -8.708  15.859  69.058  1.00  0.00    -0.206 OA 
HETATM   12  O   UNL     1      -9.986  16.375  67.180  1.00  0.00    -0.248 OA 
HETATM   13  O   UNL     1      -8.097  14.785  67.149  1.00  0.00    -0.199 OA 
HETATM   14  O   UNL     1     -11.937  12.142  66.595  1.00  0.00    -0.616 OA 
HETATM   15  O   UNL     1     -11.026  12.783  68.748  1.00  0.00    -0.240 OA 
HETATM   16  O   UNL     1     -10.491  10.809  67.735  1.00  0.00    -0.186 OA 
ENDBRANCH   5   6
ENDBRANCH   4   5
TORSDOF 2
ENDMDL
MODEL      113
REMARK 921   NORMALIZED FREE ENERGY PREDICTED BY IDOCK:   -3.40 KCAL/MOL
REMARK 922        TOTAL FREE ENERGY PREDICTED BY IDOCK:   -3.76 KCAL/MOL
REMARK 923 INTER-LIGAND FREE ENERGY PREDICTED BY IDOCK:   -3.68 KCAL/MOL
REMARK 924 INTRA-LIGAND FREE ENERGY PREDICTED BY IDOCK:   -0.09 KCAL/MOL
REMARK 927      BINDING AFFINITY PREDICTED BY RF-SCORE:    0.00 PKD
ROOT
HETATM    1  N   UNL     1     -10.920  14.844  70.603  1.00  0.00    -0.507 NA 
HETATM    2  H2  UNL     1     -10.073  14.394  70.257  1.00  0.00     0.000 HD 
HETATM    3  H1  UNL     1     -10.703  15.739  71.041  1.00  0.00     0.000 HD 
HETATM    4  C   UNL     1     -11.916  14.951  69.548  1.00  0.00    -0.310 C  
ENDROOT
BRANCH   4   5
HETATM    5  C   UNL     1     -12.242  13.606  68.888  1.00  0.00    -0.221 C  
BRANCH   5   6
HETATM    6  C   UNL     1     -11.393  13.186  67.643  1.00  0.00    -0.298 C  
HETATM    7  O   UNL     1     -12.337  12.953  66.537  1.00  0.00    -0.440 OA 
HETATM    8  P   UNL     1     -10.488  11.602  67.796  1.00  0.00    -0.204 P  
HETATM    9  P   UNL     1     -10.218  14.521  67.213  1.00  0.00    -0.258 P  
HETATM   10  H   UNL     1     -11.822  12.698  65.781  1.00  0.00     0.000 HD 
HETATM   11  O   UNL     1      -9.722  10.263  67.925  1.00  0.00    -0.144 OA 
HETATM   12  O   UNL     1     -11.972  10.865  67.894  1.00  0.00    -0.585 OA 
HETATM   13  O   UNL     1     -10.309  11.886  69.406  1.00  0.00     0.060 OA 
HETATM   14  O   UNL     1     -11.401  15.257  66.327  1.00  0.00    -0.280 OA 
HETATM   15  O   UNL     1      -9.674  13.594  65.968  1.00  0.00    -0.277 OA 
HETATM   16  O   UNL     1      -9.223  15.651  66.850  1.00  0.00    -0.213 OA 
ENDBRANCH   5   6
ENDBRANCH   4   5
TORSDOF 2
ENDMDL
MODEL      114
REMARK 921   NORMALIZED FREE ENERGY PREDICTED BY IDOCK:   -3.40 KCAL/MOL
REMARK 922        TOTAL FREE ENERGY PREDICTED BY IDOCK:   -3.76 KCAL/MOL
REMARK 923 INTER-LIGAND FREE ENERGY PREDICTED BY IDOCK:   -3.96 KCAL/MOL
REMARK 924 INTRA-LIGAND FREE ENERGY PREDICTED BY IDOCK:    0.20 KCAL/MOL
REMARK 927      BINDING AFFINITY PREDICTED BY RF-SCORE:    0.00 PKD
ROOT
HETATM    1  N   UNL     1     -11.502  16.378  64.129  1.00  0.00    -1.441 NA 
HETATM    2  H2  UNL     1     -10.901  16.100  63.353  1.00  0.00     0.000 HD 
HETATM    3  H1  UNL     1     -12.484  16.348  63.856  1.00  0.00     0.000 HD 
HETATM    4  C   UNL     1     -11.214  15.586  65.315  1.00  0.00    -0.275 C  
ENDROOT
BRANCH   4   5
HETATM    5  C   UNL     1      -9.738  15.630  65.725  1.00  0.00    -0.380 C  
BRANCH   5   6
HETATM    6  C   UNL     1      -9.382  16.323  67.082  1.00  0.00    -0.222 C  
HETATM    7  O   UNL     1      -9.769  17.738  66.956  1.00  0.00    -0.271 OA 
HETATM    8  P   UNL     1      -7.602  16.383  67.501  1.00  0.00    -0.172 P  
HETATM    9  P   UNL     1     -10.304  15.524  68.446  1.00  0.00    -0.242 P  
HETATM   10  H   UNL     1      -9.553  18.159  67.781  1.00  0.00     0.000 HD 
HETATM   11  O   UNL     1      -6.096  16.434  67.856  1.00  0.00    -0.106 OA 
HETATM   12  O   UNL     1      -7.411  17.352  66.167  1.00  0.00    -0.294 OA 
HETATM   13  O   UNL     1      -7.393  14.948  66.726  1.00  0.00     0.035 OA 
HETATM   14  O   UNL     1     -11.594  16.504  68.129  1.00  0.00    -0.170 OA 
HETATM   15  O   UNL     1      -9.593  16.573  69.495  1.00  0.00    -0.164 OA 
HETATM   16  O   UNL     1     -11.083  14.847  69.601  1.00  0.00    -0.257 OA 
ENDBRANCH   5   6
ENDBRANCH   4   5
TORSDOF 2
ENDMDL
MODEL      115
REMARK 921   NORMALIZED FREE ENERGY PREDICTED BY IDOCK:   -3.39 KCAL/MOL
REMARK 922        TOTAL FREE ENERGY PREDICTED BY IDOCK:   -3.76 KCAL/MOL
REMARK 923 INTER-LIGAND FREE ENERGY PREDICTED BY IDOCK:   -3.18 KCAL/MOL
REMARK 924 INTRA-LIGAND FREE ENERGY PREDICTED BY IDOCK:   -0.58 KCAL/MOL
REMARK 927      BINDING AFFINITY PREDICTED BY RF-SCORE:    0.00 PKD
ROOT
HETATM    1  N   UNL     1      -6.901  10.269  69.434  1.00  0.00    -0.066 NA 
HETATM    2  H2  UNL     1      -6.933   9.267  69.617  1.00  0.00     0.000 HD 
HETATM    3  H1  UNL     1      -5.976  10.647  69.637  1.00  0.00     0.000 HD 
HETATM    4  C   UNL     1      -7.353  10.562  68.082  1.00  0.00    -0.088 C  
ENDROOT
BRANCH   4   5
HETATM    5  C   UNL     1      -8.743   9.994  67.775  1.00  0.00    -0.125 C  
BRANCH   5   6
HETATM    6  C   UNL     1      -9.975  10.699  68.434  1.00  0.00    -0.163 C  
HETATM    7  O   UNL     1      -9.451  11.796  69.264  1.00  0.00    -0.357 OA 
HETATM    8  P   UNL     1     -10.943   9.677  69.604  1.00  0.00    -0.163 P  
HETATM    9  P   UNL     1     -11.085  11.352  67.133  1.00  0.00    -0.257 P  
HETATM   10  H   UNL     1     -10.199  12.223  69.664  1.00  0.00     0.000 HD 
HETATM   11  O   UNL     1     -11.761   8.813  70.595  1.00  0.00    -0.260 OA 
HETATM   12  O   UNL     1      -9.584   9.641  70.558  1.00  0.00    -0.258 OA 
HETATM   13  O   UNL     1     -10.582   8.346  68.707  1.00  0.00    -0.203 OA 
HETATM   14  O   UNL     1     -10.168  12.723  67.061  1.00  0.00    -0.238 OA 
HETATM   15  O   UNL     1     -12.080  11.917  68.314  1.00  0.00    -0.485 OA 
HETATM   16  O   UNL     1     -12.023  11.904  66.032  1.00  0.00    -0.511 OA 
ENDBRANCH   5   6
ENDBRANCH   4   5
TORSDOF 2
ENDMDL
MODEL      116
REMARK 921   NORMALIZED FREE ENERGY PREDICTED BY IDOCK:   -3.39 KCAL/MOL
REMARK 922        TOTAL FREE ENERGY PREDICTED BY IDOCK:   -3.75 KCAL/MOL
REMARK 923 INTER-LIGAND FREE ENERGY PREDICTED BY IDOCK:   -3.50 KCAL/MOL
REMARK 924 INTRA-LIGAND FREE ENERGY PREDICTED BY IDOCK:   -0.25 KCAL/MOL
REMARK 927      BINDING AFFINITY PREDICTED BY RF-SCORE:    0.00 PKD
ROOT
HETATM    1  N   UNL     1     -11.092   9.764  68.443  1.00  0.00    -0.473 NA 
HETATM    2  H2  UNL     1     -11.074   8.754  68.301  1.00  0.00     0.000 HD 
HETATM    3  H1  UNL     1     -11.796  10.201  67.849  1.00  0.00     0.000 HD 
HETATM    4  C   UNL     1     -11.255  10.086  69.853  1.00  0.00    -0.275 C  
ENDROOT
BRANCH   4   5
HETATM    5  C   UNL     1     -10.197   9.428  70.746  1.00  0.00    -0.368 C  
BRANCH   5   6
HETATM    6  C   UNL     1     -10.576   8.081  71.447  1.00  0.00    -0.216 C  
HETATM    7  O   UNL     1     -10.114   8.177  72.841  1.00  0.00    -0.299 OA 
HETATM    8  P   UNL     1      -9.739   6.587  70.801  1.00  0.00    -0.179 P  
HETATM    9  P   UNL     1     -12.389   7.840  71.386  1.00  0.00    -0.286 P  
HETATM   10  H   UNL     1     -10.344   7.359  73.267  1.00  0.00     0.000 HD 
HETATM   11  O   UNL     1      -9.032   5.323  70.255  1.00  0.00    -0.122 OA 
HETATM   12  O   UNL     1      -8.319   7.260  71.335  1.00  0.00    -0.109 OA 
HETATM   13  O   UNL     1      -9.724   7.269  69.304  1.00  0.00    -0.159 OA 
HETATM   14  O   UNL     1     -12.541   8.750  72.755  1.00  0.00    -0.316 OA 
HETATM   15  O   UNL     1     -12.192   6.419  72.191  1.00  0.00    -0.318 OA 
HETATM   16  O   UNL     1     -13.923   7.635  71.335  1.00  0.00    -0.383 OA 
ENDBRANCH   5   6
ENDBRANCH   4   5
TORSDOF 2
ENDMDL
MODEL      117
REMARK 921   NORMALIZED FREE ENERGY PREDICTED BY IDOCK:   -3.38 KCAL/MOL
REMARK 922        TOTAL FREE ENERGY PREDICTED BY IDOCK:   -3.74 KCAL/MOL
REMARK 923 INTER-LIGAND FREE ENERGY PREDICTED BY IDOCK:   -3.98 KCAL/MOL
REMARK 924 INTRA-LIGAND FREE ENERGY PREDICTED BY IDOCK:    0.24 KCAL/MOL
REMARK 927      BINDING AFFINITY PREDICTED BY RF-SCORE:    0.00 PKD
ROOT
HETATM    1  N   UNL     1      -8.406  18.133  68.509  1.00  0.00    -0.305 NA 
HETATM    2  H2  UNL     1      -8.851  18.226  69.422  1.00  0.00     0.000 HD 
HETATM    3  H1  UNL     1      -7.671  18.829  68.390  1.00  0.00     0.000 HD 
HETATM    4  C   UNL     1      -7.940  16.770  68.297  1.00  0.00    -0.200 C  
ENDROOT
BRANCH   4   5
HETATM    5  C   UNL     1      -9.045  15.722  68.476  1.00  0.00    -0.194 C  
BRANCH   5   6
HETATM    6  C   UNL     1      -9.418  14.843  67.237  1.00  0.00    -0.213 C  
HETATM    7  O   UNL     1      -8.157  14.328  66.680  1.00  0.00    -0.344 OA 
HETATM    8  P   UNL     1     -10.193  15.732  65.837  1.00  0.00    -0.403 P  
HETATM    9  P   UNL     1     -10.501  13.463  67.759  1.00  0.00    -0.252 P  
HETATM   10  H   UNL     1      -8.383  13.794  65.927  1.00  0.00     0.000 HD 
HETATM   11  O   UNL     1     -10.849  16.483  64.653  1.00  0.00    -0.741 OA 
HETATM   12  O   UNL     1      -8.762  16.558  65.684  1.00  0.00    -0.401 OA 
HETATM   13  O   UNL     1     -10.896  16.763  66.910  1.00  0.00    -0.189 OA 
HETATM   14  O   UNL     1      -9.162  12.581  68.151  1.00  0.00    -0.200 OA 
HETATM   15  O   UNL     1     -10.545  12.953  66.196  1.00  0.00    -0.266 OA 
HETATM   16  O   UNL     1     -11.417  12.296  68.200  1.00  0.00    -0.270 OA 
ENDBRANCH   5   6
ENDBRANCH   4   5
TORSDOF 2
ENDMDL
MODEL      118
REMARK 921   NORMALIZED FREE ENERGY PREDICTED BY IDOCK:   -3.34 KCAL/MOL
REMARK 922        TOTAL FREE ENERGY PREDICTED BY IDOCK:   -3.70 KCAL/MOL
REMARK 923 INTER-LIGAND FREE ENERGY PREDICTED BY IDOCK:   -3.12 KCAL/MOL
REMARK 924 INTRA-LIGAND FREE ENERGY PREDICTED BY IDOCK:   -0.58 KCAL/MOL
REMARK 927      BINDING AFFINITY PREDICTED BY RF-SCORE:    0.00 PKD
ROOT
HETATM    1  N   UNL     1      -8.921  12.884  66.159  1.00  0.00    -0.433 NA 
HETATM    2  H2  UNL     1      -9.497  12.193  65.679  1.00  0.00     0.000 HD 
HETATM    3  H1  UNL     1      -9.093  13.819  65.792  1.00  0.00     0.000 HD 
HETATM    4  C   UNL     1      -9.100  12.795  67.600  1.00  0.00    -0.193 C  
ENDROOT
BRANCH   4   5
HETATM    5  C   UNL     1      -8.841  11.388  68.153  1.00  0.00    -0.162 C  
BRANCH   5   6
HETATM    6  C   UNL     1      -9.950  10.307  67.930  1.00  0.00    -0.164 C  
HETATM    7  O   UNL     1     -11.100  10.991  67.315  1.00  0.00    -0.286 OA 
HETATM    8  P   UNL     1     -10.640   9.552  69.448  1.00  0.00    -0.209 P  
HETATM    9  P   UNL     1      -9.320   8.991  66.826  1.00  0.00    -0.195 P  
HETATM   10  H   UNL     1     -11.774  10.334  67.180  1.00  0.00     0.000 HD 
HETATM   11  O   UNL     1     -11.224   8.913  70.731  1.00  0.00    -0.256 OA 
HETATM   12  O   UNL     1     -11.221  11.060  69.828  1.00  0.00    -0.258 OA 
HETATM   13  O   UNL     1      -9.174   9.723  70.173  1.00  0.00    -0.234 OA 
HETATM   14  O   UNL     1      -9.755   9.901  65.519  1.00  0.00    -0.263 OA 
HETATM   15  O   UNL     1     -10.775   8.235  66.953  1.00  0.00    -0.299 OA 
HETATM   16  O   UNL     1      -8.786   7.877  65.892  1.00  0.00    -0.163 OA 
ENDBRANCH   5   6
ENDBRANCH   4   5
TORSDOF 2
ENDMDL
MODEL      119
REMARK 921   NORMALIZED FREE ENERGY PREDICTED BY IDOCK:   -3.34 KCAL/MOL
REMARK 922        TOTAL FREE ENERGY PREDICTED BY IDOCK:   -3.70 KCAL/MOL
REMARK 923 INTER-LIGAND FREE ENERGY PREDICTED BY IDOCK:   -3.23 KCAL/MOL
REMARK 924 INTRA-LIGAND FREE ENERGY PREDICTED BY IDOCK:   -0.46 KCAL/MOL
REMARK 927      BINDING AFFINITY PREDICTED BY RF-SCORE:    0.00 PKD
ROOT
HETATM    1  N   UNL     1      -9.801   4.710  69.849  1.00  0.00    -0.213 NA 
HETATM    2  H2  UNL     1      -8.792   4.760  69.994  1.00  0.00     0.000 HD 
HETATM    3  H1  UNL     1     -10.068   3.804  69.464  1.00  0.00     0.000 HD 
HETATM    4  C   UNL     1     -10.516   5.043  71.071  1.00  0.00    -0.141 C  
ENDROOT
BRANCH   4   5
HETATM    5  C   UNL     1     -10.115   6.405  71.651  1.00  0.00    -0.209 C  
BRANCH   5   6
HETATM    6  C   UNL     1     -10.719   7.684  70.981  1.00  0.00    -0.228 C  
HETATM    7  O   UNL     1     -11.263   7.271  69.678  1.00  0.00    -0.419 OA 
HETATM    8  P   UNL     1      -9.521   9.004  70.566  1.00  0.00    -0.260 P  
HETATM    9  P   UNL     1     -12.042   8.373  72.041  1.00  0.00    -0.403 P  
HETATM   10  H   UNL     1     -11.629   8.048  69.271  1.00  0.00     0.000 HD 
HETATM   11  O   UNL     1      -8.507  10.120  70.215  1.00  0.00    -0.051 OA 
HETATM   12  O   UNL     1      -8.841   7.929  69.500  1.00  0.00    -0.140 OA 
HETATM   13  O   UNL     1      -8.622   8.570  71.874  1.00  0.00    -0.169 OA 
HETATM   14  O   UNL     1     -13.120   7.335  71.343  1.00  0.00    -0.376 OA 
HETATM   15  O   UNL     1     -12.264   9.564  70.929  1.00  0.00    -0.292 OA 
HETATM   16  O   UNL     1     -13.162   8.955  72.938  1.00  0.00    -0.333 OA 
ENDBRANCH   5   6
ENDBRANCH   4   5
TORSDOF 2
ENDMDL
MODEL      120
REMARK 921   NORMALIZED FREE ENERGY PREDICTED BY IDOCK:   -3.33 KCAL/MOL
REMARK 922        TOTAL FREE ENERGY PREDICTED BY IDOCK:   -3.69 KCAL/MOL
REMARK 923 INTER-LIGAND FREE ENERGY PREDICTED BY IDOCK:   -3.16 KCAL/MOL
REMARK 924 INTRA-LIGAND FREE ENERGY PREDICTED BY IDOCK:   -0.53 KCAL/MOL
REMARK 927      BINDING AFFINITY PREDICTED BY RF-SCORE:    0.00 PKD
ROOT
HETATM    1  N   UNL     1     -11.707  11.872  67.005  1.00  0.00    -0.589 NA 
HETATM    2  H2  UNL     1     -11.322  11.192  66.350  1.00  0.00     0.000 HD 
HETATM    3  H1  UNL     1     -12.605  12.226  66.676  1.00  0.00     0.000 HD 
HETATM    4  C   UNL     1     -11.770  11.318  68.349  1.00  0.00    -0.294 C  
ENDROOT
BRANCH   4   5
HETATM    5  C   UNL     1     -10.420  10.786  68.844  1.00  0.00    -0.228 C  
BRANCH   5   6
HETATM    6  C   UNL     1      -9.959   9.384  68.323  1.00  0.00    -0.174 C  
HETATM    7  O   UNL     1     -11.141   8.733  67.736  1.00  0.00    -0.485 OA 
HETATM    8  P   UNL     1      -9.394   8.207  69.606  1.00  0.00    -0.158 P  
HETATM    9  P   UNL     1      -8.647   9.591  67.064  1.00  0.00    -0.128 P  
HETATM   10  H   UNL     1     -10.861   7.881  67.420  1.00  0.00     0.000 HD 
HETATM   11  O   UNL     1      -8.915   7.211  70.691  1.00  0.00    -0.152 OA 
HETATM   12  O   UNL     1     -10.945   8.242  70.196  1.00  0.00    -0.248 OA 
HETATM   13  O   UNL     1      -8.825   9.474  70.487  1.00  0.00    -0.233 OA 
HETATM   14  O   UNL     1      -9.809   9.787  65.908  1.00  0.00    -0.248 OA 
HETATM   15  O   UNL     1      -8.583   7.954  66.913  1.00  0.00    -0.124 OA 
HETATM   16  O   UNL     1      -7.537   9.766  65.999  1.00  0.00    -0.097 OA 
ENDBRANCH   5   6
ENDBRANCH   4   5
TORSDOF 2
ENDMDL
MODEL      121
REMARK 921   NORMALIZED FREE ENERGY PREDICTED BY IDOCK:   -3.33 KCAL/MOL
REMARK 922        TOTAL FREE ENERGY PREDICTED BY IDOCK:   -3.68 KCAL/MOL
REMARK 923 INTER-LIGAND FREE ENERGY PREDICTED BY IDOCK:   -3.10 KCAL/MOL
REMARK 924 INTRA-LIGAND FREE ENERGY PREDICTED BY IDOCK:   -0.59 KCAL/MOL
REMARK 927      BINDING AFFINITY PREDICTED BY RF-SCORE:    0.00 PKD
ROOT
HETATM    1  N   UNL     1      -7.257   8.719  72.660  1.00  0.00    -0.339 NA 
HETATM    2  H2  UNL     1      -7.575   9.279  71.869  1.00  0.00     0.000 HD 
HETATM    3  H1  UNL     1      -6.754   9.296  73.334  1.00  0.00     0.000 HD 
HETATM    4  C   UNL     1      -8.363   7.982  73.252  1.00  0.00    -0.211 C  
ENDROOT
BRANCH   4   5
HETATM    5  C   UNL     1      -9.119   7.116  72.238  1.00  0.00    -0.148 C  
BRANCH   5   6
HETATM    6  C   UNL     1     -10.032   7.847  71.198  1.00  0.00    -0.173 C  
HETATM    7  O   UNL     1     -10.013   9.278  71.540  1.00  0.00    -0.307 OA 
HETATM    8  P   UNL     1     -11.806   7.400  71.245  1.00  0.00    -0.324 P  
HETATM    9  P   UNL     1      -9.381   7.582  69.508  1.00  0.00    -0.150 P  
HETATM   10  H   UNL     1     -10.567   9.722  70.908  1.00  0.00     0.000 HD 
HETATM   11  O   UNL     1     -13.307   7.023  71.285  1.00  0.00    -0.346 OA 
HETATM   12  O   UNL     1     -11.840   8.060  72.768  1.00  0.00    -0.372 OA 
HETATM   13  O   UNL     1     -11.388   5.878  71.705  1.00  0.00    -0.273 OA 
HETATM   14  O   UNL     1      -8.361   8.863  69.716  1.00  0.00    -0.115 OA 
HETATM   15  O   UNL     1     -10.622   8.490  68.925  1.00  0.00    -0.213 OA 
HETATM   16  O   UNL     1      -8.830   7.357  68.078  1.00  0.00    -0.127 OA 
ENDBRANCH   5   6
ENDBRANCH   4   5
TORSDOF 2
ENDMDL
MODEL      122
REMARK 921   NORMALIZED FREE ENERGY PREDICTED BY IDOCK:   -3.31 KCAL/MOL
REMARK 922        TOTAL FREE ENERGY PREDICTED BY IDOCK:   -3.66 KCAL/MOL
REMARK 923 INTER-LIGAND FREE ENERGY PREDICTED BY IDOCK:   -3.49 KCAL/MOL
REMARK 924 INTRA-LIGAND FREE ENERGY PREDICTED BY IDOCK:   -0.16 KCAL/MOL
REMARK 927      BINDING AFFINITY PREDICTED BY RF-SCORE:    0.00 PKD
ROOT
HETATM    1  N   UNL     1      -9.550   9.202  65.073  1.00  0.00    -0.422 NA 
HETATM    2  H2  UNL     1      -9.089   9.442  64.195  1.00  0.00     0.000 HD 
HETATM    3  H1  UNL     1      -9.479   8.202  65.259  1.00  0.00     0.000 HD 
HETATM    4  C   UNL     1      -9.048  10.023  66.164  1.00  0.00    -0.156 C  
ENDROOT
BRANCH   4   5
HETATM    5  C   UNL     1      -9.155  11.526  65.884  1.00  0.00    -0.186 C  
BRANCH   5   6
HETATM    6  C   UNL     1      -9.739  12.435  67.017  1.00  0.00    -0.211 C  
HETATM    7  O   UNL     1     -10.192  11.540  68.094  1.00  0.00    -0.182 OA 
HETATM    8  P   UNL     1     -11.234  13.393  66.575  1.00  0.00    -0.326 P  
HETATM    9  P   UNL     1      -8.443  13.573  67.629  1.00  0.00    -0.213 P  
HETATM   10  H   UNL     1     -10.547  12.092  68.782  1.00  0.00     0.000 HD 
HETATM   11  O   UNL     1     -12.499  14.204  66.201  1.00  0.00    -0.466 OA 
HETATM   12  O   UNL     1     -12.008  11.936  66.398  1.00  0.00    -0.572 OA 
HETATM   13  O   UNL     1     -10.680  13.504  65.030  1.00  0.00    -0.317 OA 
HETATM   14  O   UNL     1      -7.917  12.395  68.659  1.00  0.00    -0.122 OA 
HETATM   15  O   UNL     1      -9.539  14.196  68.686  1.00  0.00    -0.215 OA 
HETATM   16  O   UNL     1      -7.347  14.536  68.147  1.00  0.00    -0.106 OA 
ENDBRANCH   5   6
ENDBRANCH   4   5
TORSDOF 2
ENDMDL
MODEL      123
REMARK 921   NORMALIZED FREE ENERGY PREDICTED BY IDOCK:   -3.29 KCAL/MOL
REMARK 922        TOTAL FREE ENERGY PREDICTED BY IDOCK:   -3.64 KCAL/MOL
REMARK 923 INTER-LIGAND FREE ENERGY PREDICTED BY IDOCK:   -3.55 KCAL/MOL
REMARK 924 INTRA-LIGAND FREE ENERGY PREDICTED BY IDOCK:   -0.09 KCAL/MOL
REMARK 927      BINDING AFFINITY PREDICTED BY RF-SCORE:    0.00 PKD
ROOT
HETATM    1  N   UNL     1     -10.269  14.875  70.155  1.00  0.00    -0.482 NA 
HETATM    2  H2  UNL     1      -9.345  14.841  70.586  1.00  0.00     0.000 HD 
HETATM    3  H1  UNL     1     -10.824  15.636  70.545  1.00  0.00     0.000 HD 
HETATM    4  C   UNL     1     -10.163  14.929  68.705  1.00  0.00    -0.243 C  
ENDROOT
BRANCH   4   5
HETATM    5  C   UNL     1      -9.329  13.785  68.119  1.00  0.00    -0.211 C  
BRANCH   5   6
HETATM    6  C   UNL     1      -9.999  12.374  68.024  1.00  0.00    -0.207 C  
HETATM    7  O   UNL     1     -10.541  12.064  69.357  1.00  0.00    -0.442 OA 
HETATM    8  P   UNL     1      -8.869  10.979  67.667  1.00  0.00    -0.135 P  
HETATM    9  P   UNL     1     -11.340  12.407  66.778  1.00  0.00    -0.364 P  
HETATM   10  H   UNL     1     -10.948  11.207  69.299  1.00  0.00     0.000 HD 
HETATM   11  O   UNL     1      -7.913   9.800  67.364  1.00  0.00    -0.102 OA 
HETATM   12  O   UNL     1      -8.154  11.300  69.130  1.00  0.00    -0.093 OA 
HETATM   13  O   UNL     1      -7.935  11.995  66.771  1.00  0.00    -0.145 OA 
HETATM   14  O   UNL     1     -12.377  12.971  67.932  1.00  0.00    -0.129 OA 
HETATM   15  O   UNL     1     -11.631  10.820  67.100  1.00  0.00    -0.385 OA 
HETATM   16  O   UNL     1     -12.473  12.436  65.724  1.00  0.00    -0.615 OA 
ENDBRANCH   5   6
ENDBRANCH   4   5
TORSDOF 2
ENDMDL
MODEL      124
REMARK 921   NORMALIZED FREE ENERGY PREDICTED BY IDOCK:   -3.29 KCAL/MOL
REMARK 922        TOTAL FREE ENERGY PREDICTED BY IDOCK:   -3.64 KCAL/MOL
REMARK 923 INTER-LIGAND FREE ENERGY PREDICTED BY IDOCK:   -3.37 KCAL/MOL
REMARK 924 INTRA-LIGAND FREE ENERGY PREDICTED BY IDOCK:   -0.26 KCAL/MOL
REMARK 927      BINDING AFFINITY PREDICTED BY RF-SCORE:    0.00 PKD
ROOT
HETATM    1  N   UNL     1     -10.156  18.065  67.294  1.00  0.00    -0.326 NA 
HETATM    2  H2  UNL     1      -9.977  18.868  67.896  1.00  0.00     0.000 HD 
HETATM    3  H1  UNL     1     -10.949  18.242  66.678  1.00  0.00     0.000 HD 
HETATM    4  C   UNL     1      -8.952  17.678  66.575  1.00  0.00    -0.262 C  
ENDROOT
BRANCH   4   5
HETATM    5  C   UNL     1      -7.759  17.411  67.501  1.00  0.00    -0.205 C  
BRANCH   5   6
HETATM    6  C   UNL     1      -6.589  18.450  67.493  1.00  0.00    -0.196 C  
HETATM    7  O   UNL     1      -5.333  17.684  67.451  1.00  0.00    -0.124 OA 
HETATM    8  P   UNL     1      -6.432  19.482  68.996  1.00  0.00    -0.335 P  
HETATM    9  P   UNL     1      -6.730  19.532  66.023  1.00  0.00    -0.268 P  
HETATM   10  H   UNL     1      -4.622  18.315  67.447  1.00  0.00     0.000 HD 
HETATM   11  O   UNL     1      -6.299  20.355  70.268  1.00  0.00    -0.408 OA 
HETATM   12  O   UNL     1      -6.096  18.079  69.817  1.00  0.00    -0.246 OA 
HETATM   13  O   UNL     1      -8.066  19.424  69.180  1.00  0.00    -0.320 OA 
HETATM   14  O   UNL     1      -5.914  18.404  65.134  1.00  0.00    -0.230 OA 
HETATM   15  O   UNL     1      -5.373  20.321  66.516  1.00  0.00    -0.169 OA 
HETATM   16  O   UNL     1      -6.849  20.446  64.779  1.00  0.00    -0.285 OA 
ENDBRANCH   5   6
ENDBRANCH   4   5
TORSDOF 2
ENDMDL
MODEL      125
REMARK 921   NORMALIZED FREE ENERGY PREDICTED BY IDOCK:   -3.28 KCAL/MOL
REMARK 922        TOTAL FREE ENERGY PREDICTED BY IDOCK:   -3.63 KCAL/MOL
REMARK 923 INTER-LIGAND FREE ENERGY PREDICTED BY IDOCK:   -3.46 KCAL/MOL
REMARK 924 INTRA-LIGAND FREE ENERGY PREDICTED BY IDOCK:   -0.17 KCAL/MOL
REMARK 927      BINDING AFFINITY PREDICTED BY RF-SCORE:    0.00 PKD
ROOT
HETATM    1  N   UNL     1     -12.638  14.528  67.894  1.00  0.00    -0.283 NA 
HETATM    2  H2  UNL     1     -12.953  15.018  67.057  1.00  0.00     0.000 HD 
HETATM    3  H1  UNL     1     -12.795  13.524  67.809  1.00  0.00     0.000 HD 
HETATM    4  C   UNL     1     -11.257  14.865  68.202  1.00  0.00    -0.299 C  
ENDROOT
BRANCH   4   5
HETATM    5  C   UNL     1     -11.019  16.374  68.331  1.00  0.00    -0.353 C  
BRANCH   5   6
HETATM    6  C   UNL     1      -9.887  17.007  67.456  1.00  0.00    -0.258 C  
HETATM    7  O   UNL     1      -9.095  15.894  66.907  1.00  0.00    -0.207 OA 
HETATM    8  P   UNL     1      -8.661  18.023  68.358  1.00  0.00    -0.264 P  
HETATM    9  P   UNL     1     -10.626  17.997  66.106  1.00  0.00     0.025 P  
HETATM   10  H   UNL     1      -8.407  16.278  66.376  1.00  0.00     0.000 HD 
HETATM   11  O   UNL     1      -7.623  18.883  69.121  1.00  0.00    -0.279 OA 
HETATM   12  O   UNL     1      -8.219  16.631  69.148  1.00  0.00    -0.220 OA 
HETATM   13  O   UNL     1      -9.842  18.474  69.411  1.00  0.00    -0.134 OA 
HETATM   14  O   UNL     1     -10.752  16.628  65.192  1.00  0.00    -0.621 OA 
HETATM   15  O   UNL     1      -9.107  18.363  65.591  1.00  0.00    -0.272 OA 
HETATM   16  O   UNL     1     -11.251  18.835  64.964  1.00  0.00    -0.294 OA 
ENDBRANCH   5   6
ENDBRANCH   4   5
TORSDOF 2
ENDMDL
MODEL      126
REMARK 921   NORMALIZED FREE ENERGY PREDICTED BY IDOCK:   -3.26 KCAL/MOL
REMARK 922        TOTAL FREE ENERGY PREDICTED BY IDOCK:   -3.61 KCAL/MOL
REMARK 923 INTER-LIGAND FREE ENERGY PREDICTED BY IDOCK:   -3.05 KCAL/MOL
REMARK 924 INTRA-LIGAND FREE ENERGY PREDICTED BY IDOCK:   -0.56 KCAL/MOL
REMARK 927      BINDING AFFINITY PREDICTED BY RF-SCORE:    0.00 PKD
ROOT
HETATM    1  N   UNL     1     -10.722  14.626  66.292  1.00  0.00    -0.309 NA 
HETATM    2  H2  UNL     1     -10.305  14.402  67.196  1.00  0.00     0.000 HD 
HETATM    3  H1  UNL     1     -11.656  14.224  66.213  1.00  0.00     0.000 HD 
HETATM    4  C   UNL     1     -10.695  16.060  66.051  1.00  0.00    -0.267 C  
ENDROOT
BRANCH   4   5
HETATM    5  C   UNL     1      -9.291  16.664  66.171  1.00  0.00    -0.318 C  
BRANCH   5   6
HETATM    6  C   UNL     1      -8.550  16.511  67.540  1.00  0.00    -0.177 C  
HETATM    7  O   UNL     1      -9.513  15.924  68.487  1.00  0.00    -0.199 OA 
HETATM    8  P   UNL     1      -8.032  18.073  68.342  1.00  0.00    -0.297 P  
HETATM    9  P   UNL     1      -7.097  15.417  67.340  1.00  0.00    -0.110 P  
HETATM   10  H   UNL     1      -9.063  15.831  69.319  1.00  0.00     0.000 HD 
HETATM   11  O   UNL     1      -7.594  19.394  69.021  1.00  0.00    -0.360 OA 
HETATM   12  O   UNL     1      -9.647  18.437  68.474  1.00  0.00    -0.316 OA 
HETATM   13  O   UNL     1      -7.807  18.737  66.854  1.00  0.00    -0.232 OA 
HETATM   14  O   UNL     1      -8.073  14.105  67.568  1.00  0.00    -0.161 OA 
HETATM   15  O   UNL     1      -6.768  15.619  68.940  1.00  0.00    -0.113 OA 
HETATM   16  O   UNL     1      -5.867  14.491  67.171  1.00  0.00    -0.190 OA 
ENDBRANCH   5   6
ENDBRANCH   4   5
TORSDOF 2
ENDMDL
MODEL      127
REMARK 921   NORMALIZED FREE ENERGY PREDICTED BY IDOCK:   -3.23 KCAL/MOL
REMARK 922        TOTAL FREE ENERGY PREDICTED BY IDOCK:   -3.57 KCAL/MOL
REMARK 923 INTER-LIGAND FREE ENERGY PREDICTED BY IDOCK:   -3.08 KCAL/MOL
REMARK 924 INTRA-LIGAND FREE ENERGY PREDICTED BY IDOCK:   -0.49 KCAL/MOL
REMARK 927      BINDING AFFINITY PREDICTED BY RF-SCORE:    0.00 PKD
ROOT
HETATM    1  N   UNL     1     -10.730   7.339  73.223  1.00  0.00    -0.368 NA 
HETATM    2  H2  UNL     1     -10.112   6.530  73.281  1.00  0.00     0.000 HD 
HETATM    3  H1  UNL     1     -11.136   7.552  74.134  1.00  0.00     0.000 HD 
HETATM    4  C   UNL     1     -10.043   8.473  72.625  1.00  0.00    -0.183 C  
ENDROOT
BRANCH   4   5
HETATM    5  C   UNL     1      -9.433   8.153  71.256  1.00  0.00    -0.199 C  
BRANCH   5   6
HETATM    6  C   UNL     1     -10.336   8.354  69.994  1.00  0.00    -0.211 C  
HETATM    7  O   UNL     1     -11.706   8.592  70.479  1.00  0.00    -0.430 OA 
HETATM    8  P   UNL     1     -10.500   6.900  68.894  1.00  0.00    -0.220 P  
HETATM    9  P   UNL     1      -9.739   9.788  69.026  1.00  0.00    -0.199 P  
HETATM   10  H   UNL     1     -12.255   8.714  69.713  1.00  0.00     0.000 HD 
HETATM   11  O   UNL     1     -10.639   5.671  67.964  1.00  0.00    -0.221 OA 
HETATM   12  O   UNL     1     -11.254   6.137  70.161  1.00  0.00    -0.351 OA 
HETATM   13  O   UNL     1      -8.966   6.457  69.289  1.00  0.00    -0.133 OA 
HETATM   14  O   UNL     1     -10.630  10.790  69.989  1.00  0.00    -0.181 OA 
HETATM   15  O   UNL     1     -10.955   9.522  67.949  1.00  0.00    -0.229 OA 
HETATM   16  O   UNL     1      -9.234  11.000  68.206  1.00  0.00    -0.152 OA 
ENDBRANCH   5   6
ENDBRANCH   4   5
TORSDOF 2
ENDMDL
MODEL      128
REMARK 921   NORMALIZED FREE ENERGY PREDICTED BY IDOCK:   -3.23 KCAL/MOL
REMARK 922        TOTAL FREE ENERGY PREDICTED BY IDOCK:   -3.57 KCAL/MOL
REMARK 923 INTER-LIGAND FREE ENERGY PREDICTED BY IDOCK:   -2.99 KCAL/MOL
REMARK 924 INTRA-LIGAND FREE ENERGY PREDICTED BY IDOCK:   -0.58 KCAL/MOL
REMARK 927      BINDING AFFINITY PREDICTED BY RF-SCORE:    0.00 PKD
ROOT
HETATM    1  N   UNL     1      -8.527  10.151  69.883  1.00  0.00    -0.352 NA 
HETATM    2  H2  UNL     1      -7.885   9.390  70.100  1.00  0.00     0.000 HD 
HETATM    3  H1  UNL     1      -8.326  10.546  68.965  1.00  0.00     0.000 HD 
HETATM    4  C   UNL     1      -9.909   9.720  70.028  1.00  0.00    -0.251 C  
ENDROOT
BRANCH   4   5
HETATM    5  C   UNL     1     -10.213   9.126  71.408  1.00  0.00    -0.402 C  
BRANCH   5   6
HETATM    6  C   UNL     1      -9.547   7.756  71.770  1.00  0.00    -0.163 C  
HETATM    7  O   UNL     1      -8.984   7.210  70.524  1.00  0.00    -0.153 OA 
HETATM    8  P   UNL     1     -10.686   6.449  72.355  1.00  0.00    -0.250 P  
HETATM    9  P   UNL     1      -8.228   8.017  73.011  1.00  0.00    -0.186 P  
HETATM   10  H   UNL     1      -8.580   6.378  70.744  1.00  0.00     0.000 HD 
HETATM   11  O   UNL     1     -11.650   5.343  72.851  1.00  0.00    -0.312 OA 
HETATM   12  O   UNL     1     -11.376   6.497  70.846  1.00  0.00    -0.298 OA 
HETATM   13  O   UNL     1     -11.633   7.610  73.035  1.00  0.00    -0.298 OA 
HETATM   14  O   UNL     1      -7.170   8.363  71.792  1.00  0.00    -0.080 OA 
HETATM   15  O   UNL     1      -7.935   6.399  72.988  1.00  0.00    -0.105 OA 
HETATM   16  O   UNL     1      -7.112   8.238  74.062  1.00  0.00    -0.139 OA 
ENDBRANCH   5   6
ENDBRANCH   4   5
TORSDOF 2
ENDMDL
MODEL      129
REMARK 921   NORMALIZED FREE ENERGY PREDICTED BY IDOCK:   -3.21 KCAL/MOL
REMARK 922        TOTAL FREE ENERGY PREDICTED BY IDOCK:   -3.55 KCAL/MOL
REMARK 923 INTER-LIGAND FREE ENERGY PREDICTED BY IDOCK:   -3.00 KCAL/MOL
REMARK 924 INTRA-LIGAND FREE ENERGY PREDICTED BY IDOCK:   -0.55 KCAL/MOL
REMARK 927      BINDING AFFINITY PREDICTED BY RF-SCORE:    0.00 PKD
ROOT
HETATM    1  N   UNL     1      -8.522   7.416  68.635  1.00  0.00    -0.129 NA 
HETATM    2  H2  UNL     1      -7.875   8.201  68.714  1.00  0.00     0.000 HD 
HETATM    3  H1  UNL     1      -8.144   6.587  69.094  1.00  0.00     0.000 HD 
HETATM    4  C   UNL     1      -9.844   7.784  69.119  1.00  0.00    -0.173 C  
ENDROOT
BRANCH   4   5
HETATM    5  C   UNL     1     -10.411   9.030  68.430  1.00  0.00    -0.234 C  
BRANCH   5   6
HETATM    6  C   UNL     1      -9.823  10.419  68.845  1.00  0.00    -0.200 C  
HETATM    7  O   UNL     1      -9.068  10.211  70.092  1.00  0.00    -0.377 OA 
HETATM    8  P   UNL     1     -11.051  11.706  69.276  1.00  0.00    -0.168 P  
HETATM    9  P   UNL     1      -8.721  11.046  67.525  1.00  0.00    -0.130 P  
HETATM   10  H   UNL     1      -8.711  11.055  70.344  1.00  0.00     0.000 HD 
HETATM   11  O   UNL     1     -12.090  12.794  69.641  1.00  0.00    -0.289 OA 
HETATM   12  O   UNL     1     -11.486  10.737  70.552  1.00  0.00    -0.313 OA 
HETATM   13  O   UNL     1     -12.088  11.053  68.179  1.00  0.00    -0.610 OA 
HETATM   14  O   UNL     1      -7.477  10.174  68.171  1.00  0.00    -0.082 OA 
HETATM   15  O   UNL     1      -8.440  12.382  68.442  1.00  0.00    -0.169 OA 
HETATM   16  O   UNL     1      -7.789  11.576  66.408  1.00  0.00    -0.123 OA 
ENDBRANCH   5   6
ENDBRANCH   4   5
TORSDOF 2
ENDMDL
MODEL      130
REMARK 921   NORMALIZED FREE ENERGY PREDICTED BY IDOCK:   -3.18 KCAL/MOL
REMARK 922        TOTAL FREE ENERGY PREDICTED BY IDOCK:   -3.52 KCAL/MOL
REMARK 923 INTER-LIGAND FREE ENERGY PREDICTED BY IDOCK:   -3.39 KCAL/MOL
REMARK 924 INTRA-LIGAND FREE ENERGY PREDICTED BY IDOCK:   -0.12 KCAL/MOL
REMARK 927      BINDING AFFINITY PREDICTED BY RF-SCORE:    0.00 PKD
ROOT
HETATM    1  N   UNL     1     -11.054   5.269  66.075  1.00  0.00    -0.793 NA 
HETATM    2  H2  UNL     1     -10.330   4.611  66.362  1.00  0.00     0.000 HD 
HETATM    3  H1  UNL     1     -11.956   4.801  65.987  1.00  0.00     0.000 HD 
HETATM    4  C   UNL     1     -11.092   6.419  66.964  1.00  0.00    -0.329 C  
ENDROOT
BRANCH   4   5
HETATM    5  C   UNL     1      -9.735   7.122  67.096  1.00  0.00    -0.212 C  
BRANCH   5   6
HETATM    6  C   UNL     1      -9.725   8.574  67.681  1.00  0.00    -0.160 C  
HETATM    7  O   UNL     1     -11.116   9.056  67.659  1.00  0.00    -0.484 OA 
HETATM    8  P   UNL     1      -8.807   9.818  66.703  1.00  0.00    -0.141 P  
HETATM    9  P   UNL     1      -9.081   8.548  69.394  1.00  0.00    -0.150 P  
HETATM   10  H   UNL     1     -11.110   9.938  68.014  1.00  0.00     0.000 HD 
HETATM   11  O   UNL     1      -8.030  10.871  65.875  1.00  0.00    -0.157 OA 
HETATM   12  O   UNL     1      -9.927   9.571  65.502  1.00  0.00    -0.304 OA 
HETATM   13  O   UNL     1      -7.759   8.641  66.231  1.00  0.00    -0.095 OA 
HETATM   14  O   UNL     1     -10.597   8.193  69.942  1.00  0.00    -0.233 OA 
HETATM   15  O   UNL     1      -9.292  10.178  69.461  1.00  0.00    -0.210 OA 
HETATM   16  O   UNL     1      -8.536   8.526  70.843  1.00  0.00    -0.126 OA 
ENDBRANCH   5   6
ENDBRANCH   4   5
TORSDOF 2
ENDMDL
MODEL      131
REMARK 921   NORMALIZED FREE ENERGY PREDICTED BY IDOCK:   -3.18 KCAL/MOL
REMARK 922        TOTAL FREE ENERGY PREDICTED BY IDOCK:   -3.52 KCAL/MOL
REMARK 923 INTER-LIGAND FREE ENERGY PREDICTED BY IDOCK:   -2.94 KCAL/MOL
REMARK 924 INTRA-LIGAND FREE ENERGY PREDICTED BY IDOCK:   -0.57 KCAL/MOL
REMARK 927      BINDING AFFINITY PREDICTED BY RF-SCORE:    0.00 PKD
ROOT
HETATM    1  N   UNL     1     -10.111   8.247  66.259  1.00  0.00    -0.466 NA 
HETATM    2  H2  UNL     1     -11.010   7.774  66.159  1.00  0.00     0.000 HD 
HETATM    3  H1  UNL     1      -9.854   8.725  65.395  1.00  0.00     0.000 HD 
HETATM    4  C   UNL     1     -10.115   9.126  67.418  1.00  0.00    -0.230 C  
ENDROOT
BRANCH   4   5
HETATM    5  C   UNL     1     -10.501   8.408  68.716  1.00  0.00    -0.202 C  
BRANCH   5   6
HETATM    6  C   UNL     1      -9.391   7.580  69.445  1.00  0.00    -0.152 C  
HETATM    7  O   UNL     1      -8.164   7.706  68.642  1.00  0.00    -0.125 OA 
HETATM    8  P   UNL     1      -9.679   5.775  69.540  1.00  0.00    -0.176 P  
HETATM    9  P   UNL     1      -9.127   8.245  71.130  1.00  0.00    -0.192 P  
HETATM   10  H   UNL     1      -7.490   7.203  69.084  1.00  0.00     0.000 HD 
HETATM   11  O   UNL     1      -9.923   4.248  69.619  1.00  0.00    -0.214 OA 
HETATM   12  O   UNL     1      -9.568   5.760  67.883  1.00  0.00    -0.112 OA 
HETATM   13  O   UNL     1     -11.298   6.060  69.620  1.00  0.00    -0.411 OA 
HETATM   14  O   UNL     1      -8.079   9.359  70.509  1.00  0.00    -0.161 OA 
HETATM   15  O   UNL     1      -7.976   7.093  71.366  1.00  0.00    -0.100 OA 
HETATM   16  O   UNL     1      -8.904   8.807  72.555  1.00  0.00    -0.402 OA 
ENDBRANCH   5   6
ENDBRANCH   4   5
TORSDOF 2
ENDMDL
MODEL      132
REMARK 921   NORMALIZED FREE ENERGY PREDICTED BY IDOCK:   -3.16 KCAL/MOL
REMARK 922        TOTAL FREE ENERGY PREDICTED BY IDOCK:   -3.49 KCAL/MOL
REMARK 923 INTER-LIGAND FREE ENERGY PREDICTED BY IDOCK:   -3.09 KCAL/MOL
REMARK 924 INTRA-LIGAND FREE ENERGY PREDICTED BY IDOCK:   -0.40 KCAL/MOL
REMARK 927      BINDING AFFINITY PREDICTED BY RF-SCORE:    0.00 PKD
ROOT
HETATM    1  N   UNL     1      -8.155   8.681  72.842  1.00  0.00    -0.406 NA 
HETATM    2  H2  UNL     1      -8.679   9.400  72.343  1.00  0.00     0.000 HD 
HETATM    3  H1  UNL     1      -7.335   9.079  73.298  1.00  0.00     0.000 HD 
HETATM    4  C   UNL     1      -9.020   7.952  73.758  1.00  0.00    -0.261 C  
ENDROOT
BRANCH   4   5
HETATM    5  C   UNL     1     -10.254   7.354  73.072  1.00  0.00    -0.335 C  
BRANCH   5   6
HETATM    6  C   UNL     1     -10.027   6.165  72.080  1.00  0.00    -0.167 C  
HETATM    7  O   UNL     1      -8.599   6.172  71.720  1.00  0.00    -0.132 OA 
HETATM    8  P   UNL     1     -10.892   6.295  70.473  1.00  0.00    -0.334 P  
HETATM    9  P   UNL     1     -10.478   4.587  72.890  1.00  0.00    -0.195 P  
HETATM   10  H   UNL     1      -8.462   5.450  71.118  1.00  0.00     0.000 HD 
HETATM   11  O   UNL     1     -11.624   6.405  69.113  1.00  0.00    -0.318 OA 
HETATM   12  O   UNL     1      -9.948   7.627  70.173  1.00  0.00    -0.184 OA 
HETATM   13  O   UNL     1     -12.119   7.095  71.223  1.00  0.00    -0.312 OA 
HETATM   14  O   UNL     1      -8.964   4.507  73.543  1.00  0.00    -0.102 OA 
HETATM   15  O   UNL     1     -10.068   3.799  71.505  1.00  0.00    -0.157 OA 
HETATM   16  O   UNL     1     -10.859   3.251  73.575  1.00  0.00    -0.191 OA 
ENDBRANCH   5   6
ENDBRANCH   4   5
TORSDOF 2
ENDMDL
MODEL      133
REMARK 921   NORMALIZED FREE ENERGY PREDICTED BY IDOCK:   -3.14 KCAL/MOL
REMARK 922        TOTAL FREE ENERGY PREDICTED BY IDOCK:   -3.48 KCAL/MOL
REMARK 923 INTER-LIGAND FREE ENERGY PREDICTED BY IDOCK:   -3.21 KCAL/MOL
REMARK 924 INTRA-LIGAND FREE ENERGY PREDICTED BY IDOCK:   -0.27 KCAL/MOL
REMARK 927      BINDING AFFINITY PREDICTED BY RF-SCORE:    0.00 PKD
ROOT
HETATM    1  N   UNL     1      -8.327   4.416  71.094  1.00  0.00    -0.088 NA 
HETATM    2  H2  UNL     1      -7.914   5.013  70.379  1.00  0.00     0.000 HD 
HETATM    3  H1  UNL     1      -7.626   4.126  71.775  1.00  0.00     0.000 HD 
HETATM    4  C   UNL     1      -9.482   5.060  71.702  1.00  0.00    -0.151 C  
ENDROOT
BRANCH   4   5
HETATM    5  C   UNL     1     -10.536   5.497  70.678  1.00  0.00    -0.342 C  
BRANCH   5   6
HETATM    6  C   UNL     1     -10.603   7.017  70.311  1.00  0.00    -0.226 C  
HETATM    7  O   UNL     1     -12.026   7.395  70.302  1.00  0.00    -0.517 OA 
HETATM    8  P   UNL     1     -10.015   7.457  68.635  1.00  0.00    -0.178 P  
HETATM    9  P   UNL     1      -9.686   7.997  71.556  1.00  0.00    -0.190 P  
HETATM   10  H   UNL     1     -12.067   8.318  70.079  1.00  0.00     0.000 HD 
HETATM   11  O   UNL     1      -9.518   7.828  67.216  1.00  0.00    -0.138 OA 
HETATM   12  O   UNL     1     -11.280   6.554  68.051  1.00  0.00    -0.281 OA 
HETATM   13  O   UNL     1      -8.926   6.227  68.718  1.00  0.00    -0.125 OA 
HETATM   14  O   UNL     1     -11.037   8.028  72.504  1.00  0.00    -0.319 OA 
HETATM   15  O   UNL     1     -10.078   9.359  70.720  1.00  0.00    -0.263 OA 
HETATM   16  O   UNL     1      -8.910   8.826  72.608  1.00  0.00    -0.394 OA 
ENDBRANCH   5   6
ENDBRANCH   4   5
TORSDOF 2
ENDMDL
MODEL      134
REMARK 921   NORMALIZED FREE ENERGY PREDICTED BY IDOCK:   -3.12 KCAL/MOL
REMARK 922        TOTAL FREE ENERGY PREDICTED BY IDOCK:   -3.45 KCAL/MOL
REMARK 923 INTER-LIGAND FREE ENERGY PREDICTED BY IDOCK:   -3.35 KCAL/MOL
REMARK 924 INTRA-LIGAND FREE ENERGY PREDICTED BY IDOCK:   -0.10 KCAL/MOL
REMARK 927      BINDING AFFINITY PREDICTED BY RF-SCORE:    0.00 PKD
ROOT
HETATM    1  N   UNL     1     -11.001   5.659  66.352  1.00  0.00    -0.735 NA 
HETATM    2  H2  UNL     1     -11.941   5.265  66.376  1.00  0.00     0.000 HD 
HETATM    3  H1  UNL     1     -10.737   5.914  65.401  1.00  0.00     0.000 HD 
HETATM    4  C   UNL     1     -10.878   6.761  67.294  1.00  0.00    -0.373 C  
ENDROOT
BRANCH   4   5
HETATM    5  C   UNL     1     -11.274   6.378  68.725  1.00  0.00    -0.358 C  
BRANCH   5   6
HETATM    6  C   UNL     1     -10.135   6.289  69.793  1.00  0.00    -0.176 C  
HETATM    7  O   UNL     1     -10.110   4.899  70.281  1.00  0.00    -0.235 OA 
HETATM    8  P   UNL     1     -10.384   7.287  71.306  1.00  0.00    -0.190 P  
HETATM    9  P   UNL     1      -8.531   6.729  69.029  1.00  0.00    -0.127 P  
HETATM   10  H   UNL     1      -9.418   4.845  70.930  1.00  0.00     0.000 HD 
HETATM   11  O   UNL     1     -10.596   8.132  72.587  1.00  0.00    -0.316 OA 
HETATM   12  O   UNL     1     -11.696   6.320  71.622  1.00  0.00    -0.305 OA 
HETATM   13  O   UNL     1     -11.185   8.408  70.408  1.00  0.00    -0.256 OA 
HETATM   14  O   UNL     1      -8.362   5.168  68.521  1.00  0.00    -0.089 OA 
HETATM   15  O   UNL     1      -7.807   6.477  70.484  1.00  0.00    -0.102 OA 
HETATM   16  O   UNL     1      -7.175   7.103  68.382  1.00  0.00    -0.085 OA 
ENDBRANCH   5   6
ENDBRANCH   4   5
TORSDOF 2
ENDMDL
MODEL      135
REMARK 921   NORMALIZED FREE ENERGY PREDICTED BY IDOCK:   -3.09 KCAL/MOL
REMARK 922        TOTAL FREE ENERGY PREDICTED BY IDOCK:   -3.42 KCAL/MOL
REMARK 923 INTER-LIGAND FREE ENERGY PREDICTED BY IDOCK:   -3.16 KCAL/MOL
REMARK 924 INTRA-LIGAND FREE ENERGY PREDICTED BY IDOCK:   -0.26 KCAL/MOL
REMARK 927      BINDING AFFINITY PREDICTED BY RF-SCORE:    0.00 PKD
ROOT
HETATM    1  N   UNL     1     -12.198  14.663  72.544  1.00  0.00    -0.251 NA 
HETATM    2  H2  UNL     1     -11.384  14.168  72.908  1.00  0.00     0.000 HD 
HETATM    3  H1  UNL     1     -12.856  14.879  73.292  1.00  0.00     0.000 HD 
HETATM    4  C   UNL     1     -11.793  15.836  71.784  1.00  0.00    -0.467 C  
ENDROOT
BRANCH   4   5
HETATM    5  C   UNL     1     -10.803  15.512  70.659  1.00  0.00    -0.333 C  
BRANCH   5   6
HETATM    6  C   UNL     1     -11.345  15.519  69.191  1.00  0.00    -0.328 C  
HETATM    7  O   UNL     1     -12.649  16.203  69.218  1.00  0.00    -0.361 OA 
HETATM    8  P   UNL     1     -11.717  13.877  68.473  1.00  0.00    -0.377 P  
HETATM    9  P   UNL     1     -10.174  16.410  68.102  1.00  0.00    -0.287 P  
HETATM   10  H   UNL     1     -12.978  16.207  68.326  1.00  0.00     0.000 HD 
HETATM   11  O   UNL     1     -12.032  12.488  67.866  1.00  0.00    -0.351 OA 
HETATM   12  O   UNL     1     -12.893  13.734  69.637  1.00  0.00     0.034 OA 
HETATM   13  O   UNL     1     -10.490  13.235  69.361  1.00  0.00     0.094 OA 
HETATM   14  O   UNL     1     -10.896  17.835  68.519  1.00  0.00    -0.224 OA 
HETATM   15  O   UNL     1     -11.182  16.115  66.836  1.00  0.00    -0.076 OA 
HETATM   16  O   UNL     1      -9.184  17.163  67.181  1.00  0.00    -0.228 OA 
ENDBRANCH   5   6
ENDBRANCH   4   5
TORSDOF 2
ENDMDL
MODEL      136
REMARK 921   NORMALIZED FREE ENERGY PREDICTED BY IDOCK:   -3.09 KCAL/MOL
REMARK 922        TOTAL FREE ENERGY PREDICTED BY IDOCK:   -3.42 KCAL/MOL
REMARK 923 INTER-LIGAND FREE ENERGY PREDICTED BY IDOCK:   -2.90 KCAL/MOL
REMARK 924 INTRA-LIGAND FREE ENERGY PREDICTED BY IDOCK:   -0.52 KCAL/MOL
REMARK 927      BINDING AFFINITY PREDICTED BY RF-SCORE:    0.00 PKD
ROOT
HETATM    1  N   UNL     1     -10.368   4.929  69.535  1.00  0.00    -0.180 NA 
HETATM    2  H2  UNL     1     -10.152   5.855  69.166  1.00  0.00     0.000 HD 
HETATM    3  H1  UNL     1     -10.040   4.200  68.903  1.00  0.00     0.000 HD 
HETATM    4  C   UNL     1      -9.861   4.781  70.891  1.00  0.00    -0.209 C  
ENDROOT
BRANCH   4   5
HETATM    5  C   UNL     1     -10.354   5.878  71.841  1.00  0.00    -0.255 C  
BRANCH   5   6
HETATM    6  C   UNL     1      -9.880   7.344  71.565  1.00  0.00    -0.173 C  
HETATM    7  O   UNL     1      -9.039   7.303  70.357  1.00  0.00    -0.154 OA 
HETATM    8  P   UNL     1      -8.793   8.081  72.839  1.00  0.00    -0.257 P  
HETATM    9  P   UNL     1     -11.332   8.426  71.301  1.00  0.00    -0.292 P  
HETATM   10  H   UNL     1      -8.751   8.193  70.189  1.00  0.00     0.000 HD 
HETATM   11  O   UNL     1      -7.874   8.705  73.917  1.00  0.00    -0.406 OA 
HETATM   12  O   UNL     1      -7.681   6.915  72.439  1.00  0.00    -0.094 OA 
HETATM   13  O   UNL     1      -9.583   7.207  73.987  1.00  0.00    -0.248 OA 
HETATM   14  O   UNL     1     -11.350   7.988  69.709  1.00  0.00    -0.062 OA 
HETATM   15  O   UNL     1     -10.305   9.692  71.080  1.00  0.00    -0.294 OA 
HETATM   16  O   UNL     1     -12.561   9.341  71.077  1.00  0.00    -0.278 OA 
ENDBRANCH   5   6
ENDBRANCH   4   5
TORSDOF 2
ENDMDL
MODEL      137
REMARK 921   NORMALIZED FREE ENERGY PREDICTED BY IDOCK:   -3.08 KCAL/MOL
REMARK 922        TOTAL FREE ENERGY PREDICTED BY IDOCK:   -3.41 KCAL/MOL
REMARK 923 INTER-LIGAND FREE ENERGY PREDICTED BY IDOCK:   -2.83 KCAL/MOL
REMARK 924 INTRA-LIGAND FREE ENERGY PREDICTED BY IDOCK:   -0.58 KCAL/MOL
REMARK 927      BINDING AFFINITY PREDICTED BY RF-SCORE:    0.00 PKD
ROOT
HETATM    1  N   UNL     1     -10.946   5.378  66.238  1.00  0.00    -0.742 NA 
HETATM    2  H2  UNL     1     -10.228   4.671  66.400  1.00  0.00     0.000 HD 
HETATM    3  H1  UNL     1     -11.816   4.947  65.926  1.00  0.00     0.000 HD 
HETATM    4  C   UNL     1     -11.115   6.222  67.411  1.00  0.00    -0.287 C  
ENDROOT
BRANCH   4   5
HETATM    5  C   UNL     1      -9.807   6.869  67.881  1.00  0.00    -0.155 C  
BRANCH   5   6
HETATM    6  C   UNL     1      -9.274   8.097  67.070  1.00  0.00    -0.153 C  
HETATM    7  O   UNL     1     -10.149   8.250  65.896  1.00  0.00    -0.410 OA 
HETATM    8  P   UNL     1      -7.599   7.910  66.356  1.00  0.00    -0.094 P  
HETATM    9  P   UNL     1      -9.328   9.599  68.113  1.00  0.00    -0.132 P  
HETATM   10  H   UNL     1      -9.825   8.996  65.404  1.00  0.00     0.000 HD 
HETATM   11  O   UNL     1      -6.183   7.752  65.751  1.00  0.00    -0.041 OA 
HETATM   12  O   UNL     1      -8.231   6.693  65.419  1.00  0.00    -0.131 OA 
HETATM   13  O   UNL     1      -7.182   6.967  67.637  1.00  0.00    -0.085 OA 
HETATM   14  O   UNL     1     -10.905   9.826  67.678  1.00  0.00    -0.282 OA 
HETATM   15  O   UNL     1      -8.715  10.456  66.849  1.00  0.00    -0.127 OA 
HETATM   16  O   UNL     1      -9.374  10.871  68.996  1.00  0.00    -0.188 OA 
ENDBRANCH   5   6
ENDBRANCH   4   5
TORSDOF 2
ENDMDL
MODEL      138
REMARK 921   NORMALIZED FREE ENERGY PREDICTED BY IDOCK:   -3.07 KCAL/MOL
REMARK 922        TOTAL FREE ENERGY PREDICTED BY IDOCK:   -3.39 KCAL/MOL
REMARK 923 INTER-LIGAND FREE ENERGY PREDICTED BY IDOCK:   -3.37 KCAL/MOL
REMARK 924 INTRA-LIGAND FREE ENERGY PREDICTED BY IDOCK:   -0.02 KCAL/MOL
REMARK 927      BINDING AFFINITY PREDICTED BY RF-SCORE:    0.00 PKD
ROOT
HETATM    1  N   UNL     1      -6.868  11.877  66.472  1.00  0.00    -0.373 NA 
HETATM    2  H2  UNL     1      -6.313  12.300  67.216  1.00  0.00     0.000 HD 
HETATM    3  H1  UNL     1      -6.282  11.643  65.671  1.00  0.00     0.000 HD 
HETATM    4  C   UNL     1      -7.628  10.742  66.974  1.00  0.00    -0.114 C  
ENDROOT
BRANCH   4   5
HETATM    5  C   UNL     1      -8.508  11.092  68.179  1.00  0.00    -0.135 C  
BRANCH   5   6
HETATM    6  C   UNL     1     -10.056  11.144  67.955  1.00  0.00    -0.174 C  
HETATM    7  O   UNL     1     -10.380  10.116  66.952  1.00  0.00    -0.224 OA 
HETATM    8  P   UNL     1     -10.702  12.695  67.230  1.00  0.00    -0.247 P  
HETATM    9  P   UNL     1     -10.922  10.800  69.530  1.00  0.00    -0.254 P  
HETATM   10  H   UNL     1     -11.320  10.148  66.816  1.00  0.00     0.000 HD 
HETATM   11  O   UNL     1     -11.249  14.007  66.616  1.00  0.00    -0.310 OA 
HETATM   12  O   UNL     1      -9.826  12.320  65.871  1.00  0.00    -0.247 OA 
HETATM   13  O   UNL     1      -9.511  13.526  68.002  1.00  0.00    -0.206 OA 
HETATM   14  O   UNL     1     -10.796   9.181  69.228  1.00  0.00    -0.213 OA 
HETATM   15  O   UNL     1     -12.354  10.974  68.740  1.00  0.00    -0.533 OA 
HETATM   16  O   UNL     1     -11.654  10.509  70.863  1.00  0.00    -0.338 OA 
ENDBRANCH   5   6
ENDBRANCH   4   5
TORSDOF 2
ENDMDL
MODEL      139
REMARK 921   NORMALIZED FREE ENERGY PREDICTED BY IDOCK:   -3.05 KCAL/MOL
REMARK 922        TOTAL FREE ENERGY PREDICTED BY IDOCK:   -3.38 KCAL/MOL
REMARK 923 INTER-LIGAND FREE ENERGY PREDICTED BY IDOCK:   -3.77 KCAL/MOL
REMARK 924 INTRA-LIGAND FREE ENERGY PREDICTED BY IDOCK:    0.39 KCAL/MOL
REMARK 927      BINDING AFFINITY PREDICTED BY RF-SCORE:    0.00 PKD
ROOT
HETATM    1  N   UNL     1     -12.532  15.038  69.493  1.00  0.00    -0.581 NA 
HETATM    2  H2  UNL     1     -12.428  14.654  68.554  1.00  0.00     0.000 HD 
HETATM    3  H1  UNL     1     -13.124  14.438  70.067  1.00  0.00     0.000 HD 
HETATM    4  C   UNL     1     -11.233  15.301  70.092  1.00  0.00    -0.291 C  
ENDROOT
BRANCH   4   5
HETATM    5  C   UNL     1     -10.343  16.202  69.229  1.00  0.00    -0.265 C  
BRANCH   5   6
HETATM    6  C   UNL     1      -9.957  15.688  67.803  1.00  0.00    -0.223 C  
HETATM    7  O   UNL     1     -11.211  15.319  67.125  1.00  0.00    -0.334 OA 
HETATM    8  P   UNL     1      -8.956  14.157  67.754  1.00  0.00    -0.211 P  
HETATM    9  P   UNL     1      -9.093  17.011  66.879  1.00  0.00    -0.258 P  
HETATM   10  H   UNL     1     -10.976  15.006  66.258  1.00  0.00     0.000 HD 
HETATM   11  O   UNL     1      -8.109  12.861  67.713  1.00  0.00    -0.140 OA 
HETATM   12  O   UNL     1     -10.263  13.387  68.429  1.00  0.00    -0.243 OA 
HETATM   13  O   UNL     1      -8.245  14.603  69.169  1.00  0.00    -0.142 OA 
HETATM   14  O   UNL     1     -10.555  17.618  66.412  1.00  0.00    -0.308 OA 
HETATM   15  O   UNL     1      -8.959  15.984  65.601  1.00  0.00    -0.331 OA 
HETATM   16  O   UNL     1      -8.362  18.131  66.098  1.00  0.00    -0.440 OA 
ENDBRANCH   5   6
ENDBRANCH   4   5
TORSDOF 2
ENDMDL
MODEL      140
REMARK 921   NORMALIZED FREE ENERGY PREDICTED BY IDOCK:   -3.05 KCAL/MOL
REMARK 922        TOTAL FREE ENERGY PREDICTED BY IDOCK:   -3.37 KCAL/MOL
REMARK 923 INTER-LIGAND FREE ENERGY PREDICTED BY IDOCK:   -2.92 KCAL/MOL
REMARK 924 INTRA-LIGAND FREE ENERGY PREDICTED BY IDOCK:   -0.46 KCAL/MOL
REMARK 927      BINDING AFFINITY PREDICTED BY RF-SCORE:    0.00 PKD
ROOT
HETATM    1  N   UNL     1      -7.928   9.728  70.872  1.00  0.00    -0.371 NA 
HETATM    2  H2  UNL     1      -7.527  10.579  70.477  1.00  0.00     0.000 HD 
HETATM    3  H1  UNL     1      -7.825   9.716  71.887  1.00  0.00     0.000 HD 
HETATM    4  C   UNL     1      -9.305   9.553  70.436  1.00  0.00    -0.257 C  
ENDROOT
BRANCH   4   5
HETATM    5  C   UNL     1      -9.459   9.572  68.911  1.00  0.00    -0.155 C  
BRANCH   5   6
HETATM    6  C   UNL     1      -9.273  10.944  68.180  1.00  0.00    -0.158 C  
HETATM    7  O   UNL     1      -8.862  11.922  69.201  1.00  0.00    -0.347 OA 
HETATM    8  P   UNL     1     -10.787  11.669  67.451  1.00  0.00    -0.283 P  
HETATM    9  P   UNL     1      -7.987  10.788  66.887  1.00  0.00    -0.144 P  
HETATM   10  H   UNL     1      -8.749  12.755  68.758  1.00  0.00     0.000 HD 
HETATM   11  O   UNL     1     -12.068  12.282  66.835  1.00  0.00    -0.583 OA 
HETATM   12  O   UNL     1     -11.367  11.792  69.002  1.00  0.00    -0.234 OA 
HETATM   13  O   UNL     1     -11.346  10.150  67.158  1.00  0.00    -0.172 OA 
HETATM   14  O   UNL     1      -6.828  11.083  68.025  1.00  0.00    -0.066 OA 
HETATM   15  O   UNL     1      -8.218  12.374  66.516  1.00  0.00    -0.010 OA 
HETATM   16  O   UNL     1      -6.900  10.656  65.793  1.00  0.00    -0.133 OA 
ENDBRANCH   5   6
ENDBRANCH   4   5
TORSDOF 2
ENDMDL
MODEL      141
REMARK 921   NORMALIZED FREE ENERGY PREDICTED BY IDOCK:   -3.04 KCAL/MOL
REMARK 922        TOTAL FREE ENERGY PREDICTED BY IDOCK:   -3.36 KCAL/MOL
REMARK 923 INTER-LIGAND FREE ENERGY PREDICTED BY IDOCK:   -3.05 KCAL/MOL
REMARK 924 INTRA-LIGAND FREE ENERGY PREDICTED BY IDOCK:   -0.31 KCAL/MOL
REMARK 927      BINDING AFFINITY PREDICTED BY RF-SCORE:    0.00 PKD
ROOT
HETATM    1  N   UNL     1      -7.544   9.745  65.168  1.00  0.00    -0.119 NA 
HETATM    2  H2  UNL     1      -7.357   9.363  66.095  1.00  0.00     0.000 HD 
HETATM    3  H1  UNL     1      -7.385   9.043  64.447  1.00  0.00     0.000 HD 
HETATM    4  C   UNL     1      -8.874  10.333  65.110  1.00  0.00    -0.184 C  
ENDROOT
BRANCH   4   5
HETATM    5  C   UNL     1      -9.113  11.389  66.195  1.00  0.00    -0.217 C  
BRANCH   5   6
HETATM    6  C   UNL     1      -9.843  10.932  67.502  1.00  0.00    -0.168 C  
HETATM    7  O   UNL     1     -10.640   9.744  67.156  1.00  0.00    -0.252 OA 
HETATM    8  P   UNL     1     -11.069  12.110  68.180  1.00  0.00    -0.296 P  
HETATM    9  P   UNL     1      -8.609  10.526  68.791  1.00  0.00    -0.155 P  
HETATM   10  H   UNL     1     -11.083   9.467  67.950  1.00  0.00     0.000 HD 
HETATM   11  O   UNL     1     -12.107  13.106  68.753  1.00  0.00    -0.310 OA 
HETATM   12  O   UNL     1     -11.941  11.866  66.788  1.00  0.00    -0.613 OA 
HETATM   13  O   UNL     1     -10.153  13.354  67.616  1.00  0.00    -0.222 OA 
HETATM   14  O   UNL     1      -8.483   9.002  68.169  1.00  0.00    -0.127 OA 
HETATM   15  O   UNL     1      -9.847  10.154  69.809  1.00  0.00    -0.232 OA 
HETATM   16  O   UNL     1      -7.566  10.183  69.882  1.00  0.00    -0.152 OA 
ENDBRANCH   5   6
ENDBRANCH   4   5
TORSDOF 2
ENDMDL
MODEL      142
REMARK 921   NORMALIZED FREE ENERGY PREDICTED BY IDOCK:   -3.02 KCAL/MOL
REMARK 922        TOTAL FREE ENERGY PREDICTED BY IDOCK:   -3.34 KCAL/MOL
REMARK 923 INTER-LIGAND FREE ENERGY PREDICTED BY IDOCK:   -2.78 KCAL/MOL
REMARK 924 INTRA-LIGAND FREE ENERGY PREDICTED BY IDOCK:   -0.56 KCAL/MOL
REMARK 927      BINDING AFFINITY PREDICTED BY RF-SCORE:    0.00 PKD
ROOT
HETATM    1  N   UNL     1      -7.073  10.764  70.291  1.00  0.00    -0.475 NA 
HETATM    2  H2  UNL     1      -6.144  10.344  70.297  1.00  0.00     0.000 HD 
HETATM    3  H1  UNL     1      -7.032  11.732  69.973  1.00  0.00     0.000 HD 
HETATM    4  C   UNL     1      -8.004   9.951  69.523  1.00  0.00    -0.148 C  
ENDROOT
BRANCH   4   5
HETATM    5  C   UNL     1      -8.065   8.495  70.000  1.00  0.00    -0.111 C  
BRANCH   5   6
HETATM    6  C   UNL     1      -9.034   8.160  71.182  1.00  0.00    -0.146 C  
HETATM    7  O   UNL     1      -9.645   9.429  71.611  1.00  0.00    -0.260 OA 
HETATM    8  P   UNL     1      -8.242   7.512  72.699  1.00  0.00    -0.129 P  
HETATM    9  P   UNL     1     -10.320   6.987  70.616  1.00  0.00    -0.212 P  
HETATM   10  H   UNL     1     -10.233   9.226  72.329  1.00  0.00     0.000 HD 
HETATM   11  O   UNL     1      -7.572   6.964  73.983  1.00  0.00    -0.101 OA 
HETATM   12  O   UNL     1      -7.488   8.985  72.828  1.00  0.00    -0.331 OA 
HETATM   13  O   UNL     1      -7.095   6.791  71.766  1.00  0.00    -0.073 OA 
HETATM   14  O   UNL     1     -11.216   8.260  70.065  1.00  0.00    -0.203 OA 
HETATM   15  O   UNL     1     -10.963   7.017  72.130  1.00  0.00    -0.223 OA 
HETATM   16  O   UNL     1     -11.408   5.995  70.138  1.00  0.00    -0.372 OA 
ENDBRANCH   5   6
ENDBRANCH   4   5
TORSDOF 2
ENDMDL
MODEL      143
REMARK 921   NORMALIZED FREE ENERGY PREDICTED BY IDOCK:   -3.01 KCAL/MOL
REMARK 922        TOTAL FREE ENERGY PREDICTED BY IDOCK:   -3.33 KCAL/MOL
REMARK 923 INTER-LIGAND FREE ENERGY PREDICTED BY IDOCK:   -3.13 KCAL/MOL
REMARK 924 INTRA-LIGAND FREE ENERGY PREDICTED BY IDOCK:   -0.20 KCAL/MOL
REMARK 927      BINDING AFFINITY PREDICTED BY RF-SCORE:    0.00 PKD
ROOT
HETATM    1  N   UNL     1      -7.752   5.963  74.140  1.00  0.00    -0.095 NA 
HETATM    2  H2  UNL     1      -8.301   5.220  74.571  1.00  0.00     0.000 HD 
HETATM    3  H1  UNL     1      -6.819   6.010  74.550  1.00  0.00     0.000 HD 
HETATM    4  C   UNL     1      -7.733   5.820  72.693  1.00  0.00    -0.101 C  
ENDROOT
BRANCH   4   5
HETATM    5  C   UNL     1      -9.134   5.750  72.076  1.00  0.00    -0.143 C  
BRANCH   5   6
HETATM    6  C   UNL     1     -10.036   7.024  72.179  1.00  0.00    -0.181 C  
HETATM    7  O   UNL     1     -10.288   7.258  73.611  1.00  0.00    -0.347 OA 
HETATM    8  P   UNL     1     -11.709   6.875  71.451  1.00  0.00    -0.355 P  
HETATM    9  P   UNL     1      -9.173   8.457  71.436  1.00  0.00    -0.230 P  
HETATM   10  H   UNL     1     -10.836   8.032  73.673  1.00  0.00     0.000 HD 
HETATM   11  O   UNL     1     -13.124   6.749  70.835  1.00  0.00    -0.158 OA 
HETATM   12  O   UNL     1     -12.014   5.725  72.609  1.00  0.00    -0.250 OA 
HETATM   13  O   UNL     1     -11.100   5.849  70.318  1.00  0.00    -0.327 OA 
HETATM   14  O   UNL     1      -8.404   8.719  72.874  1.00  0.00    -0.414 OA 
HETATM   15  O   UNL     1     -10.475   9.390  71.808  1.00  0.00    -0.282 OA 
HETATM   16  O   UNL     1      -8.442   9.668  70.808  1.00  0.00    -0.245 OA 
ENDBRANCH   5   6
ENDBRANCH   4   5
TORSDOF 2
ENDMDL
MODEL      144
REMARK 921   NORMALIZED FREE ENERGY PREDICTED BY IDOCK:   -3.01 KCAL/MOL
REMARK 922        TOTAL FREE ENERGY PREDICTED BY IDOCK:   -3.33 KCAL/MOL
REMARK 923 INTER-LIGAND FREE ENERGY PREDICTED BY IDOCK:   -2.84 KCAL/MOL
REMARK 924 INTRA-LIGAND FREE ENERGY PREDICTED BY IDOCK:   -0.49 KCAL/MOL
REMARK 927      BINDING AFFINITY PREDICTED BY RF-SCORE:    0.00 PKD
ROOT
HETATM    1  N   UNL     1     -10.053  10.746  69.470  1.00  0.00    -0.419 NA 
HETATM    2  H2  UNL     1      -9.755  10.159  68.691  1.00  0.00     0.000 HD 
HETATM    3  H1  UNL     1     -10.579  11.553  69.137  1.00  0.00     0.000 HD 
HETATM    4  C   UNL     1     -10.776   9.963  70.461  1.00  0.00    -0.317 C  
ENDROOT
BRANCH   4   5
HETATM    5  C   UNL     1      -9.985   8.749  70.963  1.00  0.00    -0.297 C  
BRANCH   5   6
HETATM    6  C   UNL     1      -9.711   7.593  69.945  1.00  0.00    -0.175 C  
HETATM    7  O   UNL     1     -10.661   7.762  68.834  1.00  0.00    -0.345 OA 
HETATM    8  P   UNL     1     -10.040   5.900  70.559  1.00  0.00    -0.224 P  
HETATM    9  P   UNL     1      -7.987   7.697  69.338  1.00  0.00    -0.129 P  
HETATM   10  H   UNL     1     -10.495   7.060  68.216  1.00  0.00     0.000 HD 
HETATM   11  O   UNL     1     -10.318   4.468  71.078  1.00  0.00    -0.142 OA 
HETATM   12  O   UNL     1     -11.634   6.347  70.673  1.00  0.00    -0.356 OA 
HETATM   13  O   UNL     1      -9.597   6.384  72.067  1.00  0.00    -0.153 OA 
HETATM   14  O   UNL     1      -8.475   8.775  68.187  1.00  0.00    -0.128 OA 
HETATM   15  O   UNL     1      -8.272   6.370  68.408  1.00  0.00    -0.112 OA 
HETATM   16  O   UNL     1      -6.529   7.785  68.824  1.00  0.00    -0.042 OA 
ENDBRANCH   5   6
ENDBRANCH   4   5
TORSDOF 2
ENDMDL
MODEL      145
REMARK 921   NORMALIZED FREE ENERGY PREDICTED BY IDOCK:   -2.96 KCAL/MOL
REMARK 922        TOTAL FREE ENERGY PREDICTED BY IDOCK:   -3.28 KCAL/MOL
REMARK 923 INTER-LIGAND FREE ENERGY PREDICTED BY IDOCK:   -2.70 KCAL/MOL
REMARK 924 INTRA-LIGAND FREE ENERGY PREDICTED BY IDOCK:   -0.58 KCAL/MOL
REMARK 927      BINDING AFFINITY PREDICTED BY RF-SCORE:    0.00 PKD
ROOT
HETATM    1  N   UNL     1      -8.582   7.702  68.566  1.00  0.00    -0.129 NA 
HETATM    2  H2  UNL     1      -7.575   7.548  68.616  1.00  0.00     0.000 HD 
HETATM    3  H1  UNL     1      -8.867   7.939  67.616  1.00  0.00     0.000 HD 
HETATM    4  C   UNL     1      -9.307   6.564  69.112  1.00  0.00    -0.133 C  
ENDROOT
BRANCH   4   5
HETATM    5  C   UNL     1      -8.878   6.207  70.540  1.00  0.00    -0.146 C  
BRANCH   5   6
HETATM    6  C   UNL     1      -9.509   7.029  71.713  1.00  0.00    -0.152 C  
HETATM    7  O   UNL     1     -10.362   8.063  71.104  1.00  0.00    -0.195 OA 
HETATM    8  P   UNL     1      -8.330   7.974  72.745  1.00  0.00    -0.184 P  
HETATM    9  P   UNL     1     -10.504   5.923  72.780  1.00  0.00    -0.238 P  
HETATM   10  H   UNL     1     -10.745   8.562  71.817  1.00  0.00     0.000 HD 
HETATM   11  O   UNL     1      -7.332   8.774  73.618  1.00  0.00    -0.373 OA 
HETATM   12  O   UNL     1      -7.994   8.867  71.387  1.00  0.00    -0.190 OA 
HETATM   13  O   UNL     1      -7.202   6.804  72.488  1.00  0.00    -0.075 OA 
HETATM   14  O   UNL     1     -11.790   6.127  71.766  1.00  0.00    -0.299 OA 
HETATM   15  O   UNL     1     -10.869   7.220  73.724  1.00  0.00    -0.300 OA 
HETATM   16  O   UNL     1     -11.345   4.987  73.683  1.00  0.00    -0.286 OA 
ENDBRANCH   5   6
ENDBRANCH   4   5
TORSDOF 2
ENDMDL
MODEL      146
REMARK 921   NORMALIZED FREE ENERGY PREDICTED BY IDOCK:   -2.96 KCAL/MOL
REMARK 922        TOTAL FREE ENERGY PREDICTED BY IDOCK:   -3.28 KCAL/MOL
REMARK 923 INTER-LIGAND FREE ENERGY PREDICTED BY IDOCK:   -3.22 KCAL/MOL
REMARK 924 INTRA-LIGAND FREE ENERGY PREDICTED BY IDOCK:   -0.05 KCAL/MOL
REMARK 927      BINDING AFFINITY PREDICTED BY RF-SCORE:    0.00 PKD
ROOT
HETATM    1  N   UNL     1      -7.099  10.699  70.281  1.00  0.00    -0.458 NA 
HETATM    2  H2  UNL     1      -6.721   9.960  70.874  1.00  0.00     0.000 HD 
HETATM    3  H1  UNL     1      -6.359  11.143  69.738  1.00  0.00     0.000 HD 
HETATM    4  C   UNL     1      -8.188  10.196  69.458  1.00  0.00    -0.168 C  
ENDROOT
BRANCH   4   5
HETATM    5  C   UNL     1      -9.300   9.528  70.275  1.00  0.00    -0.305 C  
BRANCH   5   6
HETATM    6  C   UNL     1     -10.201   8.475  69.548  1.00  0.00    -0.206 C  
HETATM    7  O   UNL     1     -11.600   8.838  69.829  1.00  0.00    -0.437 OA 
HETATM    8  P   UNL     1     -10.057   6.753  70.153  1.00  0.00    -0.182 P  
HETATM    9  P   UNL     1      -9.875   8.518  67.748  1.00  0.00    -0.199 P  
HETATM   10  H   UNL     1     -12.147   8.198  69.388  1.00  0.00     0.000 HD 
HETATM   11  O   UNL     1      -9.936   5.297  70.665  1.00  0.00    -0.189 OA 
HETATM   12  O   UNL     1     -10.672   7.302  71.594  1.00  0.00    -0.215 OA 
HETATM   13  O   UNL     1      -8.474   7.032  70.503  1.00  0.00    -0.130 OA 
HETATM   14  O   UNL     1     -10.962   9.752  67.596  1.00  0.00    -0.280 OA 
HETATM   15  O   UNL     1     -10.995   7.328  67.552  1.00  0.00    -0.226 OA 
HETATM   16  O   UNL     1      -9.600   8.554  66.224  1.00  0.00    -0.225 OA 
ENDBRANCH   5   6
ENDBRANCH   4   5
TORSDOF 2
ENDMDL
MODEL      147
REMARK 921   NORMALIZED FREE ENERGY PREDICTED BY IDOCK:   -2.96 KCAL/MOL
REMARK 922        TOTAL FREE ENERGY PREDICTED BY IDOCK:   -3.27 KCAL/MOL
REMARK 923 INTER-LIGAND FREE ENERGY PREDICTED BY IDOCK:   -2.77 KCAL/MOL
REMARK 924 INTRA-LIGAND FREE ENERGY PREDICTED BY IDOCK:   -0.51 KCAL/MOL
REMARK 927      BINDING AFFINITY PREDICTED BY RF-SCORE:    0.00 PKD
ROOT
HETATM    1  N   UNL     1     -11.162  12.049  69.741  1.00  0.00    -0.490 NA 
HETATM    2  H2  UNL     1     -10.771  12.847  69.240  1.00  0.00     0.000 HD 
HETATM    3  H1  UNL     1     -11.732  12.359  70.528  1.00  0.00     0.000 HD 
HETATM    4  C   UNL     1     -11.875  11.164  68.833  1.00  0.00    -0.337 C  
ENDROOT
BRANCH   4   5
HETATM    5  C   UNL     1     -11.018  10.699  67.650  1.00  0.00    -0.370 C  
BRANCH   5   6
HETATM    6  C   UNL     1      -9.738   9.858  67.969  1.00  0.00    -0.140 C  
HETATM    7  O   UNL     1      -9.661   9.729  69.433  1.00  0.00    -0.179 OA 
HETATM    8  P   UNL     1      -8.145  10.628  67.504  1.00  0.00    -0.112 P  
HETATM    9  P   UNL     1      -9.869   8.209  67.186  1.00  0.00    -0.271 P  
HETATM   10  H   UNL     1      -8.884   9.219  69.627  1.00  0.00     0.000 HD 
HETATM   11  O   UNL     1      -6.796  11.281  67.112  1.00  0.00    -0.095 OA 
HETATM   12  O   UNL     1      -8.488  11.804  68.625  1.00  0.00    -0.142 OA 
HETATM   13  O   UNL     1      -8.892  11.354  66.231  1.00  0.00    -0.191 OA 
HETATM   14  O   UNL     1     -10.714   7.670  68.498  1.00  0.00    -0.158 OA 
HETATM   15  O   UNL     1      -8.395   7.833  67.812  1.00  0.00    -0.123 OA 
HETATM   16  O   UNL     1      -9.980   6.813  66.523  1.00  0.00    -0.158 OA 
ENDBRANCH   5   6
ENDBRANCH   4   5
TORSDOF 2
ENDMDL
MODEL      148
REMARK 921   NORMALIZED FREE ENERGY PREDICTED BY IDOCK:   -2.96 KCAL/MOL
REMARK 922        TOTAL FREE ENERGY PREDICTED BY IDOCK:   -3.27 KCAL/MOL
REMARK 923 INTER-LIGAND FREE ENERGY PREDICTED BY IDOCK:   -2.68 KCAL/MOL
REMARK 924 INTRA-LIGAND FREE ENERGY PREDICTED BY IDOCK:   -0.59 KCAL/MOL
REMARK 927      BINDING AFFINITY PREDICTED BY RF-SCORE:    0.00 PKD
ROOT
HETATM    1  N   UNL     1     -11.156   8.830  72.182  1.00  0.00    -0.363 NA 
HETATM    2  H2  UNL     1     -10.164   8.656  72.021  1.00  0.00     0.000 HD 
HETATM    3  H1  UNL     1     -11.331   9.060  73.159  1.00  0.00     0.000 HD 
HETATM    4  C   UNL     1     -11.662   9.835  71.259  1.00  0.00    -0.394 C  
ENDROOT
BRANCH   4   5
HETATM    5  C   UNL     1     -11.399   9.490  69.789  1.00  0.00    -0.117 C  
BRANCH   5   6
HETATM    6  C   UNL     1      -9.925   9.593  69.273  1.00  0.00    -0.191 C  
HETATM    7  O   UNL     1      -9.123  10.155  70.372  1.00  0.00    -0.312 OA 
HETATM    8  P   UNL     1      -9.650  10.751  67.883  1.00  0.00    -0.167 P  
HETATM    9  P   UNL     1      -9.311   7.931  68.814  1.00  0.00    -0.146 P  
HETATM   10  H   UNL     1      -8.228  10.218  70.059  1.00  0.00     0.000 HD 
HETATM   11  O   UNL     1      -9.416  11.731  66.707  1.00  0.00    -0.184 OA 
HETATM   12  O   UNL     1     -10.098  11.966  68.922  1.00  0.00    -0.158 OA 
HETATM   13  O   UNL     1     -11.159  10.408  67.327  1.00  0.00    -0.278 OA 
HETATM   14  O   UNL     1      -8.884   7.672  70.388  1.00  0.00    -0.142 OA 
HETATM   15  O   UNL     1      -7.874   8.616  68.397  1.00  0.00    -0.102 OA 
HETATM   16  O   UNL     1      -8.791   6.526  68.426  1.00  0.00    -0.124 OA 
ENDBRANCH   5   6
ENDBRANCH   4   5
TORSDOF 2
ENDMDL
MODEL      149
REMARK 921   NORMALIZED FREE ENERGY PREDICTED BY IDOCK:   -2.94 KCAL/MOL
REMARK 922        TOTAL FREE ENERGY PREDICTED BY IDOCK:   -3.25 KCAL/MOL
REMARK 923 INTER-LIGAND FREE ENERGY PREDICTED BY IDOCK:   -2.72 KCAL/MOL
REMARK 924 INTRA-LIGAND FREE ENERGY PREDICTED BY IDOCK:   -0.53 KCAL/MOL
REMARK 927      BINDING AFFINITY PREDICTED BY RF-SCORE:    0.00 PKD
ROOT
HETATM    1  N   UNL     1      -9.158   7.536  74.443  1.00  0.00    -0.431 NA 
HETATM    2  H2  UNL     1      -9.798   8.160  73.953  1.00  0.00     0.000 HD 
HETATM    3  H1  UNL     1      -9.440   7.418  75.416  1.00  0.00     0.000 HD 
HETATM    4  C   UNL     1      -9.019   6.274  73.733  1.00  0.00    -0.128 C  
ENDROOT
BRANCH   4   5
HETATM    5  C   UNL     1      -8.596   6.451  72.270  1.00  0.00    -0.117 C  
BRANCH   5   6
HETATM    6  C   UNL     1      -9.720   6.743  71.221  1.00  0.00    -0.172 C  
HETATM    7  O   UNL     1     -11.009   6.575  71.913  1.00  0.00    -0.233 OA 
HETATM    8  P   UNL     1      -9.815   5.579  69.812  1.00  0.00    -0.236 P  
HETATM    9  P   UNL     1      -9.549   8.452  70.589  1.00  0.00    -0.185 P  
HETATM   10  H   UNL     1     -11.691   6.752  71.275  1.00  0.00     0.000 HD 
HETATM   11  O   UNL     1      -9.895   4.593  68.621  1.00  0.00    -0.161 OA 
HETATM   12  O   UNL     1     -10.202   4.407  70.922  1.00  0.00    -0.164 OA 
HETATM   13  O   UNL     1      -8.183   5.385  69.891  1.00  0.00    -0.093 OA 
HETATM   14  O   UNL     1     -10.422   9.000  71.878  1.00  0.00    -0.343 OA 
HETATM   15  O   UNL     1     -10.864   8.194  69.635  1.00  0.00    -0.232 OA 
HETATM   16  O   UNL     1      -9.404   9.898  70.054  1.00  0.00    -0.227 OA 
ENDBRANCH   5   6
ENDBRANCH   4   5
TORSDOF 2
ENDMDL
MODEL      150
REMARK 921   NORMALIZED FREE ENERGY PREDICTED BY IDOCK:   -2.93 KCAL/MOL
REMARK 922        TOTAL FREE ENERGY PREDICTED BY IDOCK:   -3.24 KCAL/MOL
REMARK 923 INTER-LIGAND FREE ENERGY PREDICTED BY IDOCK:   -2.68 KCAL/MOL
REMARK 924 INTRA-LIGAND FREE ENERGY PREDICTED BY IDOCK:   -0.56 KCAL/MOL
REMARK 927      BINDING AFFINITY PREDICTED BY RF-SCORE:    0.00 PKD
ROOT
HETATM    1  N   UNL     1     -10.480  11.415  67.312  1.00  0.00    -0.198 NA 
HETATM    2  H2  UNL     1      -9.642  11.432  66.733  1.00  0.00     0.000 HD 
HETATM    3  H1  UNL     1     -11.216  11.991  66.904  1.00  0.00     0.000 HD 
HETATM    4  C   UNL     1     -10.904  10.048  67.572  1.00  0.00    -0.265 C  
ENDROOT
BRANCH   4   5
HETATM    5  C   UNL     1      -9.798   9.182  68.186  1.00  0.00    -0.188 C  
BRANCH   5   6
HETATM    6  C   UNL     1      -9.370   9.489  69.659  1.00  0.00    -0.200 C  
HETATM    7  O   UNL     1     -10.050  10.735  70.053  1.00  0.00    -0.402 OA 
HETATM    8  P   UNL     1      -7.594   9.852  69.911  1.00  0.00    -0.169 P  
HETATM    9  P   UNL     1      -9.873   8.110  70.752  1.00  0.00    -0.185 P  
HETATM   10  H   UNL     1      -9.790  10.922  70.948  1.00  0.00     0.000 HD 
HETATM   11  O   UNL     1      -6.092  10.159  70.125  1.00  0.00    -0.056 OA 
HETATM   12  O   UNL     1      -7.827  11.199  68.970  1.00  0.00    -0.138 OA 
HETATM   13  O   UNL     1      -7.232   8.820  68.682  1.00  0.00    -0.071 OA 
HETATM   14  O   UNL     1     -11.368   8.793  70.901  1.00  0.00    -0.262 OA 
HETATM   15  O   UNL     1      -9.224   8.928  72.024  1.00  0.00    -0.348 OA 
HETATM   16  O   UNL     1     -10.298   6.943  71.677  1.00  0.00    -0.200 OA 
ENDBRANCH   5   6
ENDBRANCH   4   5
TORSDOF 2
ENDMDL
MODEL      151
REMARK 921   NORMALIZED FREE ENERGY PREDICTED BY IDOCK:   -2.92 KCAL/MOL
REMARK 922        TOTAL FREE ENERGY PREDICTED BY IDOCK:   -3.23 KCAL/MOL
REMARK 923 INTER-LIGAND FREE ENERGY PREDICTED BY IDOCK:   -3.00 KCAL/MOL
REMARK 924 INTRA-LIGAND FREE ENERGY PREDICTED BY IDOCK:   -0.23 KCAL/MOL
REMARK 927      BINDING AFFINITY PREDICTED BY RF-SCORE:    0.00 PKD
ROOT
HETATM    1  N   UNL     1      -9.542   5.697  68.691  1.00  0.00    -0.125 NA 
HETATM    2  H2  UNL     1      -8.863   6.372  69.043  1.00  0.00     0.000 HD 
HETATM    3  H1  UNL     1      -9.097   5.027  68.065  1.00  0.00     0.000 HD 
HETATM    4  C   UNL     1     -10.260   5.066  69.788  1.00  0.00    -0.266 C  
ENDROOT
BRANCH   4   5
HETATM    5  C   UNL     1     -10.928   6.074  70.729  1.00  0.00    -0.364 C  
BRANCH   5   6
HETATM    6  C   UNL     1     -10.421   6.131  72.208  1.00  0.00    -0.198 C  
HETATM    7  O   UNL     1     -11.611   6.247  73.067  1.00  0.00    -0.476 OA 
HETATM    8  P   UNL     1      -9.410   7.592  72.646  1.00  0.00    -0.216 P  
HETATM    9  P   UNL     1      -9.490   4.605  72.604  1.00  0.00    -0.139 P  
HETATM   10  H   UNL     1     -11.302   6.282  73.966  1.00  0.00     0.000 HD 
HETATM   11  O   UNL     1      -8.555   8.829  73.016  1.00  0.00    -0.382 OA 
HETATM   12  O   UNL     1     -10.764   8.506  72.351  1.00  0.00    -0.341 OA 
HETATM   13  O   UNL     1      -8.823   7.619  71.110  1.00  0.00    -0.135 OA 
HETATM   14  O   UNL     1     -10.912   3.854  72.978  1.00  0.00    -0.162 OA 
HETATM   15  O   UNL     1      -9.244   5.190  74.121  1.00  0.00    -0.115 OA 
HETATM   16  O   UNL     1      -8.703   3.315  72.938  1.00  0.00    -0.083 OA 
ENDBRANCH   5   6
ENDBRANCH   4   5
TORSDOF 2
ENDMDL
MODEL      152
REMARK 921   NORMALIZED FREE ENERGY PREDICTED BY IDOCK:   -2.89 KCAL/MOL
REMARK 922        TOTAL FREE ENERGY PREDICTED BY IDOCK:   -3.19 KCAL/MOL
REMARK 923 INTER-LIGAND FREE ENERGY PREDICTED BY IDOCK:   -2.64 KCAL/MOL
REMARK 924 INTRA-LIGAND FREE ENERGY PREDICTED BY IDOCK:   -0.56 KCAL/MOL
REMARK 927      BINDING AFFINITY PREDICTED BY RF-SCORE:    0.00 PKD
ROOT
HETATM    1  N   UNL     1      -6.837   9.398  67.132  1.00  0.00    -0.083 NA 
HETATM    2  H2  UNL     1      -6.119   9.451  67.854  1.00  0.00     0.000 HD 
HETATM    3  H1  UNL     1      -6.811   8.495  66.659  1.00  0.00     0.000 HD 
HETATM    4  C   UNL     1      -8.147   9.717  67.679  1.00  0.00    -0.113 C  
ENDROOT
BRANCH   4   5
HETATM    5  C   UNL     1      -8.186  11.075  68.390  1.00  0.00    -0.137 C  
BRANCH   5   6
HETATM    6  C   UNL     1      -8.433  12.346  67.512  1.00  0.00    -0.175 C  
HETATM    7  O   UNL     1      -8.419  11.908  66.107  1.00  0.00    -0.381 OA 
HETATM    8  P   UNL     1      -7.133  13.631  67.591  1.00  0.00    -0.110 P  
HETATM    9  P   UNL     1     -10.051  13.089  67.937  1.00  0.00    -0.246 P  
HETATM   10  H   UNL     1      -8.569  12.680  65.573  1.00  0.00     0.000 HD 
HETATM   11  O   UNL     1      -6.032  14.718  67.657  1.00  0.00    -0.271 OA 
HETATM   12  O   UNL     1      -6.112  12.515  66.907  1.00  0.00    -0.251 OA 
HETATM   13  O   UNL     1      -6.849  13.216  69.157  1.00  0.00    -0.105 OA 
HETATM   14  O   UNL     1     -10.786  12.053  66.883  1.00  0.00    -0.238 OA 
HETATM   15  O   UNL     1      -9.774  14.254  66.808  1.00  0.00    -0.256 OA 
HETATM   16  O   UNL     1     -11.420  13.717  68.296  1.00  0.00    -0.274 OA 
ENDBRANCH   5   6
ENDBRANCH   4   5
TORSDOF 2
ENDMDL
MODEL      153
REMARK 921   NORMALIZED FREE ENERGY PREDICTED BY IDOCK:   -2.87 KCAL/MOL
REMARK 922        TOTAL FREE ENERGY PREDICTED BY IDOCK:   -3.18 KCAL/MOL
REMARK 923 INTER-LIGAND FREE ENERGY PREDICTED BY IDOCK:   -2.59 KCAL/MOL
REMARK 924 INTRA-LIGAND FREE ENERGY PREDICTED BY IDOCK:   -0.59 KCAL/MOL
REMARK 927      BINDING AFFINITY PREDICTED BY RF-SCORE:    0.00 PKD
ROOT
HETATM    1  N   UNL     1      -6.652   9.005  64.164  1.00  0.00    -0.083 NA 
HETATM    2  H2  UNL     1      -7.098   8.234  64.660  1.00  0.00     0.000 HD 
HETATM    3  H1  UNL     1      -6.365   8.718  63.229  1.00  0.00     0.000 HD 
HETATM    4  C   UNL     1      -7.506  10.183  64.162  1.00  0.00    -0.114 C  
ENDROOT
BRANCH   4   5
HETATM    5  C   UNL     1      -7.938  10.615  65.569  1.00  0.00    -0.116 C  
BRANCH   5   6
HETATM    6  C   UNL     1      -9.060   9.779  66.271  1.00  0.00    -0.157 C  
HETATM    7  O   UNL     1      -9.592   8.844  65.266  1.00  0.00    -0.454 OA 
HETATM    8  P   UNL     1     -10.528  10.724  66.821  1.00  0.00    -0.225 P  
HETATM    9  P   UNL     1      -8.355   8.865  67.691  1.00  0.00    -0.108 P  
HETATM   10  H   UNL     1     -10.273   8.337  65.693  1.00  0.00     0.000 HD 
HETATM   11  O   UNL     1     -11.769  11.524  67.286  1.00  0.00    -0.576 OA 
HETATM   12  O   UNL     1     -10.814  11.043  65.217  1.00  0.00    -0.210 OA 
HETATM   13  O   UNL     1      -9.558  12.023  67.104  1.00  0.00    -0.187 OA 
HETATM   14  O   UNL     1      -7.905   7.651  66.666  1.00  0.00    -0.102 OA 
HETATM   15  O   UNL     1      -9.849   8.244  67.987  1.00  0.00    -0.157 OA 
HETATM   16  O   UNL     1      -7.759   8.091  68.892  1.00  0.00    -0.100 OA 
ENDBRANCH   5   6
ENDBRANCH   4   5
TORSDOF 2
ENDMDL
MODEL      154
REMARK 921   NORMALIZED FREE ENERGY PREDICTED BY IDOCK:   -2.87 KCAL/MOL
REMARK 922        TOTAL FREE ENERGY PREDICTED BY IDOCK:   -3.17 KCAL/MOL
REMARK 923 INTER-LIGAND FREE ENERGY PREDICTED BY IDOCK:   -3.02 KCAL/MOL
REMARK 924 INTRA-LIGAND FREE ENERGY PREDICTED BY IDOCK:   -0.15 KCAL/MOL
REMARK 927      BINDING AFFINITY PREDICTED BY RF-SCORE:    0.00 PKD
ROOT
HETATM    1  N   UNL     1      -8.574  17.971  66.501  1.00  0.00    -0.281 NA 
HETATM    2  H2  UNL     1      -8.339  18.450  67.370  1.00  0.00     0.000 HD 
HETATM    3  H1  UNL     1      -8.254  18.505  65.694  1.00  0.00     0.000 HD 
HETATM    4  C   UNL     1      -8.077  16.604  66.514  1.00  0.00    -0.302 C  
ENDROOT
BRANCH   4   5
HETATM    5  C   UNL     1      -8.557  15.800  67.727  1.00  0.00    -0.164 C  
BRANCH   5   6
HETATM    6  C   UNL     1      -8.816  14.270  67.528  1.00  0.00    -0.199 C  
HETATM    7  O   UNL     1      -8.732  14.005  66.082  1.00  0.00    -0.392 OA 
HETATM    8  P   UNL     1     -10.484  13.678  67.994  1.00  0.00    -0.259 P  
HETATM    9  P   UNL     1      -7.551  13.304  68.431  1.00  0.00    -0.123 P  
HETATM   10  H   UNL     1      -8.890  13.075  65.960  1.00  0.00     0.000 HD 
HETATM   11  O   UNL     1     -11.895  13.177  68.388  1.00  0.00    -0.332 OA 
HETATM   12  O   UNL     1     -11.069  14.636  66.771  1.00  0.00    -0.320 OA 
HETATM   13  O   UNL     1     -10.535  14.822  69.175  1.00  0.00    -0.234 OA 
HETATM   14  O   UNL     1      -6.541  13.441  67.132  1.00  0.00    -0.195 OA 
HETATM   15  O   UNL     1      -8.272  11.925  67.897  1.00  0.00    -0.133 OA 
HETATM   16  O   UNL     1      -6.481  12.487  69.196  1.00  0.00    -0.088 OA 
ENDBRANCH   5   6
ENDBRANCH   4   5
TORSDOF 2
ENDMDL
MODEL      155
REMARK 921   NORMALIZED FREE ENERGY PREDICTED BY IDOCK:   -2.86 KCAL/MOL
REMARK 922        TOTAL FREE ENERGY PREDICTED BY IDOCK:   -3.16 KCAL/MOL
REMARK 923 INTER-LIGAND FREE ENERGY PREDICTED BY IDOCK:   -3.11 KCAL/MOL
REMARK 924 INTRA-LIGAND FREE ENERGY PREDICTED BY IDOCK:   -0.04 KCAL/MOL
REMARK 927      BINDING AFFINITY PREDICTED BY RF-SCORE:    0.00 PKD
ROOT
HETATM    1  N   UNL     1     -12.567  14.110  69.673  1.00  0.00    -0.459 NA 
HETATM    2  H2  UNL     1     -12.469  13.101  69.787  1.00  0.00     0.000 HD 
HETATM    3  H1  UNL     1     -12.813  14.554  70.557  1.00  0.00     0.000 HD 
HETATM    4  C   UNL     1     -11.376  14.679  69.060  1.00  0.00    -0.277 C  
ENDROOT
BRANCH   4   5
HETATM    5  C   UNL     1     -11.006  14.012  67.730  1.00  0.00    -0.271 C  
BRANCH   5   6
HETATM    6  C   UNL     1      -9.582  14.296  67.148  1.00  0.00    -0.245 C  
HETATM    7  O   UNL     1      -9.760  14.660  65.733  1.00  0.00    -0.369 OA 
HETATM    8  P   UNL     1      -8.442  12.865  67.101  1.00  0.00    -0.098 P  
HETATM    9  P   UNL     1      -8.798  15.669  68.071  1.00  0.00    -0.171 P  
HETATM   10  H   UNL     1      -8.895  14.833  65.380  1.00  0.00     0.000 HD 
HETATM   11  O   UNL     1      -7.478  11.654  67.060  1.00  0.00    -0.141 OA 
HETATM   12  O   UNL     1      -9.497  12.174  66.021  1.00  0.00    -0.239 OA 
HETATM   13  O   UNL     1      -9.154  12.281  68.464  1.00  0.00    -0.166 OA 
HETATM   14  O   UNL     1      -9.564  16.749  67.084  1.00  0.00    -0.229 OA 
HETATM   15  O   UNL     1      -7.476  15.518  67.103  1.00  0.00    -0.206 OA 
HETATM   16  O   UNL     1      -8.135  16.831  68.851  1.00  0.00    -0.243 OA 
ENDBRANCH   5   6
ENDBRANCH   4   5
TORSDOF 2
ENDMDL
MODEL      156
REMARK 921   NORMALIZED FREE ENERGY PREDICTED BY IDOCK:   -2.85 KCAL/MOL
REMARK 922        TOTAL FREE ENERGY PREDICTED BY IDOCK:   -3.14 KCAL/MOL
REMARK 923 INTER-LIGAND FREE ENERGY PREDICTED BY IDOCK:   -3.04 KCAL/MOL
REMARK 924 INTRA-LIGAND FREE ENERGY PREDICTED BY IDOCK:   -0.11 KCAL/MOL
REMARK 927      BINDING AFFINITY PREDICTED BY RF-SCORE:    0.00 PKD
ROOT
HETATM    1  N   UNL     1      -7.450  10.389  70.387  1.00  0.00    -0.445 NA 
HETATM    2  H2  UNL     1      -6.651   9.855  70.045  1.00  0.00     0.000 HD 
HETATM    3  H1  UNL     1      -7.348  11.378  70.164  1.00  0.00     0.000 HD 
HETATM    4  C   UNL     1      -8.698   9.820  69.902  1.00  0.00    -0.217 C  
ENDROOT
BRANCH   4   5
HETATM    5  C   UNL     1      -8.851   8.332  70.236  1.00  0.00    -0.141 C  
BRANCH   5   6
HETATM    6  C   UNL     1     -10.182   7.626  69.812  1.00  0.00    -0.210 C  
HETATM    7  O   UNL     1     -11.168   8.689  69.552  1.00  0.00    -0.442 OA 
HETATM    8  P   UNL     1     -10.974   6.586  71.092  1.00  0.00    -0.294 P  
HETATM    9  P   UNL     1      -9.901   6.629  68.303  1.00  0.00    -0.148 P  
HETATM   10  H   UNL     1     -11.976   8.260  69.295  1.00  0.00     0.000 HD 
HETATM   11  O   UNL     1     -11.644   5.706  72.175  1.00  0.00    -0.240 OA 
HETATM   12  O   UNL     1     -11.187   7.981  71.967  1.00  0.00    -0.261 OA 
HETATM   13  O   UNL     1      -9.484   6.216  71.682  1.00  0.00    -0.149 OA 
HETATM   14  O   UNL     1     -10.163   7.975  67.383  1.00  0.00    -0.212 OA 
HETATM   15  O   UNL     1     -11.485   6.185  68.344  1.00  0.00    -0.152 OA 
HETATM   16  O   UNL     1      -9.663   5.785  67.027  1.00  0.00    -0.127 OA 
ENDBRANCH   5   6
ENDBRANCH   4   5
TORSDOF 2
ENDMDL
MODEL      157
REMARK 921   NORMALIZED FREE ENERGY PREDICTED BY IDOCK:   -2.83 KCAL/MOL
REMARK 922        TOTAL FREE ENERGY PREDICTED BY IDOCK:   -3.13 KCAL/MOL
REMARK 923 INTER-LIGAND FREE ENERGY PREDICTED BY IDOCK:   -3.07 KCAL/MOL
REMARK 924 INTRA-LIGAND FREE ENERGY PREDICTED BY IDOCK:   -0.06 KCAL/MOL
REMARK 927      BINDING AFFINITY PREDICTED BY RF-SCORE:    0.00 PKD
ROOT
HETATM    1  N   UNL     1     -12.300  10.350  71.642  1.00  0.00    -0.353 NA 
HETATM    2  H2  UNL     1     -11.832  10.655  72.495  1.00  0.00     0.000 HD 
HETATM    3  H1  UNL     1     -12.972  11.049  71.326  1.00  0.00     0.000 HD 
HETATM    4  C   UNL     1     -11.330   9.989  70.619  1.00  0.00    -0.348 C  
ENDROOT
BRANCH   4   5
HETATM    5  C   UNL     1     -10.319   8.938  71.094  1.00  0.00    -0.338 C  
BRANCH   5   6
HETATM    6  C   UNL     1     -10.540   7.460  70.632  1.00  0.00    -0.223 C  
HETATM    7  O   UNL     1     -11.185   7.513  69.310  1.00  0.00    -0.441 OA 
HETATM    8  P   UNL     1     -11.695   6.473  71.653  1.00  0.00    -0.306 P  
HETATM    9  P   UNL     1      -8.930   6.596  70.526  1.00  0.00    -0.152 P  
HETATM   10  H   UNL     1     -11.320   6.615  69.030  1.00  0.00     0.000 HD 
HETATM   11  O   UNL     1     -12.673   5.638  72.516  1.00  0.00     0.091 OA 
HETATM   12  O   UNL     1     -12.883   7.526  71.168  1.00  0.00    -0.302 OA 
HETATM   13  O   UNL     1     -11.216   7.322  72.977  1.00  0.00    -0.311 OA 
HETATM   14  O   UNL     1      -8.732   7.186  68.997  1.00  0.00    -0.132 OA 
HETATM   15  O   UNL     1      -9.728   5.240  70.045  1.00  0.00    -0.165 OA 
HETATM   16  O   UNL     1      -7.567   5.865  70.437  1.00  0.00    -0.086 OA 
ENDBRANCH   5   6
ENDBRANCH   4   5
TORSDOF 2
ENDMDL
MODEL      158
REMARK 921   NORMALIZED FREE ENERGY PREDICTED BY IDOCK:   -2.83 KCAL/MOL
REMARK 922        TOTAL FREE ENERGY PREDICTED BY IDOCK:   -3.13 KCAL/MOL
REMARK 923 INTER-LIGAND FREE ENERGY PREDICTED BY IDOCK:   -2.55 KCAL/MOL
REMARK 924 INTRA-LIGAND FREE ENERGY PREDICTED BY IDOCK:   -0.58 KCAL/MOL
REMARK 927      BINDING AFFINITY PREDICTED BY RF-SCORE:    0.00 PKD
ROOT
HETATM    1  N   UNL     1      -8.921   2.947  72.551  1.00  0.00    -0.085 NA 
HETATM    2  H2  UNL     1      -8.959   3.443  73.441  1.00  0.00     0.000 HD 
HETATM    3  H1  UNL     1      -9.062   1.946  72.687  1.00  0.00     0.000 HD 
HETATM    4  C   UNL     1      -9.848   3.530  71.593  1.00  0.00    -0.157 C  
ENDROOT
BRANCH   4   5
HETATM    5  C   UNL     1      -9.636   5.034  71.390  1.00  0.00    -0.220 C  
BRANCH   5   6
HETATM    6  C   UNL     1      -9.880   5.974  72.617  1.00  0.00    -0.167 C  
HETATM    7  O   UNL     1     -10.513   5.156  73.665  1.00  0.00    -0.203 OA 
HETATM    8  P   UNL     1     -11.063   7.344  72.346  1.00  0.00    -0.332 P  
HETATM    9  P   UNL     1      -8.286   6.651  73.207  1.00  0.00    -0.114 P  
HETATM   10  H   UNL     1     -10.662   5.726  74.410  1.00  0.00     0.000 HD 
HETATM   11  O   UNL     1     -12.063   8.503  72.117  1.00  0.00    -0.336 OA 
HETATM   12  O   UNL     1     -12.226   6.179  72.132  1.00  0.00    -0.319 OA 
HETATM   13  O   UNL     1     -10.579   7.421  70.776  1.00  0.00    -0.219 OA 
HETATM   14  O   UNL     1      -8.064   5.293  74.119  1.00  0.00    -0.106 OA 
HETATM   15  O   UNL     1      -9.105   7.467  74.377  1.00  0.00    -0.211 OA 
HETATM   16  O   UNL     1      -6.937   7.225  73.706  1.00  0.00    -0.078 OA 
ENDBRANCH   5   6
ENDBRANCH   4   5
TORSDOF 2
ENDMDL
MODEL      159
REMARK 921   NORMALIZED FREE ENERGY PREDICTED BY IDOCK:   -2.82 KCAL/MOL
REMARK 922        TOTAL FREE ENERGY PREDICTED BY IDOCK:   -3.12 KCAL/MOL
REMARK 923 INTER-LIGAND FREE ENERGY PREDICTED BY IDOCK:   -2.77 KCAL/MOL
REMARK 924 INTRA-LIGAND FREE ENERGY PREDICTED BY IDOCK:   -0.35 KCAL/MOL
REMARK 927      BINDING AFFINITY PREDICTED BY RF-SCORE:    0.00 PKD
ROOT
HETATM    1  N   UNL     1      -9.536   8.402  66.295  1.00  0.00    -0.320 NA 
HETATM    2  H2  UNL     1      -9.979   7.486  66.365  1.00  0.00     0.000 HD 
HETATM    3  H1  UNL     1      -9.918   8.931  65.512  1.00  0.00     0.000 HD 
HETATM    4  C   UNL     1      -9.619   9.116  67.560  1.00  0.00    -0.150 C  
ENDROOT
BRANCH   4   5
HETATM    5  C   UNL     1      -9.046   8.320  68.739  1.00  0.00    -0.144 C  
BRANCH   5   6
HETATM    6  C   UNL     1     -10.040   7.451  69.579  1.00  0.00    -0.187 C  
HETATM    7  O   UNL     1     -11.387   7.695  69.038  1.00  0.00    -0.373 OA 
HETATM    8  P   UNL     1     -10.183   7.895  71.349  1.00  0.00    -0.198 P  
HETATM    9  P   UNL     1      -9.598   5.682  69.428  1.00  0.00    -0.164 P  
HETATM   10  H   UNL     1     -11.991   7.168  69.549  1.00  0.00     0.000 HD 
HETATM   11  O   UNL     1     -10.304   8.271  72.846  1.00  0.00    -0.302 OA 
HETATM   12  O   UNL     1     -10.804   9.349  70.842  1.00  0.00    -0.267 OA 
HETATM   13  O   UNL     1      -8.602   8.349  71.340  1.00  0.00    -0.134 OA 
HETATM   14  O   UNL     1     -10.485   5.595  68.038  1.00  0.00    -0.205 OA 
HETATM   15  O   UNL     1     -10.861   5.317  70.416  1.00  0.00    -0.213 OA 
HETATM   16  O   UNL     1      -9.223   4.185  69.300  1.00  0.00    -0.118 OA 
ENDBRANCH   5   6
ENDBRANCH   4   5
TORSDOF 2
ENDMDL
MODEL      160
REMARK 921   NORMALIZED FREE ENERGY PREDICTED BY IDOCK:   -2.81 KCAL/MOL
REMARK 922        TOTAL FREE ENERGY PREDICTED BY IDOCK:   -3.11 KCAL/MOL
REMARK 923 INTER-LIGAND FREE ENERGY PREDICTED BY IDOCK:   -3.42 KCAL/MOL
REMARK 924 INTRA-LIGAND FREE ENERGY PREDICTED BY IDOCK:    0.31 KCAL/MOL
REMARK 927      BINDING AFFINITY PREDICTED BY RF-SCORE:    0.00 PKD
ROOT
HETATM    1  N   UNL     1     -10.748  17.299  67.555  1.00  0.00    -0.321 NA 
HETATM    2  H2  UNL     1     -10.875  16.677  68.353  1.00  0.00     0.000 HD 
HETATM    3  H1  UNL     1     -11.617  17.402  67.032  1.00  0.00     0.000 HD 
HETATM    4  C   UNL     1     -10.182  18.572  67.977  1.00  0.00    -0.383 C  
ENDROOT
BRANCH   4   5
HETATM    5  C   UNL     1      -8.875  18.418  68.764  1.00  0.00    -0.239 C  
BRANCH   5   6
HETATM    6  C   UNL     1      -7.604  19.139  68.207  1.00  0.00    -0.304 C  
HETATM    7  O   UNL     1      -7.990  20.531  67.921  1.00  0.00    -0.203 OA 
HETATM    8  P   UNL     1      -6.973  18.515  66.606  1.00  0.00    -0.225 P  
HETATM    9  P   UNL     1      -6.264  19.087  69.453  1.00  0.00    -0.259 P  
HETATM   10  H   UNL     1      -7.217  20.970  67.582  1.00  0.00     0.000 HD 
HETATM   11  O   UNL     1      -6.439  17.987  65.252  1.00  0.00    -0.298 OA 
HETATM   12  O   UNL     1      -8.402  19.035  65.941  1.00  0.00    -0.463 OA 
HETATM   13  O   UNL     1      -7.490  17.008  67.016  1.00  0.00    -0.161 OA 
HETATM   14  O   UNL     1      -6.889  20.442  70.159  1.00  0.00    -0.189 OA 
HETATM   15  O   UNL     1      -5.303  19.913  68.404  1.00  0.00    -0.192 OA 
HETATM   16  O   UNL     1      -5.131  19.042  70.507  1.00  0.00    -0.186 OA 
ENDBRANCH   5   6
ENDBRANCH   4   5
TORSDOF 2
ENDMDL
MODEL      161
REMARK 921   NORMALIZED FREE ENERGY PREDICTED BY IDOCK:   -2.80 KCAL/MOL
REMARK 922        TOTAL FREE ENERGY PREDICTED BY IDOCK:   -3.09 KCAL/MOL
REMARK 923 INTER-LIGAND FREE ENERGY PREDICTED BY IDOCK:   -3.69 KCAL/MOL
REMARK 924 INTRA-LIGAND FREE ENERGY PREDICTED BY IDOCK:    0.60 KCAL/MOL
REMARK 927      BINDING AFFINITY PREDICTED BY RF-SCORE:    0.00 PKD
ROOT
HETATM    1  N   UNL     1     -12.142  15.284  69.605  1.00  0.00    -0.440 NA 
HETATM    2  H2  UNL     1     -12.765  15.390  68.804  1.00  0.00     0.000 HD 
HETATM    3  H1  UNL     1     -12.579  15.641  70.455  1.00  0.00     0.000 HD 
HETATM    4  C   UNL     1     -11.690  13.907  69.731  1.00  0.00    -0.309 C  
ENDROOT
BRANCH   4   5
HETATM    5  C   UNL     1     -11.033  13.371  68.453  1.00  0.00    -0.291 C  
BRANCH   5   6
HETATM    6  C   UNL     1     -10.439  14.415  67.450  1.00  0.00    -0.261 C  
HETATM    7  O   UNL     1     -11.072  15.710  67.753  1.00  0.00    -0.314 OA 
HETATM    8  P   UNL     1     -10.829  14.131  65.685  1.00  0.00    -0.338 P  
HETATM    9  P   UNL     1      -8.625  14.521  67.666  1.00  0.00    -0.207 P  
HETATM   10  H   UNL     1     -10.712  16.344  67.143  1.00  0.00     0.000 HD 
HETATM   11  O   UNL     1     -11.158  13.891  64.191  1.00  0.00    -0.295 OA 
HETATM   12  O   UNL     1     -12.418  14.393  66.085  1.00  0.00    -0.392 OA 
HETATM   13  O   UNL     1     -10.825  12.511  65.968  1.00  0.00    -0.265 OA 
HETATM   14  O   UNL     1      -8.849  15.615  68.882  1.00  0.00    -0.188 OA 
HETATM   15  O   UNL     1      -8.584  15.653  66.473  1.00  0.00    -0.264 OA 
HETATM   16  O   UNL     1      -7.090  14.610  67.848  1.00  0.00    -0.123 OA 
ENDBRANCH   5   6
ENDBRANCH   4   5
TORSDOF 2
ENDMDL
MODEL      162
REMARK 921   NORMALIZED FREE ENERGY PREDICTED BY IDOCK:   -2.79 KCAL/MOL
REMARK 922        TOTAL FREE ENERGY PREDICTED BY IDOCK:   -3.09 KCAL/MOL
REMARK 923 INTER-LIGAND FREE ENERGY PREDICTED BY IDOCK:   -2.89 KCAL/MOL
REMARK 924 INTRA-LIGAND FREE ENERGY PREDICTED BY IDOCK:   -0.19 KCAL/MOL
REMARK 927      BINDING AFFINITY PREDICTED BY RF-SCORE:    0.00 PKD
ROOT
HETATM    1  N   UNL     1      -9.169   7.449  74.241  1.00  0.00    -0.408 NA 
HETATM    2  H2  UNL     1      -9.244   8.378  73.827  1.00  0.00     0.000 HD 
HETATM    3  H1  UNL     1      -9.726   7.384  75.092  1.00  0.00     0.000 HD 
HETATM    4  C   UNL     1      -9.495   6.420  73.265  1.00  0.00    -0.139 C  
ENDROOT
BRANCH   4   5
HETATM    5  C   UNL     1      -8.658   6.517  71.985  1.00  0.00    -0.125 C  
BRANCH   5   6
HETATM    6  C   UNL     1      -9.218   7.397  70.818  1.00  0.00    -0.159 C  
HETATM    7  O   UNL     1      -9.002   6.645  69.571  1.00  0.00    -0.138 OA 
HETATM    8  P   UNL     1      -8.356   8.986  70.536  1.00  0.00    -0.215 P  
HETATM    9  P   UNL     1     -11.003   7.709  71.079  1.00  0.00    -0.256 P  
HETATM   10  H   UNL     1      -9.342   7.180  68.862  1.00  0.00     0.000 HD 
HETATM   11  O   UNL     1      -7.626  10.331  70.297  1.00  0.00    -0.201 OA 
HETATM   12  O   UNL     1      -7.019   8.087  70.135  1.00  0.00    -0.047 OA 
HETATM   13  O   UNL     1      -8.046   9.079  72.149  1.00  0.00    -0.359 OA 
HETATM   14  O   UNL     1     -11.346   6.273  70.341  1.00  0.00    -0.345 OA 
HETATM   15  O   UNL     1     -11.018   8.583  69.685  1.00  0.00    -0.197 OA 
HETATM   16  O   UNL     1     -12.512   7.974  71.299  1.00  0.00    -0.304 OA 
ENDBRANCH   5   6
ENDBRANCH   4   5
TORSDOF 2
ENDMDL
MODEL      163
REMARK 921   NORMALIZED FREE ENERGY PREDICTED BY IDOCK:   -2.79 KCAL/MOL
REMARK 922        TOTAL FREE ENERGY PREDICTED BY IDOCK:   -3.08 KCAL/MOL
REMARK 923 INTER-LIGAND FREE ENERGY PREDICTED BY IDOCK:   -2.88 KCAL/MOL
REMARK 924 INTRA-LIGAND FREE ENERGY PREDICTED BY IDOCK:   -0.20 KCAL/MOL
REMARK 927      BINDING AFFINITY PREDICTED BY RF-SCORE:    0.00 PKD
ROOT
HETATM    1  N   UNL     1      -7.170   4.775  71.913  1.00  0.00    -0.061 NA 
HETATM    2  H2  UNL     1      -6.393   5.251  71.456  1.00  0.00     0.000 HD 
HETATM    3  H1  UNL     1      -6.831   4.105  72.603  1.00  0.00     0.000 HD 
HETATM    4  C   UNL     1      -8.112   5.736  72.466  1.00  0.00    -0.103 C  
ENDROOT
BRANCH   4   5
HETATM    5  C   UNL     1      -8.622   6.744  71.429  1.00  0.00    -0.124 C  
BRANCH   5   6
HETATM    6  C   UNL     1     -10.133   6.671  71.029  1.00  0.00    -0.187 C  
HETATM    7  O   UNL     1     -10.730   5.569  71.802  1.00  0.00    -0.231 OA 
HETATM    8  P   UNL     1     -10.473   6.229  69.286  1.00  0.00    -0.312 P  
HETATM    9  P   UNL     1     -10.957   8.256  71.429  1.00  0.00    -0.281 P  
HETATM   10  H   UNL     1     -11.647   5.525  71.559  1.00  0.00     0.000 HD 
HETATM   11  O   UNL     1     -10.761   5.855  67.812  1.00  0.00    -0.255 OA 
HETATM   12  O   UNL     1      -9.780   4.757  69.617  1.00  0.00    -0.164 OA 
HETATM   13  O   UNL     1      -9.087   6.997  68.844  1.00  0.00    -0.135 OA 
HETATM   14  O   UNL     1     -11.201   7.722  72.972  1.00  0.00    -0.405 OA 
HETATM   15  O   UNL     1     -12.363   7.630  70.847  1.00  0.00    -0.244 OA 
HETATM   16  O   UNL     1     -11.655   9.596  71.767  1.00  0.00    -0.378 OA 
ENDBRANCH   5   6
ENDBRANCH   4   5
TORSDOF 2
ENDMDL
MODEL      164
REMARK 921   NORMALIZED FREE ENERGY PREDICTED BY IDOCK:   -2.79 KCAL/MOL
REMARK 922        TOTAL FREE ENERGY PREDICTED BY IDOCK:   -3.08 KCAL/MOL
REMARK 923 INTER-LIGAND FREE ENERGY PREDICTED BY IDOCK:   -3.05 KCAL/MOL
REMARK 924 INTRA-LIGAND FREE ENERGY PREDICTED BY IDOCK:   -0.03 KCAL/MOL
REMARK 927      BINDING AFFINITY PREDICTED BY RF-SCORE:    0.00 PKD
ROOT
HETATM    1  N   UNL     1     -10.737  10.961  69.488  1.00  0.00    -0.340 NA 
HETATM    2  H2  UNL     1     -10.781  11.222  68.503  1.00  0.00     0.000 HD 
HETATM    3  H1  UNL     1     -11.396  11.509  70.039  1.00  0.00     0.000 HD 
HETATM    4  C   UNL     1     -10.910   9.526  69.651  1.00  0.00    -0.235 C  
ENDROOT
BRANCH   4   5
HETATM    5  C   UNL     1      -9.919   8.701  68.821  1.00  0.00    -0.194 C  
BRANCH   5   6
HETATM    6  C   UNL     1      -9.847   7.163  69.096  1.00  0.00    -0.160 C  
HETATM    7  O   UNL     1      -8.453   6.855  69.455  1.00  0.00    -0.131 OA 
HETATM    8  P   UNL     1     -10.187   6.082  67.659  1.00  0.00    -0.237 P  
HETATM    9  P   UNL     1     -10.976   6.725  70.469  1.00  0.00    -0.324 P  
HETATM   10  H   UNL     1      -8.409   5.920  69.622  1.00  0.00     0.000 HD 
HETATM   11  O   UNL     1     -10.474   5.167  66.443  1.00  0.00    -0.267 OA 
HETATM   12  O   UNL     1      -8.818   6.719  66.969  1.00  0.00    -0.112 OA 
HETATM   13  O   UNL     1     -11.234   7.212  67.084  1.00  0.00    -0.276 OA 
HETATM   14  O   UNL     1      -9.787   7.110  71.548  1.00  0.00    -0.172 OA 
HETATM   15  O   UNL     1     -10.507   5.156  70.308  1.00  0.00    -0.275 OA 
HETATM   16  O   UNL     1     -11.930   6.355  71.630  1.00  0.00    -0.323 OA 
ENDBRANCH   5   6
ENDBRANCH   4   5
TORSDOF 2
ENDMDL
MODEL      165
REMARK 921   NORMALIZED FREE ENERGY PREDICTED BY IDOCK:   -2.78 KCAL/MOL
REMARK 922        TOTAL FREE ENERGY PREDICTED BY IDOCK:   -3.07 KCAL/MOL
REMARK 923 INTER-LIGAND FREE ENERGY PREDICTED BY IDOCK:   -2.93 KCAL/MOL
REMARK 924 INTRA-LIGAND FREE ENERGY PREDICTED BY IDOCK:   -0.14 KCAL/MOL
REMARK 927      BINDING AFFINITY PREDICTED BY RF-SCORE:    0.00 PKD
ROOT
HETATM    1  N   UNL     1     -11.249   5.883  66.401  1.00  0.00    -0.739 NA 
HETATM    2  H2  UNL     1     -11.884   5.257  66.895  1.00  0.00     0.000 HD 
HETATM    3  H1  UNL     1     -11.641   6.164  65.503  1.00  0.00     0.000 HD 
HETATM    4  C   UNL     1     -10.878   7.012  67.240  1.00  0.00    -0.333 C  
ENDROOT
BRANCH   4   5
HETATM    5  C   UNL     1     -10.288   6.590  68.591  1.00  0.00    -0.216 C  
BRANCH   5   6
HETATM    6  C   UNL     1      -9.423   7.640  69.364  1.00  0.00    -0.152 C  
HETATM    7  O   UNL     1      -9.223   8.784  68.458  1.00  0.00    -0.141 OA 
HETATM    8  P   UNL     1      -7.724   7.109  69.791  1.00  0.00    -0.112 P  
HETATM    9  P   UNL     1     -10.297   8.168  70.882  1.00  0.00    -0.197 P  
HETATM   10  H   UNL     1      -8.697   9.421  68.928  1.00  0.00     0.000 HD 
HETATM   11  O   UNL     1      -6.287   6.660  70.153  1.00  0.00    -0.037 OA 
HETATM   12  O   UNL     1      -7.428   7.046  68.159  1.00  0.00    -0.094 OA 
HETATM   13  O   UNL     1      -8.270   5.565  69.946  1.00  0.00    -0.101 OA 
HETATM   14  O   UNL     1     -11.118   9.295  69.999  1.00  0.00    -0.235 OA 
HETATM   15  O   UNL     1      -9.031   9.161  71.224  1.00  0.00    -0.237 OA 
HETATM   16  O   UNL     1     -11.037   8.614  72.167  1.00  0.00    -0.340 OA 
ENDBRANCH   5   6
ENDBRANCH   4   5
TORSDOF 2
ENDMDL
MODEL      166
REMARK 921   NORMALIZED FREE ENERGY PREDICTED BY IDOCK:   -2.74 KCAL/MOL
REMARK 922        TOTAL FREE ENERGY PREDICTED BY IDOCK:   -3.03 KCAL/MOL
REMARK 923 INTER-LIGAND FREE ENERGY PREDICTED BY IDOCK:   -3.01 KCAL/MOL
REMARK 924 INTRA-LIGAND FREE ENERGY PREDICTED BY IDOCK:   -0.02 KCAL/MOL
REMARK 927      BINDING AFFINITY PREDICTED BY RF-SCORE:    0.00 PKD
ROOT
HETATM    1  N   UNL     1      -7.611   9.291  70.959  1.00  0.00    -0.268 NA 
HETATM    2  H2  UNL     1      -7.104   8.482  71.317  1.00  0.00     0.000 HD 
HETATM    3  H1  UNL     1      -7.158   9.664  70.125  1.00  0.00     0.000 HD 
HETATM    4  C   UNL     1      -9.015   8.970  70.749  1.00  0.00    -0.236 C  
ENDROOT
BRANCH   4   5
HETATM    5  C   UNL     1      -9.697   8.408  72.002  1.00  0.00    -0.353 C  
BRANCH   5   6
HETATM    6  C   UNL     1     -10.400   7.015  71.881  1.00  0.00    -0.192 C  
HETATM    7  O   UNL     1      -9.925   6.400  70.631  1.00  0.00    -0.182 OA 
HETATM    8  P   UNL     1     -12.220   7.057  71.693  1.00  0.00    -0.372 P  
HETATM    9  P   UNL     1      -9.959   5.971  73.318  1.00  0.00    -0.207 P  
HETATM   10  H   UNL     1     -10.352   5.555  70.557  1.00  0.00     0.000 HD 
HETATM   11  O   UNL     1     -13.760   7.093  71.534  1.00  0.00    -0.377 OA 
HETATM   12  O   UNL     1     -11.964   7.823  70.243  1.00  0.00     0.013 OA 
HETATM   13  O   UNL     1     -12.262   8.415  72.621  1.00  0.00    -0.380 OA 
HETATM   14  O   UNL     1      -8.586   5.497  72.533  1.00  0.00    -0.121 OA 
HETATM   15  O   UNL     1     -10.894   4.772  72.690  1.00  0.00    -0.210 OA 
HETATM   16  O   UNL     1      -9.586   5.088  74.534  1.00  0.00    -0.126 OA 
ENDBRANCH   5   6
ENDBRANCH   4   5
TORSDOF 2
ENDMDL
MODEL      167
REMARK 921   NORMALIZED FREE ENERGY PREDICTED BY IDOCK:   -2.73 KCAL/MOL
REMARK 922        TOTAL FREE ENERGY PREDICTED BY IDOCK:   -3.02 KCAL/MOL
REMARK 923 INTER-LIGAND FREE ENERGY PREDICTED BY IDOCK:   -2.42 KCAL/MOL
REMARK 924 INTRA-LIGAND FREE ENERGY PREDICTED BY IDOCK:   -0.60 KCAL/MOL
REMARK 927      BINDING AFFINITY PREDICTED BY RF-SCORE:    0.00 PKD
ROOT
HETATM    1  N   UNL     1      -8.387   7.195  64.037  1.00  0.00    -0.355 NA 
HETATM    2  H2  UNL     1      -9.079   6.549  64.416  1.00  0.00     0.000 HD 
HETATM    3  H1  UNL     1      -8.543   7.352  63.042  1.00  0.00     0.000 HD 
HETATM    4  C   UNL     1      -8.351   8.427  64.810  1.00  0.00    -0.141 C  
ENDROOT
BRANCH   4   5
HETATM    5  C   UNL     1      -8.117   8.191  66.307  1.00  0.00    -0.107 C  
BRANCH   5   6
HETATM    6  C   UNL     1      -9.265   7.507  67.121  1.00  0.00    -0.136 C  
HETATM    7  O   UNL     1     -10.417   7.376  66.213  1.00  0.00    -0.430 OA 
HETATM    8  P   UNL     1      -9.918   8.467  68.535  1.00  0.00    -0.192 P  
HETATM    9  P   UNL     1      -8.716   5.861  67.703  1.00  0.00    -0.100 P  
HETATM   10  H   UNL     1     -11.114   6.961  66.708  1.00  0.00     0.000 HD 
HETATM   11  O   UNL     1     -10.471   9.280  69.731  1.00  0.00    -0.204 OA 
HETATM   12  O   UNL     1     -10.439   9.583  67.422  1.00  0.00    -0.244 OA 
HETATM   13  O   UNL     1      -8.420   9.109  68.762  1.00  0.00    -0.126 OA 
HETATM   14  O   UNL     1      -9.174   5.213  66.255  1.00  0.00    -0.136 OA 
HETATM   15  O   UNL     1     -10.187   5.659  68.411  1.00  0.00    -0.164 OA 
HETATM   16  O   UNL     1      -8.252   4.468  68.196  1.00  0.00    -0.090 OA 
ENDBRANCH   5   6
ENDBRANCH   4   5
TORSDOF 2
ENDMDL
MODEL      168
REMARK 921   NORMALIZED FREE ENERGY PREDICTED BY IDOCK:   -2.71 KCAL/MOL
REMARK 922        TOTAL FREE ENERGY PREDICTED BY IDOCK:   -3.00 KCAL/MOL
REMARK 923 INTER-LIGAND FREE ENERGY PREDICTED BY IDOCK:   -2.41 KCAL/MOL
REMARK 924 INTRA-LIGAND FREE ENERGY PREDICTED BY IDOCK:   -0.59 KCAL/MOL
REMARK 927      BINDING AFFINITY PREDICTED BY RF-SCORE:    0.00 PKD
ROOT
HETATM    1  N   UNL     1      -9.061   3.437  72.857  1.00  0.00    -0.088 NA 
HETATM    2  H2  UNL     1      -9.412   3.589  73.802  1.00  0.00     0.000 HD 
HETATM    3  H1  UNL     1      -8.802   2.460  72.719  1.00  0.00     0.000 HD 
HETATM    4  C   UNL     1     -10.010   3.922  71.867  1.00  0.00    -0.168 C  
ENDROOT
BRANCH   4   5
HETATM    5  C   UNL     1     -10.399   5.390  72.075  1.00  0.00    -0.268 C  
BRANCH   5   6
HETATM    6  C   UNL     1      -9.363   6.482  71.648  1.00  0.00    -0.146 C  
HETATM    7  O   UNL     1      -8.139   5.776  71.236  1.00  0.00    -0.110 OA 
HETATM    8  P   UNL     1      -8.802   7.608  72.978  1.00  0.00    -0.218 P  
HETATM    9  P   UNL     1     -10.036   7.466  70.259  1.00  0.00    -0.190 P  
HETATM   10  H   UNL     1      -7.509   6.439  70.977  1.00  0.00     0.000 HD 
HETATM   11  O   UNL     1      -8.327   8.560  74.103  1.00  0.00    -0.301 OA 
HETATM   12  O   UNL     1      -8.131   6.273  73.703  1.00  0.00    -0.109 OA 
HETATM   13  O   UNL     1     -10.284   7.481  73.680  1.00  0.00    -0.338 OA 
HETATM   14  O   UNL     1      -9.475   6.328  69.202  1.00  0.00    -0.133 OA 
HETATM   15  O   UNL     1      -8.647   8.348  70.257  1.00  0.00    -0.121 OA 
HETATM   16  O   UNL     1     -10.605   8.298  69.084  1.00  0.00    -0.219 OA 
ENDBRANCH   5   6
ENDBRANCH   4   5
TORSDOF 2
ENDMDL
MODEL      169
REMARK 921   NORMALIZED FREE ENERGY PREDICTED BY IDOCK:   -2.71 KCAL/MOL
REMARK 922        TOTAL FREE ENERGY PREDICTED BY IDOCK:   -3.00 KCAL/MOL
REMARK 923 INTER-LIGAND FREE ENERGY PREDICTED BY IDOCK:   -2.41 KCAL/MOL
REMARK 924 INTRA-LIGAND FREE ENERGY PREDICTED BY IDOCK:   -0.58 KCAL/MOL
REMARK 927      BINDING AFFINITY PREDICTED BY RF-SCORE:    0.00 PKD
ROOT
HETATM    1  N   UNL     1      -8.604   3.980  72.073  1.00  0.00    -0.103 NA 
HETATM    2  H2  UNL     1      -8.841   4.550  72.885  1.00  0.00     0.000 HD 
HETATM    3  H1  UNL     1      -8.213   3.084  72.361  1.00  0.00     0.000 HD 
HETATM    4  C   UNL     1      -9.748   3.845  71.184  1.00  0.00    -0.178 C  
ENDROOT
BRANCH   4   5
HETATM    5  C   UNL     1     -10.337   5.193  70.753  1.00  0.00    -0.294 C  
BRANCH   5   6
HETATM    6  C   UNL     1      -9.503   6.061  69.753  1.00  0.00    -0.149 C  
HETATM    7  O   UNL     1      -8.234   5.352  69.522  1.00  0.00    -0.094 OA 
HETATM    8  P   UNL     1      -8.989   7.707  70.367  1.00  0.00    -0.152 P  
HETATM    9  P   UNL     1     -10.424   6.256  68.183  1.00  0.00    -0.286 P  
HETATM   10  H   UNL     1      -7.727   5.880  68.915  1.00  0.00     0.000 HD 
HETATM   11  O   UNL     1      -8.554   9.099  70.886  1.00  0.00    -0.196 OA 
HETATM   12  O   UNL     1      -8.079   6.903  71.499  1.00  0.00    -0.107 OA 
HETATM   13  O   UNL     1     -10.373   7.784  71.253  1.00  0.00    -0.198 OA 
HETATM   14  O   UNL     1      -9.805   4.818  67.660  1.00  0.00    -0.164 OA 
HETATM   15  O   UNL     1      -9.176   7.158  67.603  1.00  0.00    -0.126 OA 
HETATM   16  O   UNL     1     -11.203   6.421  66.855  1.00  0.00    -0.368 OA 
ENDBRANCH   5   6
ENDBRANCH   4   5
TORSDOF 2
ENDMDL
MODEL      170
REMARK 921   NORMALIZED FREE ENERGY PREDICTED BY IDOCK:   -2.69 KCAL/MOL
REMARK 922        TOTAL FREE ENERGY PREDICTED BY IDOCK:   -2.97 KCAL/MOL
REMARK 923 INTER-LIGAND FREE ENERGY PREDICTED BY IDOCK:   -3.19 KCAL/MOL
REMARK 924 INTRA-LIGAND FREE ENERGY PREDICTED BY IDOCK:    0.22 KCAL/MOL
REMARK 927      BINDING AFFINITY PREDICTED BY RF-SCORE:    0.00 PKD
ROOT
HETATM    1  N   UNL     1     -11.155  15.196  66.163  1.00  0.00    -0.334 NA 
HETATM    2  H2  UNL     1     -11.843  14.615  65.683  1.00  0.00     0.000 HD 
HETATM    3  H1  UNL     1     -11.614  15.912  66.725  1.00  0.00     0.000 HD 
HETATM    4  C   UNL     1     -10.228  14.376  66.928  1.00  0.00    -0.265 C  
ENDROOT
BRANCH   4   5
HETATM    5  C   UNL     1      -9.538  13.299  66.083  1.00  0.00    -0.211 C  
BRANCH   5   6
HETATM    6  C   UNL     1      -9.980  11.814  66.301  1.00  0.00    -0.218 C  
HETATM    7  O   UNL     1     -11.426  11.832  66.581  1.00  0.00    -0.399 OA 
HETATM    8  P   UNL     1      -9.255  10.974  67.756  1.00  0.00    -0.161 P  
HETATM    9  P   UNL     1      -9.630  10.835  64.794  1.00  0.00    -0.312 P  
HETATM   10  H   UNL     1     -11.694  10.930  66.714  1.00  0.00     0.000 HD 
HETATM   11  O   UNL     1      -8.641  10.264  68.987  1.00  0.00    -0.141 OA 
HETATM   12  O   UNL     1     -10.074  12.076  68.689  1.00  0.00    -0.212 OA 
HETATM   13  O   UNL     1      -7.887  11.867  67.562  1.00  0.00    -0.133 OA 
HETATM   14  O   UNL     1     -11.079  11.315  64.165  1.00  0.00    -0.354 OA 
HETATM   15  O   UNL     1     -10.246   9.512  65.553  1.00  0.00    -0.174 OA 
HETATM   16  O   UNL     1      -9.334  10.007  63.520  1.00  0.00    -0.275 OA 
ENDBRANCH   5   6
ENDBRANCH   4   5
TORSDOF 2
ENDMDL
MODEL      171
REMARK 921   NORMALIZED FREE ENERGY PREDICTED BY IDOCK:   -2.69 KCAL/MOL
REMARK 922        TOTAL FREE ENERGY PREDICTED BY IDOCK:   -2.97 KCAL/MOL
REMARK 923 INTER-LIGAND FREE ENERGY PREDICTED BY IDOCK:   -2.88 KCAL/MOL
REMARK 924 INTRA-LIGAND FREE ENERGY PREDICTED BY IDOCK:   -0.08 KCAL/MOL
REMARK 927      BINDING AFFINITY PREDICTED BY RF-SCORE:    0.00 PKD
ROOT
HETATM    1  N   UNL     1     -12.487  10.394  71.362  1.00  0.00    -0.392 NA 
HETATM    2  H2  UNL     1     -12.188  11.346  71.576  1.00  0.00     0.000 HD 
HETATM    3  H1  UNL     1     -13.470  10.373  71.095  1.00  0.00     0.000 HD 
HETATM    4  C   UNL     1     -11.613   9.788  70.369  1.00  0.00    -0.258 C  
ENDROOT
BRANCH   4   5
HETATM    5  C   UNL     1     -10.133   9.820  70.770  1.00  0.00    -0.200 C  
BRANCH   5   6
HETATM    6  C   UNL     1      -9.517   8.513  71.372  1.00  0.00    -0.213 C  
HETATM    7  O   UNL     1      -8.814   8.899  72.607  1.00  0.00    -0.358 OA 
HETATM    8  P   UNL     1      -8.226   7.704  70.358  1.00  0.00    -0.124 P  
HETATM    9  P   UNL     1     -10.848   7.312  71.738  1.00  0.00    -0.232 P  
HETATM   10  H   UNL     1      -8.440   8.105  72.972  1.00  0.00     0.000 HD 
HETATM   11  O   UNL     1      -7.134   7.019  69.501  1.00  0.00    -0.067 OA 
HETATM   12  O   UNL     1      -7.309   9.067  70.597  1.00  0.00    -0.073 OA 
HETATM   13  O   UNL     1      -8.995   8.227  69.001  1.00  0.00    -0.146 OA 
HETATM   14  O   UNL     1     -11.079   8.038  73.203  1.00  0.00    -0.334 OA 
HETATM   15  O   UNL     1      -9.703   6.265  72.287  1.00  0.00    -0.157 OA 
HETATM   16  O   UNL     1     -11.974   6.295  72.048  1.00  0.00    -0.330 OA 
ENDBRANCH   5   6
ENDBRANCH   4   5
TORSDOF 2
ENDMDL
MODEL      172
REMARK 921   NORMALIZED FREE ENERGY PREDICTED BY IDOCK:   -2.68 KCAL/MOL
REMARK 922        TOTAL FREE ENERGY PREDICTED BY IDOCK:   -2.96 KCAL/MOL
REMARK 923 INTER-LIGAND FREE ENERGY PREDICTED BY IDOCK:   -2.39 KCAL/MOL
REMARK 924 INTRA-LIGAND FREE ENERGY PREDICTED BY IDOCK:   -0.57 KCAL/MOL
REMARK 927      BINDING AFFINITY PREDICTED BY RF-SCORE:    0.00 PKD
ROOT
HETATM    1  N   UNL     1     -11.599   8.520  72.214  1.00  0.00    -0.373 NA 
HETATM    2  H2  UNL     1     -10.639   8.263  72.444  1.00  0.00     0.000 HD 
HETATM    3  H1  UNL     1     -12.081   8.892  73.031  1.00  0.00     0.000 HD 
HETATM    4  C   UNL     1     -11.635   9.420  71.071  1.00  0.00    -0.330 C  
ENDROOT
BRANCH   4   5
HETATM    5  C   UNL     1     -10.909   8.861  69.842  1.00  0.00    -0.219 C  
BRANCH   5   6
HETATM    6  C   UNL     1      -9.347   8.790  69.892  1.00  0.00    -0.162 C  
HETATM    7  O   UNL     1      -8.917   9.594  71.049  1.00  0.00    -0.345 OA 
HETATM    8  P   UNL     1      -8.471   9.545  68.474  1.00  0.00    -0.121 P  
HETATM    9  P   UNL     1      -8.811   7.051  70.084  1.00  0.00    -0.144 P  
HETATM   10  H   UNL     1      -7.968   9.551  71.079  1.00  0.00     0.000 HD 
HETATM   11  O   UNL     1      -7.730  10.185  67.274  1.00  0.00    -0.095 OA 
HETATM   12  O   UNL     1      -9.107  10.997  68.968  1.00  0.00    -0.152 OA 
HETATM   13  O   UNL     1      -9.722   9.111  67.498  1.00  0.00    -0.148 OA 
HETATM   14  O   UNL     1      -8.992   7.192  71.719  1.00  0.00    -0.129 OA 
HETATM   15  O   UNL     1      -7.249   7.568  70.077  1.00  0.00    -0.066 OA 
HETATM   16  O   UNL     1      -8.357   5.579  70.247  1.00  0.00    -0.106 OA 
ENDBRANCH   5   6
ENDBRANCH   4   5
TORSDOF 2
ENDMDL
MODEL      173
REMARK 921   NORMALIZED FREE ENERGY PREDICTED BY IDOCK:   -2.67 KCAL/MOL
REMARK 922        TOTAL FREE ENERGY PREDICTED BY IDOCK:   -2.95 KCAL/MOL
REMARK 923 INTER-LIGAND FREE ENERGY PREDICTED BY IDOCK:   -2.36 KCAL/MOL
REMARK 924 INTRA-LIGAND FREE ENERGY PREDICTED BY IDOCK:   -0.59 KCAL/MOL
REMARK 927      BINDING AFFINITY PREDICTED BY RF-SCORE:    0.00 PKD
ROOT
HETATM    1  N   UNL     1     -11.476   4.485  64.868  1.00  0.00    -1.070 NA 
HETATM    2  H2  UNL     1     -11.607   3.475  64.816  1.00  0.00     0.000 HD 
HETATM    3  H1  UNL     1     -12.373   4.966  64.915  1.00  0.00     0.000 HD 
HETATM    4  C   UNL     1     -10.582   4.836  65.962  1.00  0.00    -0.254 C  
ENDROOT
BRANCH   4   5
HETATM    5  C   UNL     1      -9.233   4.112  65.892  1.00  0.00    -0.148 C  
BRANCH   5   6
HETATM    6  C   UNL     1      -8.217   4.576  64.796  1.00  0.00    -0.108 C  
HETATM    7  O   UNL     1      -8.899   5.595  63.981  1.00  0.00    -0.347 OA 
HETATM    8  P   UNL     1      -7.716   3.299  63.585  1.00  0.00    -0.073 P  
HETATM    9  P   UNL     1      -6.727   5.281  65.590  1.00  0.00    -0.054 P  
HETATM   10  H   UNL     1      -8.282   5.877  63.316  1.00  0.00     0.000 HD 
HETATM   11  O   UNL     1      -7.293   2.219  62.560  1.00  0.00    -0.035 OA 
HETATM   12  O   UNL     1      -9.300   3.278  63.086  1.00  0.00    -0.094 OA 
HETATM   13  O   UNL     1      -7.871   2.157  64.758  1.00  0.00    -0.071 OA 
HETATM   14  O   UNL     1      -7.491   6.741  65.693  1.00  0.00    -0.076 OA 
HETATM   15  O   UNL     1      -6.103   5.560  64.094  1.00  0.00    -0.021 OA 
HETATM   16  O   UNL     1      -5.466   5.877  66.263  1.00  0.00    -0.012 OA 
ENDBRANCH   5   6
ENDBRANCH   4   5
TORSDOF 2
ENDMDL
MODEL      174
REMARK 921   NORMALIZED FREE ENERGY PREDICTED BY IDOCK:   -2.67 KCAL/MOL
REMARK 922        TOTAL FREE ENERGY PREDICTED BY IDOCK:   -2.95 KCAL/MOL
REMARK 923 INTER-LIGAND FREE ENERGY PREDICTED BY IDOCK:   -2.35 KCAL/MOL
REMARK 924 INTRA-LIGAND FREE ENERGY PREDICTED BY IDOCK:   -0.60 KCAL/MOL
REMARK 927      BINDING AFFINITY PREDICTED BY RF-SCORE:    0.00 PKD
ROOT
HETATM    1  N   UNL     1     -10.923   6.063  66.683  1.00  0.00    -0.698 NA 
HETATM    2  H2  UNL     1     -10.515   5.451  67.389  1.00  0.00     0.000 HD 
HETATM    3  H1  UNL     1     -11.881   5.786  66.472  1.00  0.00     0.000 HD 
HETATM    4  C   UNL     1     -10.807   7.459  67.077  1.00  0.00    -0.237 C  
ENDROOT
BRANCH   4   5
HETATM    5  C   UNL     1      -9.366   7.876  67.394  1.00  0.00    -0.169 C  
BRANCH   5   6
HETATM    6  C   UNL     1      -8.724   7.321  68.709  1.00  0.00    -0.125 C  
HETATM    7  O   UNL     1      -9.787   6.613  69.441  1.00  0.00    -0.150 OA 
HETATM    8  P   UNL     1      -8.129   8.580  69.896  1.00  0.00    -0.127 P  
HETATM    9  P   UNL     1      -7.357   6.177  68.297  1.00  0.00    -0.088 P  
HETATM   10  H   UNL     1      -9.398   6.276  70.240  1.00  0.00     0.000 HD 
HETATM   11  O   UNL     1      -7.625   9.646  70.900  1.00  0.00    -0.309 OA 
HETATM   12  O   UNL     1      -9.713   9.052  70.053  1.00  0.00    -0.170 OA 
HETATM   13  O   UNL     1      -7.761   9.566  68.632  1.00  0.00    -0.079 OA 
HETATM   14  O   UNL     1      -8.450   4.948  68.151  1.00  0.00    -0.102 OA 
HETATM   15  O   UNL     1      -7.110   5.947  69.907  1.00  0.00    -0.063 OA 
HETATM   16  O   UNL     1      -6.200   5.209  67.948  1.00  0.00    -0.032 OA 
ENDBRANCH   5   6
ENDBRANCH   4   5
TORSDOF 2
ENDMDL
MODEL      175
REMARK 921   NORMALIZED FREE ENERGY PREDICTED BY IDOCK:   -2.66 KCAL/MOL
REMARK 922        TOTAL FREE ENERGY PREDICTED BY IDOCK:   -2.94 KCAL/MOL
REMARK 923 INTER-LIGAND FREE ENERGY PREDICTED BY IDOCK:   -2.38 KCAL/MOL
REMARK 924 INTRA-LIGAND FREE ENERGY PREDICTED BY IDOCK:   -0.56 KCAL/MOL
REMARK 927      BINDING AFFINITY PREDICTED BY RF-SCORE:    0.00 PKD
ROOT
HETATM    1  N   UNL     1     -11.310   4.344  64.838  1.00  0.00    -1.085 NA 
HETATM    2  H2  UNL     1     -11.045   3.366  64.724  1.00  0.00     0.000 HD 
HETATM    3  H1  UNL     1     -12.324   4.449  64.837  1.00  0.00     0.000 HD 
HETATM    4  C   UNL     1     -10.678   4.918  66.015  1.00  0.00    -0.190 C  
ENDROOT
BRANCH   4   5
HETATM    5  C   UNL     1      -9.153   4.761  66.016  1.00  0.00    -0.133 C  
BRANCH   5   6
HETATM    6  C   UNL     1      -8.574   3.309  65.946  1.00  0.00    -0.120 C  
HETATM    7  O   UNL     1      -9.712   2.385  66.077  1.00  0.00    -0.349 OA 
HETATM    8  P   UNL     1      -7.453   2.833  67.312  1.00  0.00    -0.066 P  
HETATM    9  P   UNL     1      -7.724   3.058  64.344  1.00  0.00    -0.078 P  
HETATM   10  H   UNL     1      -9.360   1.503  66.034  1.00  0.00     0.000 HD 
HETATM   11  O   UNL     1      -6.506   2.430  68.469  1.00  0.00    -0.029 OA 
HETATM   12  O   UNL     1      -8.760   3.001  68.323  1.00  0.00    -0.089 OA 
HETATM   13  O   UNL     1      -6.939   4.393  67.404  1.00  0.00    -0.060 OA 
HETATM   14  O   UNL     1      -9.171   2.659  63.656  1.00  0.00    -0.096 OA 
HETATM   15  O   UNL     1      -7.370   1.521  64.813  1.00  0.00    -0.050 OA 
HETATM   16  O   UNL     1      -7.004   2.845  62.990  1.00  0.00    -0.037 OA 
ENDBRANCH   5   6
ENDBRANCH   4   5
TORSDOF 2
ENDMDL
MODEL      176
REMARK 921   NORMALIZED FREE ENERGY PREDICTED BY IDOCK:   -2.65 KCAL/MOL
REMARK 922        TOTAL FREE ENERGY PREDICTED BY IDOCK:   -2.93 KCAL/MOL
REMARK 923 INTER-LIGAND FREE ENERGY PREDICTED BY IDOCK:   -2.78 KCAL/MOL
REMARK 924 INTRA-LIGAND FREE ENERGY PREDICTED BY IDOCK:   -0.15 KCAL/MOL
REMARK 927      BINDING AFFINITY PREDICTED BY RF-SCORE:    0.00 PKD
ROOT
HETATM    1  N   UNL     1     -12.445   9.987  70.015  1.00  0.00    -0.506 NA 
HETATM    2  H2  UNL     1     -11.917   9.215  70.422  1.00  0.00     0.000 HD 
HETATM    3  H1  UNL     1     -12.922  10.523  70.739  1.00  0.00     0.000 HD 
HETATM    4  C   UNL     1     -11.594  10.805  69.166  1.00  0.00    -0.305 C  
ENDROOT
BRANCH   4   5
HETATM    5  C   UNL     1     -10.877   9.999  68.077  1.00  0.00    -0.311 C  
BRANCH   5   6
HETATM    6  C   UNL     1      -9.340  10.231  67.897  1.00  0.00    -0.138 C  
HETATM    7  O   UNL     1      -9.006  11.476  68.609  1.00  0.00    -0.239 OA 
HETATM    8  P   UNL     1      -8.777  10.535  66.182  1.00  0.00    -0.169 P  
HETATM    9  P   UNL     1      -8.413   8.819  68.602  1.00  0.00    -0.130 P  
HETATM   10  H   UNL     1      -8.073  11.617  68.500  1.00  0.00     0.000 HD 
HETATM   11  O   UNL     1      -8.301  10.792  64.731  1.00  0.00    -0.118 OA 
HETATM   12  O   UNL     1      -9.679  11.928  66.227  1.00  0.00    -0.217 OA 
HETATM   13  O   UNL     1      -9.976   9.549  65.638  1.00  0.00    -0.305 OA 
HETATM   14  O   UNL     1      -8.484   9.535  70.088  1.00  0.00    -0.171 OA 
HETATM   15  O   UNL     1      -7.013   9.563  68.161  1.00  0.00    -0.076 OA 
HETATM   16  O   UNL     1      -7.629   7.625  69.198  1.00  0.00    -0.095 OA 
ENDBRANCH   5   6
ENDBRANCH   4   5
TORSDOF 2
ENDMDL
MODEL      177
REMARK 921   NORMALIZED FREE ENERGY PREDICTED BY IDOCK:   -2.65 KCAL/MOL
REMARK 922        TOTAL FREE ENERGY PREDICTED BY IDOCK:   -2.93 KCAL/MOL
REMARK 923 INTER-LIGAND FREE ENERGY PREDICTED BY IDOCK:   -2.33 KCAL/MOL
REMARK 924 INTRA-LIGAND FREE ENERGY PREDICTED BY IDOCK:   -0.59 KCAL/MOL
REMARK 927      BINDING AFFINITY PREDICTED BY RF-SCORE:    0.00 PKD
ROOT
HETATM    1  N   UNL     1      -8.796   6.478  68.204  1.00  0.00    -0.116 NA 
HETATM    2  H2  UNL     1      -9.611   6.756  67.659  1.00  0.00     0.000 HD 
HETATM    3  H1  UNL     1      -8.839   5.487  68.442  1.00  0.00     0.000 HD 
HETATM    4  C   UNL     1      -7.565   6.848  67.522  1.00  0.00    -0.109 C  
ENDROOT
BRANCH   4   5
HETATM    5  C   UNL     1      -7.501   8.338  67.165  1.00  0.00    -0.089 C  
BRANCH   5   6
HETATM    6  C   UNL     1      -8.394   8.838  65.981  1.00  0.00    -0.126 C  
HETATM    7  O   UNL     1      -9.001   7.646  65.366  1.00  0.00    -0.373 OA 
HETATM    8  P   UNL     1      -7.505   9.648  64.602  1.00  0.00    -0.135 P  
HETATM    9  P   UNL     1      -9.690   9.964  66.616  1.00  0.00    -0.223 P  
HETATM   10  H   UNL     1      -9.543   7.950  64.647  1.00  0.00     0.000 HD 
HETATM   11  O   UNL     1      -6.753  10.333  63.435  1.00  0.00    -0.136 OA 
HETATM   12  O   UNL     1      -6.770   8.184  64.333  1.00  0.00    -0.064 OA 
HETATM   13  O   UNL     1      -6.401  10.221  65.678  1.00  0.00    -0.100 OA 
HETATM   14  O   UNL     1     -10.638   8.655  66.956  1.00  0.00    -0.294 OA 
HETATM   15  O   UNL     1     -10.245  10.136  65.077  1.00  0.00    -0.309 OA 
HETATM   16  O   UNL     1     -10.787  10.916  67.153  1.00  0.00    -0.258 OA 
ENDBRANCH   5   6
ENDBRANCH   4   5
TORSDOF 2
ENDMDL
MODEL      178
REMARK 921   NORMALIZED FREE ENERGY PREDICTED BY IDOCK:   -2.63 KCAL/MOL
REMARK 922        TOTAL FREE ENERGY PREDICTED BY IDOCK:   -2.91 KCAL/MOL
REMARK 923 INTER-LIGAND FREE ENERGY PREDICTED BY IDOCK:   -2.84 KCAL/MOL
REMARK 924 INTRA-LIGAND FREE ENERGY PREDICTED BY IDOCK:   -0.07 KCAL/MOL
REMARK 927      BINDING AFFINITY PREDICTED BY RF-SCORE:    0.00 PKD
ROOT
HETATM    1  N   UNL     1      -8.631  10.332  70.037  1.00  0.00    -0.358 NA 
HETATM    2  H2  UNL     1      -8.747  10.045  69.065  1.00  0.00     0.000 HD 
HETATM    3  H1  UNL     1      -8.847  11.322  70.152  1.00  0.00     0.000 HD 
HETATM    4  C   UNL     1      -9.400   9.474  70.926  1.00  0.00    -0.087 C  
ENDROOT
BRANCH   4   5
HETATM    5  C   UNL     1      -9.076   7.985  70.753  1.00  0.00    -0.151 C  
BRANCH   5   6
HETATM    6  C   UNL     1     -10.279   6.990  70.641  1.00  0.00    -0.191 C  
HETATM    7  O   UNL     1      -9.884   5.757  71.342  1.00  0.00    -0.164 OA 
HETATM    8  P   UNL     1     -10.690   6.428  68.948  1.00  0.00    -0.340 P  
HETATM    9  P   UNL     1     -11.765   7.723  71.418  1.00  0.00    -0.298 P  
HETATM   10  H   UNL     1     -10.614   5.153  71.274  1.00  0.00     0.000 HD 
HETATM   11  O   UNL     1     -11.038   5.953  67.517  1.00  0.00    -0.245 OA 
HETATM   12  O   UNL     1      -9.197   5.703  68.922  1.00  0.00    -0.117 OA 
HETATM   13  O   UNL     1     -10.203   7.889  68.369  1.00  0.00    -0.193 OA 
HETATM   14  O   UNL     1     -11.258   7.157  72.884  1.00  0.00    -0.291 OA 
HETATM   15  O   UNL     1     -12.598   6.360  71.028  1.00  0.00    -0.065 OA 
HETATM   16  O   UNL     1     -13.022   8.344  72.076  1.00  0.00    -0.335 OA 
ENDBRANCH   5   6
ENDBRANCH   4   5
TORSDOF 2
ENDMDL
MODEL      179
REMARK 921   NORMALIZED FREE ENERGY PREDICTED BY IDOCK:   -2.62 KCAL/MOL
REMARK 922        TOTAL FREE ENERGY PREDICTED BY IDOCK:   -2.89 KCAL/MOL
REMARK 923 INTER-LIGAND FREE ENERGY PREDICTED BY IDOCK:   -3.09 KCAL/MOL
REMARK 924 INTRA-LIGAND FREE ENERGY PREDICTED BY IDOCK:    0.20 KCAL/MOL
REMARK 927      BINDING AFFINITY PREDICTED BY RF-SCORE:    0.00 PKD
ROOT
HETATM    1  N   UNL     1      -8.606  17.472  68.162  1.00  0.00    -0.250 NA 
HETATM    2  H2  UNL     1      -9.117  18.004  68.867  1.00  0.00     0.000 HD 
HETATM    3  H1  UNL     1      -7.848  18.027  67.766  1.00  0.00     0.000 HD 
HETATM    4  C   UNL     1      -8.158  16.196  68.701  1.00  0.00    -0.203 C  
ENDROOT
BRANCH   4   5
HETATM    5  C   UNL     1      -9.298  15.361  69.297  1.00  0.00    -0.254 C  
BRANCH   5   6
HETATM    6  C   UNL     1     -10.673  15.375  68.551  1.00  0.00    -0.256 C  
HETATM    7  O   UNL     1     -10.947  16.773  68.179  1.00  0.00    -0.356 OA 
HETATM    8  P   UNL     1     -12.125  14.889  69.554  1.00  0.00    -0.210 P  
HETATM    9  P   UNL     1     -10.580  14.319  67.059  1.00  0.00    -0.285 P  
HETATM   10  H   UNL     1     -11.782  16.781  67.726  1.00  0.00     0.000 HD 
HETATM   11  O   UNL     1     -13.354  14.478  70.402  1.00  0.00    -0.144 OA 
HETATM   12  O   UNL     1     -11.831  16.239  70.473  1.00  0.00    -0.258 OA 
HETATM   13  O   UNL     1     -11.164  13.863  70.408  1.00  0.00     0.016 OA 
HETATM   14  O   UNL     1      -9.957  15.594  66.215  1.00  0.00    -0.260 OA 
HETATM   15  O   UNL     1     -12.148  14.698  66.736  1.00  0.00    -0.353 OA 
HETATM   16  O   UNL     1     -10.502  13.426  65.797  1.00  0.00    -0.279 OA 
ENDBRANCH   5   6
ENDBRANCH   4   5
TORSDOF 2
ENDMDL
MODEL      180
REMARK 921   NORMALIZED FREE ENERGY PREDICTED BY IDOCK:   -2.61 KCAL/MOL
REMARK 922        TOTAL FREE ENERGY PREDICTED BY IDOCK:   -2.88 KCAL/MOL
REMARK 923 INTER-LIGAND FREE ENERGY PREDICTED BY IDOCK:   -2.67 KCAL/MOL
REMARK 924 INTRA-LIGAND FREE ENERGY PREDICTED BY IDOCK:   -0.21 KCAL/MOL
REMARK 927      BINDING AFFINITY PREDICTED BY RF-SCORE:    0.00 PKD
ROOT
HETATM    1  N   UNL     1     -11.292   6.265  71.296  1.00  0.00    -0.297 NA 
HETATM    2  H2  UNL     1     -11.904   6.848  70.727  1.00  0.00     0.000 HD 
HETATM    3  H1  UNL     1     -11.743   5.379  71.523  1.00  0.00     0.000 HD 
HETATM    4  C   UNL     1      -9.995   6.099  70.660  1.00  0.00    -0.188 C  
ENDROOT
BRANCH   4   5
HETATM    5  C   UNL     1      -9.317   7.431  70.318  1.00  0.00    -0.162 C  
BRANCH   5   6
HETATM    6  C   UNL     1      -9.594   8.043  68.904  1.00  0.00    -0.152 C  
HETATM    7  O   UNL     1      -8.293   8.457  68.353  1.00  0.00    -0.128 OA 
HETATM    8  P   UNL     1     -10.594   9.576  68.884  1.00  0.00    -0.162 P  
HETATM    9  P   UNL     1     -10.378   6.788  67.828  1.00  0.00    -0.258 P  
HETATM   10  H   UNL     1      -8.461   8.829  67.494  1.00  0.00     0.000 HD 
HETATM   11  O   UNL     1     -11.441  10.872  68.866  1.00  0.00    -0.255 OA 
HETATM   12  O   UNL     1      -9.347  10.295  69.710  1.00  0.00    -0.188 OA 
HETATM   13  O   UNL     1     -11.411   9.034  70.205  1.00  0.00    -0.251 OA 
HETATM   14  O   UNL     1      -8.881   6.212  67.435  1.00  0.00    -0.109 OA 
HETATM   15  O   UNL     1     -10.416   7.901  66.617  1.00  0.00    -0.296 OA 
HETATM   16  O   UNL     1     -11.042   5.726  66.917  1.00  0.00    -0.222 OA 
ENDBRANCH   5   6
ENDBRANCH   4   5
TORSDOF 2
ENDMDL
MODEL      181
REMARK 921   NORMALIZED FREE ENERGY PREDICTED BY IDOCK:   -2.61 KCAL/MOL
REMARK 922        TOTAL FREE ENERGY PREDICTED BY IDOCK:   -2.88 KCAL/MOL
REMARK 923 INTER-LIGAND FREE ENERGY PREDICTED BY IDOCK:   -2.80 KCAL/MOL
REMARK 924 INTRA-LIGAND FREE ENERGY PREDICTED BY IDOCK:   -0.07 KCAL/MOL
REMARK 927      BINDING AFFINITY PREDICTED BY RF-SCORE:    0.00 PKD
ROOT
HETATM    1  N   UNL     1     -11.389   4.467  64.869  1.00  0.00    -1.065 NA 
HETATM    2  H2  UNL     1     -10.946   4.114  64.021  1.00  0.00     0.000 HD 
HETATM    3  H1  UNL     1     -12.238   3.944  65.081  1.00  0.00     0.000 HD 
HETATM    4  C   UNL     1     -10.443   4.493  65.975  1.00  0.00    -0.198 C  
ENDROOT
BRANCH   4   5
HETATM    5  C   UNL     1      -9.166   5.279  65.656  1.00  0.00    -0.145 C  
BRANCH   5   6
HETATM    6  C   UNL     1      -8.753   6.421  66.643  1.00  0.00    -0.127 C  
HETATM    7  O   UNL     1      -8.683   7.665  65.858  1.00  0.00    -0.157 OA 
HETATM    8  P   UNL     1      -7.086   6.267  67.383  1.00  0.00    -0.073 P  
HETATM    9  P   UNL     1     -10.000   6.571  67.975  1.00  0.00    -0.157 P  
HETATM   10  H   UNL     1      -8.432   8.358  66.458  1.00  0.00     0.000 HD 
HETATM   11  O   UNL     1      -5.676   6.137  68.008  1.00  0.00    -0.008 OA 
HETATM   12  O   UNL     1      -6.485   6.440  65.845  1.00  0.00    -0.040 OA 
HETATM   13  O   UNL     1      -7.244   4.630  67.343  1.00  0.00    -0.070 OA 
HETATM   14  O   UNL     1     -10.899   7.555  67.000  1.00  0.00    -0.348 OA 
HETATM   15  O   UNL     1      -9.112   7.797  68.620  1.00  0.00    -0.137 OA 
HETATM   16  O   UNL     1     -11.054   6.698  69.101  1.00  0.00    -0.280 OA 
ENDBRANCH   5   6
ENDBRANCH   4   5
TORSDOF 2
ENDMDL
MODEL      182
REMARK 921   NORMALIZED FREE ENERGY PREDICTED BY IDOCK:   -2.60 KCAL/MOL
REMARK 922        TOTAL FREE ENERGY PREDICTED BY IDOCK:   -2.87 KCAL/MOL
REMARK 923 INTER-LIGAND FREE ENERGY PREDICTED BY IDOCK:   -2.84 KCAL/MOL
REMARK 924 INTRA-LIGAND FREE ENERGY PREDICTED BY IDOCK:   -0.03 KCAL/MOL
REMARK 927      BINDING AFFINITY PREDICTED BY RF-SCORE:    0.00 PKD
ROOT
HETATM    1  N   UNL     1     -11.351   4.480  65.212  1.00  0.00    -1.078 NA 
HETATM    2  H2  UNL     1     -12.037   3.890  65.681  1.00  0.00     0.000 HD 
HETATM    3  H1  UNL     1     -11.784   5.013  64.458  1.00  0.00     0.000 HD 
HETATM    4  C   UNL     1     -10.647   5.318  66.171  1.00  0.00    -0.194 C  
ENDROOT
BRANCH   4   5
HETATM    5  C   UNL     1      -9.996   4.517  67.305  1.00  0.00    -0.187 C  
BRANCH   5   6
HETATM    6  C   UNL     1      -8.903   5.235  68.165  1.00  0.00    -0.105 C  
HETATM    7  O   UNL     1      -7.773   4.300  68.293  1.00  0.00    -0.073 OA 
HETATM    8  P   UNL     1      -9.372   5.608  69.895  1.00  0.00    -0.157 P  
HETATM    9  P   UNL     1      -8.371   6.775  67.331  1.00  0.00    -0.122 P  
HETATM   10  H   UNL     1      -7.110   4.737  68.816  1.00  0.00     0.000 HD 
HETATM   11  O   UNL     1      -9.768   5.923  71.358  1.00  0.00    -0.163 OA 
HETATM   12  O   UNL     1      -9.460   3.967  70.131  1.00  0.00    -0.153 OA 
HETATM   13  O   UNL     1     -10.929   5.814  69.405  1.00  0.00    -0.342 OA 
HETATM   14  O   UNL     1      -7.289   5.902  66.442  1.00  0.00    -0.075 OA 
HETATM   15  O   UNL     1      -7.332   7.049  68.577  1.00  0.00    -0.094 OA 
HETATM   16  O   UNL     1      -7.922   8.078  66.626  1.00  0.00    -0.099 OA 
ENDBRANCH   5   6
ENDBRANCH   4   5
TORSDOF 2
ENDMDL
MODEL      183
REMARK 921   NORMALIZED FREE ENERGY PREDICTED BY IDOCK:   -2.59 KCAL/MOL
REMARK 922        TOTAL FREE ENERGY PREDICTED BY IDOCK:   -2.86 KCAL/MOL
REMARK 923 INTER-LIGAND FREE ENERGY PREDICTED BY IDOCK:   -3.13 KCAL/MOL
REMARK 924 INTRA-LIGAND FREE ENERGY PREDICTED BY IDOCK:    0.28 KCAL/MOL
REMARK 927      BINDING AFFINITY PREDICTED BY RF-SCORE:    0.00 PKD
ROOT
HETATM    1  N   UNL     1     -12.474  10.676  68.769  1.00  0.00    -0.690 NA 
HETATM    2  H2  UNL     1     -12.915  10.120  68.037  1.00  0.00     0.000 HD 
HETATM    3  H1  UNL     1     -13.013  10.631  69.634  1.00  0.00     0.000 HD 
HETATM    4  C   UNL     1     -11.082  10.291  68.944  1.00  0.00    -0.231 C  
ENDROOT
BRANCH   4   5
HETATM    5  C   UNL     1     -10.271  10.358  67.644  1.00  0.00    -0.240 C  
BRANCH   5   6
HETATM    6  C   UNL     1      -9.655  11.740  67.244  1.00  0.00    -0.176 C  
HETATM    7  O   UNL     1      -9.800  11.869  65.785  1.00  0.00    -0.230 OA 
HETATM    8  P   UNL     1      -7.857  11.921  67.532  1.00  0.00    -0.172 P  
HETATM    9  P   UNL     1     -10.549  13.088  68.100  1.00  0.00    -0.257 P  
HETATM   10  H   UNL     1      -9.425  12.709  65.542  1.00  0.00     0.000 HD 
HETATM   11  O   UNL     1      -6.336  12.075  67.776  1.00  0.00    -0.062 OA 
HETATM   12  O   UNL     1      -7.645  10.725  66.402  1.00  0.00    -0.131 OA 
HETATM   13  O   UNL     1      -7.989  10.929  68.838  1.00  0.00    -0.133 OA 
HETATM   14  O   UNL     1     -11.675  13.088  66.892  1.00  0.00    -0.345 OA 
HETATM   15  O   UNL     1      -9.556  14.170  67.359  1.00  0.00    -0.220 OA 
HETATM   16  O   UNL     1     -11.306  14.229  68.825  1.00  0.00    -0.246 OA 
ENDBRANCH   5   6
ENDBRANCH   4   5
TORSDOF 2
ENDMDL
MODEL      184
REMARK 921   NORMALIZED FREE ENERGY PREDICTED BY IDOCK:   -2.56 KCAL/MOL
REMARK 922        TOTAL FREE ENERGY PREDICTED BY IDOCK:   -2.83 KCAL/MOL
REMARK 923 INTER-LIGAND FREE ENERGY PREDICTED BY IDOCK:   -2.76 KCAL/MOL
REMARK 924 INTRA-LIGAND FREE ENERGY PREDICTED BY IDOCK:   -0.07 KCAL/MOL
REMARK 927      BINDING AFFINITY PREDICTED BY RF-SCORE:    0.00 PKD
ROOT
HETATM    1  N   UNL     1      -6.489  18.670  65.047  1.00  0.00    -0.490 NA 
HETATM    2  H2  UNL     1      -6.030  19.544  65.304  1.00  0.00     0.000 HD 
HETATM    3  H1  UNL     1      -6.532  18.567  64.033  1.00  0.00     0.000 HD 
HETATM    4  C   UNL     1      -5.858  17.539  65.709  1.00  0.00     0.037 C  
ENDROOT
BRANCH   4   5
HETATM    5  C   UNL     1      -5.793  17.693  67.233  1.00  0.00    -0.161 C  
BRANCH   5   6
HETATM    6  C   UNL     1      -7.004  17.159  68.068  1.00  0.00    -0.171 C  
HETATM    7  O   UNL     1      -7.552  18.306  68.811  1.00  0.00    -0.298 OA 
HETATM    8  P   UNL     1      -6.595  15.939  69.369  1.00  0.00    -0.176 P  
HETATM    9  P   UNL     1      -8.268  16.456  66.947  1.00  0.00    -0.278 P  
HETATM   10  H   UNL     1      -8.287  17.982  69.318  1.00  0.00     0.000 HD 
HETATM   11  O   UNL     1      -6.250  14.906  70.470  1.00  0.00    -0.154 OA 
HETATM   12  O   UNL     1      -5.733  17.149  70.109  1.00  0.00    -0.228 OA 
HETATM   13  O   UNL     1      -5.368  15.379  68.427  1.00  0.00    -0.092 OA 
HETATM   14  O   UNL     1      -8.902  17.966  66.740  1.00  0.00    -0.244 OA 
HETATM   15  O   UNL     1      -9.189  16.103  68.264  1.00  0.00    -0.191 OA 
HETATM   16  O   UNL     1      -9.338  15.861  65.999  1.00  0.00    -0.316 OA 
ENDBRANCH   5   6
ENDBRANCH   4   5
TORSDOF 2
ENDMDL
MODEL      185
REMARK 921   NORMALIZED FREE ENERGY PREDICTED BY IDOCK:   -2.54 KCAL/MOL
REMARK 922        TOTAL FREE ENERGY PREDICTED BY IDOCK:   -2.80 KCAL/MOL
REMARK 923 INTER-LIGAND FREE ENERGY PREDICTED BY IDOCK:   -2.24 KCAL/MOL
REMARK 924 INTRA-LIGAND FREE ENERGY PREDICTED BY IDOCK:   -0.56 KCAL/MOL
REMARK 927      BINDING AFFINITY PREDICTED BY RF-SCORE:    0.00 PKD
ROOT
HETATM    1  N   UNL     1      -6.120  19.969  65.130  1.00  0.00    -0.219 NA 
HETATM    2  H2  UNL     1      -7.019  20.135  64.678  1.00  0.00     0.000 HD 
HETATM    3  H1  UNL     1      -5.357  20.041  64.458  1.00  0.00     0.000 HD 
HETATM    4  C   UNL     1      -5.950  20.842  66.282  1.00  0.00    -0.226 C  
ENDROOT
BRANCH   4   5
HETATM    5  C   UNL     1      -7.097  20.734  67.293  1.00  0.00    -0.417 C  
BRANCH   5   6
HETATM    6  C   UNL     1      -7.078  19.525  68.285  1.00  0.00    -0.295 C  
HETATM    7  O   UNL     1      -5.996  18.627  67.848  1.00  0.00    -0.187 OA 
HETATM    8  P   UNL     1      -8.570  18.464  68.273  1.00  0.00    -0.308 P  
HETATM    9  P   UNL     1      -6.769  20.123  69.987  1.00  0.00     0.230 P  
HETATM   10  H   UNL     1      -5.985  17.892  68.451  1.00  0.00     0.000 HD 
HETATM   11  O   UNL     1      -9.831  17.566  68.263  1.00  0.00    -0.287 OA 
HETATM   12  O   UNL     1      -8.171  18.073  66.709  1.00  0.00    -0.234 OA 
HETATM   13  O   UNL     1      -9.480  19.786  67.914  1.00  0.00    -0.331 OA 
HETATM   14  O   UNL     1      -5.145  20.079  69.690  1.00  0.00    -0.180 OA 
HETATM   15  O   UNL     1      -6.852  18.566  70.512  1.00  0.00     0.755 OA 
HETATM   16  O   UNL     1      -6.507  20.629  71.426  1.00  0.00    -0.540 OA 
ENDBRANCH   5   6
ENDBRANCH   4   5
TORSDOF 2
ENDMDL
MODEL      186
REMARK 921   NORMALIZED FREE ENERGY PREDICTED BY IDOCK:   -2.53 KCAL/MOL
REMARK 922        TOTAL FREE ENERGY PREDICTED BY IDOCK:   -2.79 KCAL/MOL
REMARK 923 INTER-LIGAND FREE ENERGY PREDICTED BY IDOCK:   -3.07 KCAL/MOL
REMARK 924 INTRA-LIGAND FREE ENERGY PREDICTED BY IDOCK:    0.27 KCAL/MOL
REMARK 927      BINDING AFFINITY PREDICTED BY RF-SCORE:    0.00 PKD
ROOT
HETATM    1  N   UNL     1     -12.439  10.468  69.422  1.00  0.00    -0.693 NA 
HETATM    2  H2  UNL     1     -12.482  10.403  68.406  1.00  0.00     0.000 HD 
HETATM    3  H1  UNL     1     -12.885   9.662  69.858  1.00  0.00     0.000 HD 
HETATM    4  C   UNL     1     -11.071  10.675  69.871  1.00  0.00    -0.298 C  
ENDROOT
BRANCH   4   5
HETATM    5  C   UNL     1     -10.400  11.889  69.217  1.00  0.00     0.129 C  
BRANCH   5   6
HETATM    6  C   UNL     1     -11.316  13.087  68.801  1.00  0.00    -0.289 C  
HETATM    7  O   UNL     1     -12.672  12.779  69.284  1.00  0.00     0.401 OA 
HETATM    8  P   UNL     1     -11.531  13.336  67.000  1.00  0.00    -0.380 P  
HETATM    9  P   UNL     1     -10.699  14.633  69.561  1.00  0.00    -0.069 P  
HETATM   10  H   UNL     1     -13.229  13.507  69.032  1.00  0.00     0.000 HD 
HETATM   11  O   UNL     1     -11.712  13.547  65.477  1.00  0.00    -0.321 OA 
HETATM   12  O   UNL     1     -12.284  11.857  66.975  1.00  0.00    -0.492 OA 
HETATM   13  O   UNL     1     -10.002  12.776  66.763  1.00  0.00    -0.227 OA 
HETATM   14  O   UNL     1     -11.551  14.281  70.931  1.00  0.00    -0.234 OA 
HETATM   15  O   UNL     1     -11.935  15.442  68.838  1.00  0.00    -0.336 OA 
HETATM   16  O   UNL     1     -10.176  15.941  70.205  1.00  0.00    -0.255 OA 
ENDBRANCH   5   6
ENDBRANCH   4   5
TORSDOF 2
ENDMDL
MODEL      187
REMARK 921   NORMALIZED FREE ENERGY PREDICTED BY IDOCK:   -2.52 KCAL/MOL
REMARK 922        TOTAL FREE ENERGY PREDICTED BY IDOCK:   -2.78 KCAL/MOL
REMARK 923 INTER-LIGAND FREE ENERGY PREDICTED BY IDOCK:   -2.59 KCAL/MOL
REMARK 924 INTRA-LIGAND FREE ENERGY PREDICTED BY IDOCK:   -0.19 KCAL/MOL
REMARK 927      BINDING AFFINITY PREDICTED BY RF-SCORE:    0.00 PKD
ROOT
HETATM    1  N   UNL     1      -8.116   8.948  72.041  1.00  0.00    -0.366 NA 
HETATM    2  H2  UNL     1      -8.442   9.763  71.522  1.00  0.00     0.000 HD 
HETATM    3  H1  UNL     1      -7.573   9.231  72.856  1.00  0.00     0.000 HD 
HETATM    4  C   UNL     1      -9.226   8.067  72.372  1.00  0.00    -0.202 C  
ENDROOT
BRANCH   4   5
HETATM    5  C   UNL     1     -10.043   7.643  71.147  1.00  0.00    -0.196 C  
BRANCH   5   6
HETATM    6  C   UNL     1      -9.294   6.878  70.005  1.00  0.00    -0.158 C  
HETATM    7  O   UNL     1      -8.244   7.779  69.502  1.00  0.00    -0.124 OA 
HETATM    8  P   UNL     1     -10.293   6.487  68.523  1.00  0.00    -0.238 P  
HETATM    9  P   UNL     1      -8.558   5.340  70.669  1.00  0.00    -0.125 P  
HETATM   10  H   UNL     1      -7.789   7.315  68.809  1.00  0.00     0.000 HD 
HETATM   11  O   UNL     1     -11.138   6.156  67.268  1.00  0.00    -0.333 OA 
HETATM   12  O   UNL     1     -10.418   8.125  68.283  1.00  0.00    -0.204 OA 
HETATM   13  O   UNL     1     -11.619   6.333  69.484  1.00  0.00    -0.423 OA 
HETATM   14  O   UNL     1      -7.232   6.199  71.147  1.00  0.00    -0.075 OA 
HETATM   15  O   UNL     1      -7.971   5.014  69.166  1.00  0.00    -0.079 OA 
HETATM   16  O   UNL     1      -7.935   4.038  71.230  1.00  0.00    -0.068 OA 
ENDBRANCH   5   6
ENDBRANCH   4   5
TORSDOF 2
ENDMDL
MODEL      188
REMARK 921   NORMALIZED FREE ENERGY PREDICTED BY IDOCK:   -2.52 KCAL/MOL
REMARK 922        TOTAL FREE ENERGY PREDICTED BY IDOCK:   -2.78 KCAL/MOL
REMARK 923 INTER-LIGAND FREE ENERGY PREDICTED BY IDOCK:   -2.61 KCAL/MOL
REMARK 924 INTRA-LIGAND FREE ENERGY PREDICTED BY IDOCK:   -0.16 KCAL/MOL
REMARK 927      BINDING AFFINITY PREDICTED BY RF-SCORE:    0.00 PKD
ROOT
HETATM    1  N   UNL     1      -7.651   9.580  70.938  1.00  0.00    -0.312 NA 
HETATM    2  H2  UNL     1      -7.154  10.459  70.792  1.00  0.00     0.000 HD 
HETATM    3  H1  UNL     1      -7.894   9.458  71.920  1.00  0.00     0.000 HD 
HETATM    4  C   UNL     1      -8.799   9.481  70.049  1.00  0.00    -0.223 C  
ENDROOT
BRANCH   4   5
HETATM    5  C   UNL     1      -8.434   9.666  68.572  1.00  0.00    -0.118 C  
BRANCH   5   6
HETATM    6  C   UNL     1      -9.111  10.846  67.799  1.00  0.00    -0.149 C  
HETATM    7  O   UNL     1      -9.375  10.370  66.431  1.00  0.00    -0.158 OA 
HETATM    8  P   UNL     1      -8.076  12.337  67.560  1.00  0.00    -0.192 P  
HETATM    9  P   UNL     1     -10.673  11.315  68.629  1.00  0.00    -0.234 P  
HETATM   10  H   UNL     1      -9.786  11.087  65.962  1.00  0.00     0.000 HD 
HETATM   11  O   UNL     1      -7.201  13.598  67.358  1.00  0.00    -0.165 OA 
HETATM   12  O   UNL     1      -7.083  11.389  66.628  1.00  0.00    -0.140 OA 
HETATM   13  O   UNL     1      -7.339  12.029  68.998  1.00  0.00    -0.096 OA 
HETATM   14  O   UNL     1     -11.458  10.133  67.784  1.00  0.00    -0.287 OA 
HETATM   15  O   UNL     1     -10.896  12.472  67.481  1.00  0.00    -0.223 OA 
HETATM   16  O   UNL     1     -11.995  11.711  69.331  1.00  0.00    -0.313 OA 
ENDBRANCH   5   6
ENDBRANCH   4   5
TORSDOF 2
ENDMDL
MODEL      189
REMARK 921   NORMALIZED FREE ENERGY PREDICTED BY IDOCK:   -2.51 KCAL/MOL
REMARK 922        TOTAL FREE ENERGY PREDICTED BY IDOCK:   -2.77 KCAL/MOL
REMARK 923 INTER-LIGAND FREE ENERGY PREDICTED BY IDOCK:   -2.75 KCAL/MOL
REMARK 924 INTRA-LIGAND FREE ENERGY PREDICTED BY IDOCK:   -0.02 KCAL/MOL
REMARK 927      BINDING AFFINITY PREDICTED BY RF-SCORE:    0.00 PKD
ROOT
HETATM    1  N   UNL     1      -8.148   4.736  68.592  1.00  0.00    -0.083 NA 
HETATM    2  H2  UNL     1      -9.029   4.365  68.238  1.00  0.00     0.000 HD 
HETATM    3  H1  UNL     1      -7.495   4.913  67.830  1.00  0.00     0.000 HD 
HETATM    4  C   UNL     1      -8.378   5.903  69.430  1.00  0.00    -0.114 C  
ENDROOT
BRANCH   4   5
HETATM    5  C   UNL     1      -9.360   5.637  70.577  1.00  0.00    -0.194 C  
BRANCH   5   6
HETATM    6  C   UNL     1      -9.861   6.868  71.402  1.00  0.00    -0.178 C  
HETATM    7  O   UNL     1      -9.454   6.644  72.799  1.00  0.00    -0.143 OA 
HETATM    8  P   UNL     1     -11.677   7.077  71.494  1.00  0.00    -0.342 P  
HETATM    9  P   UNL     1      -9.103   8.402  70.751  1.00  0.00    -0.180 P  
HETATM   10  H   UNL     1      -9.759   7.392  73.300  1.00  0.00     0.000 HD 
HETATM   11  O   UNL     1     -13.213   7.254  71.573  1.00  0.00    -0.376 OA 
HETATM   12  O   UNL     1     -11.711   5.638  72.322  1.00  0.00    -0.247 OA 
HETATM   13  O   UNL     1     -11.805   6.433  69.986  1.00  0.00    -0.404 OA 
HETATM   14  O   UNL     1      -7.780   8.133  71.701  1.00  0.00    -0.077 OA 
HETATM   15  O   UNL     1      -9.921   9.252  71.897  1.00  0.00    -0.228 OA 
HETATM   16  O   UNL     1      -8.462   9.699  70.200  1.00  0.00    -0.182 OA 
ENDBRANCH   5   6
ENDBRANCH   4   5
TORSDOF 2
ENDMDL
MODEL      190
REMARK 921   NORMALIZED FREE ENERGY PREDICTED BY IDOCK:   -2.51 KCAL/MOL
REMARK 922        TOTAL FREE ENERGY PREDICTED BY IDOCK:   -2.76 KCAL/MOL
REMARK 923 INTER-LIGAND FREE ENERGY PREDICTED BY IDOCK:   -2.20 KCAL/MOL
REMARK 924 INTRA-LIGAND FREE ENERGY PREDICTED BY IDOCK:   -0.57 KCAL/MOL
REMARK 927      BINDING AFFINITY PREDICTED BY RF-SCORE:    0.00 PKD
ROOT
HETATM    1  N   UNL     1      -9.097   7.086  67.535  1.00  0.00    -0.123 NA 
HETATM    2  H2  UNL     1      -8.102   7.304  67.581  1.00  0.00     0.000 HD 
HETATM    3  H1  UNL     1      -9.248   6.158  67.140  1.00  0.00     0.000 HD 
HETATM    4  C   UNL     1      -9.728   7.264  68.834  1.00  0.00    -0.148 C  
ENDROOT
BRANCH   4   5
HETATM    5  C   UNL     1      -9.501   8.659  69.427  1.00  0.00    -0.161 C  
BRANCH   5   6
HETATM    6  C   UNL     1     -10.318   9.847  68.818  1.00  0.00    -0.203 C  
HETATM    7  O   UNL     1     -11.184   9.281  67.770  1.00  0.00    -0.484 OA 
HETATM    8  P   UNL     1      -9.336  11.121  67.944  1.00  0.00    -0.171 P  
HETATM    9  P   UNL     1     -11.324  10.642  70.123  1.00  0.00    -0.286 P  
HETATM   10  H   UNL     1     -11.679  10.003  67.400  1.00  0.00     0.000 HD 
HETATM   11  O   UNL     1      -8.505  12.198  67.205  1.00  0.00    -0.163 OA 
HETATM   12  O   UNL     1      -8.934   9.936  66.854  1.00  0.00    -0.137 OA 
HETATM   13  O   UNL     1      -8.094  10.848  68.989  1.00  0.00    -0.142 OA 
HETATM   14  O   UNL     1     -12.509   9.520  69.871  1.00  0.00     0.401 OA 
HETATM   15  O   UNL     1     -11.893  11.695  68.995  1.00  0.00    -0.297 OA 
HETATM   16  O   UNL     1     -12.176  11.314  71.228  1.00  0.00    -0.283 OA 
ENDBRANCH   5   6
ENDBRANCH   4   5
TORSDOF 2
ENDMDL
MODEL      191
REMARK 921   NORMALIZED FREE ENERGY PREDICTED BY IDOCK:   -2.50 KCAL/MOL
REMARK 922        TOTAL FREE ENERGY PREDICTED BY IDOCK:   -2.76 KCAL/MOL
REMARK 923 INTER-LIGAND FREE ENERGY PREDICTED BY IDOCK:   -2.72 KCAL/MOL
REMARK 924 INTRA-LIGAND FREE ENERGY PREDICTED BY IDOCK:   -0.04 KCAL/MOL
REMARK 927      BINDING AFFINITY PREDICTED BY RF-SCORE:    0.00 PKD
ROOT
HETATM    1  N   UNL     1     -11.972   6.877  70.575  1.00  0.00    -0.543 NA 
HETATM    2  H2  UNL     1     -12.288   7.168  69.650  1.00  0.00     0.000 HD 
HETATM    3  H1  UNL     1     -12.667   6.282  71.025  1.00  0.00     0.000 HD 
HETATM    4  C   UNL     1     -10.655   6.263  70.503  1.00  0.00    -0.249 C  
ENDROOT
BRANCH   4   5
HETATM    5  C   UNL     1      -9.611   7.157  69.825  1.00  0.00    -0.155 C  
BRANCH   5   6
HETATM    6  C   UNL     1      -9.681   7.302  68.268  1.00  0.00    -0.147 C  
HETATM    7  O   UNL     1     -11.085   7.085  67.879  1.00  0.00    -0.486 OA 
HETATM    8  P   UNL     1      -8.754   6.049  67.310  1.00  0.00    -0.102 P  
HETATM    9  P   UNL     1      -9.131   8.977  67.776  1.00  0.00    -0.133 P  
HETATM   10  H   UNL     1     -11.127   7.172  66.934  1.00  0.00     0.000 HD 
HETATM   11  O   UNL     1      -7.969   4.988  66.500  1.00  0.00    -0.106 OA 
HETATM   12  O   UNL     1      -9.798   4.923  67.941  1.00  0.00    -0.151 OA 
HETATM   13  O   UNL     1      -7.642   5.978  68.521  1.00  0.00    -0.088 OA 
HETATM   14  O   UNL     1     -10.662   9.539  68.033  1.00  0.00    -0.239 OA 
HETATM   15  O   UNL     1      -9.400   8.566  66.206  1.00  0.00    -0.193 OA 
HETATM   16  O   UNL     1      -8.665  10.393  67.359  1.00  0.00    -0.125 OA 
ENDBRANCH   5   6
ENDBRANCH   4   5
TORSDOF 2
ENDMDL
MODEL      192
REMARK 921   NORMALIZED FREE ENERGY PREDICTED BY IDOCK:   -2.50 KCAL/MOL
REMARK 922        TOTAL FREE ENERGY PREDICTED BY IDOCK:   -2.75 KCAL/MOL
REMARK 923 INTER-LIGAND FREE ENERGY PREDICTED BY IDOCK:   -2.61 KCAL/MOL
REMARK 924 INTRA-LIGAND FREE ENERGY PREDICTED BY IDOCK:   -0.14 KCAL/MOL
REMARK 927      BINDING AFFINITY PREDICTED BY RF-SCORE:    0.00 PKD
ROOT
HETATM    1  N   UNL     1      -6.732   9.260  67.113  1.00  0.00    -0.075 NA 
HETATM    2  H2  UNL     1      -6.242   9.586  67.946  1.00  0.00     0.000 HD 
HETATM    3  H1  UNL     1      -6.352   8.370  66.793  1.00  0.00     0.000 HD 
HETATM    4  C   UNL     1      -8.169   9.219  67.340  1.00  0.00    -0.117 C  
ENDROOT
BRANCH   4   5
HETATM    5  C   UNL     1      -8.740  10.557  67.822  1.00  0.00    -0.122 C  
BRANCH   5   6
HETATM    6  C   UNL     1      -9.380  11.500  66.750  1.00  0.00    -0.181 C  
HETATM    7  O   UNL     1      -8.491  12.666  66.617  1.00  0.00    -0.388 OA 
HETATM    8  P   UNL     1     -11.001  12.225  67.195  1.00  0.00    -0.295 P  
HETATM    9  P   UNL     1      -9.524  10.617  65.154  1.00  0.00    -0.272 P  
HETATM   10  H   UNL     1      -8.880  13.239  65.966  1.00  0.00     0.000 HD 
HETATM   11  O   UNL     1     -12.372  12.838  67.571  1.00  0.00    -0.280 OA 
HETATM   12  O   UNL     1     -10.210  13.018  68.420  1.00  0.00    -0.242 OA 
HETATM   13  O   UNL     1     -11.352  10.861  68.045  1.00  0.00    -0.291 OA 
HETATM   14  O   UNL     1      -7.970  11.042  64.796  1.00  0.00     0.160 OA 
HETATM   15  O   UNL     1     -10.188  11.974  64.502  1.00  0.00    -0.269 OA 
HETATM   16  O   UNL     1      -9.646   9.869  63.803  1.00  0.00    -0.237 OA 
ENDBRANCH   5   6
ENDBRANCH   4   5
TORSDOF 2
ENDMDL
MODEL      193
REMARK 921   NORMALIZED FREE ENERGY PREDICTED BY IDOCK:   -2.49 KCAL/MOL
REMARK 922        TOTAL FREE ENERGY PREDICTED BY IDOCK:   -2.75 KCAL/MOL
REMARK 923 INTER-LIGAND FREE ENERGY PREDICTED BY IDOCK:   -2.68 KCAL/MOL
REMARK 924 INTRA-LIGAND FREE ENERGY PREDICTED BY IDOCK:   -0.06 KCAL/MOL
REMARK 927      BINDING AFFINITY PREDICTED BY RF-SCORE:    0.00 PKD
ROOT
HETATM    1  N   UNL     1      -7.319  10.264  69.682  1.00  0.00    -0.134 NA 
HETATM    2  H2  UNL     1      -6.643  10.678  69.041  1.00  0.00     0.000 HD 
HETATM    3  H1  UNL     1      -7.386  10.808  70.541  1.00  0.00     0.000 HD 
HETATM    4  C   UNL     1      -8.604  10.072  69.026  1.00  0.00    -0.153 C  
ENDROOT
BRANCH   4   5
HETATM    5  C   UNL     1      -8.503   9.254  67.733  1.00  0.00    -0.116 C  
BRANCH   5   6
HETATM    6  C   UNL     1      -9.286   9.775  66.483  1.00  0.00    -0.162 C  
HETATM    7  O   UNL     1     -10.233   8.716  66.095  1.00  0.00    -0.434 OA 
HETATM    8  P   UNL     1      -8.284  10.051  64.976  1.00  0.00    -0.160 P  
HETATM    9  P   UNL     1     -10.182  11.313  66.909  1.00  0.00    -0.236 P  
HETATM   10  H   UNL     1     -10.708   9.033  65.336  1.00  0.00     0.000 HD 
HETATM   11  O   UNL     1      -7.437  10.284  63.701  1.00  0.00    -0.143 OA 
HETATM   12  O   UNL     1      -8.001   8.415  64.973  1.00  0.00    -0.122 OA 
HETATM   13  O   UNL     1      -7.008  10.465  65.927  1.00  0.00    -0.119 OA 
HETATM   14  O   UNL     1     -11.436  10.405  67.483  1.00  0.00    -0.386 OA 
HETATM   15  O   UNL     1     -10.752  11.368  65.367  1.00  0.00    -0.277 OA 
HETATM   16  O   UNL     1     -10.940  12.614  67.270  1.00  0.00    -0.242 OA 
ENDBRANCH   5   6
ENDBRANCH   4   5
TORSDOF 2
ENDMDL
MODEL      194
REMARK 921   NORMALIZED FREE ENERGY PREDICTED BY IDOCK:   -2.49 KCAL/MOL
REMARK 922        TOTAL FREE ENERGY PREDICTED BY IDOCK:   -2.74 KCAL/MOL
REMARK 923 INTER-LIGAND FREE ENERGY PREDICTED BY IDOCK:   -2.16 KCAL/MOL
REMARK 924 INTRA-LIGAND FREE ENERGY PREDICTED BY IDOCK:   -0.58 KCAL/MOL
REMARK 927      BINDING AFFINITY PREDICTED BY RF-SCORE:    0.00 PKD
ROOT
HETATM    1  N   UNL     1      -6.949   4.311  70.683  1.00  0.00    -0.036 NA 
HETATM    2  H2  UNL     1      -7.506   4.319  71.538  1.00  0.00     0.000 HD 
HETATM    3  H1  UNL     1      -6.001   3.988  70.870  1.00  0.00     0.000 HD 
HETATM    4  C   UNL     1      -7.616   3.551  69.638  1.00  0.00    -0.051 C  
ENDROOT
BRANCH   4   5
HETATM    5  C   UNL     1      -9.043   4.036  69.357  1.00  0.00    -0.191 C  
BRANCH   5   6
HETATM    6  C   UNL     1      -9.212   5.327  68.488  1.00  0.00    -0.113 C  
HETATM    7  O   UNL     1      -7.862   5.859  68.243  1.00  0.00    -0.102 OA 
HETATM    8  P   UNL     1     -10.099   6.713  69.288  1.00  0.00    -0.187 P  
HETATM    9  P   UNL     1     -10.034   4.907  66.908  1.00  0.00    -0.214 P  
HETATM   10  H   UNL     1      -7.964   6.643  67.715  1.00  0.00     0.000 HD 
HETATM   11  O   UNL     1     -10.850   7.886  69.965  1.00  0.00    -0.247 OA 
HETATM   12  O   UNL     1      -8.843   6.776  70.371  1.00  0.00    -0.149 OA 
HETATM   13  O   UNL     1     -11.011   5.622  70.117  1.00  0.00    -0.313 OA 
HETATM   14  O   UNL     1      -8.566   4.506  66.269  1.00  0.00    -0.113 OA 
HETATM   15  O   UNL     1      -9.939   6.492  66.478  1.00  0.00    -0.161 OA 
HETATM   16  O   UNL     1     -10.730   4.552  65.571  1.00  0.00    -0.283 OA 
ENDBRANCH   5   6
ENDBRANCH   4   5
TORSDOF 2
ENDMDL
MODEL      195
REMARK 921   NORMALIZED FREE ENERGY PREDICTED BY IDOCK:   -2.49 KCAL/MOL
REMARK 922        TOTAL FREE ENERGY PREDICTED BY IDOCK:   -2.74 KCAL/MOL
REMARK 923 INTER-LIGAND FREE ENERGY PREDICTED BY IDOCK:   -2.20 KCAL/MOL
REMARK 924 INTRA-LIGAND FREE ENERGY PREDICTED BY IDOCK:   -0.55 KCAL/MOL
REMARK 927      BINDING AFFINITY PREDICTED BY RF-SCORE:    0.00 PKD
ROOT
HETATM    1  N   UNL     1     -11.536  11.397  67.500  1.00  0.00    -0.477 NA 
HETATM    2  H2  UNL     1     -11.341  10.398  67.441  1.00  0.00     0.000 HD 
HETATM    3  H1  UNL     1     -12.536  11.578  67.420  1.00  0.00     0.000 HD 
HETATM    4  C   UNL     1     -10.947  11.969  68.701  1.00  0.00    -0.240 C  
ENDROOT
BRANCH   4   5
HETATM    5  C   UNL     1      -9.443  11.697  68.823  1.00  0.00    -0.068 C  
BRANCH   5   6
HETATM    6  C   UNL     1      -8.487  12.464  67.850  1.00  0.00    -0.166 C  
HETATM    7  O   UNL     1      -9.335  13.125  66.845  1.00  0.00    -0.232 OA 
HETATM    8  P   UNL     1      -7.355  11.419  66.861  1.00  0.00    -0.109 P  
HETATM    9  P   UNL     1      -7.514  13.701  68.784  1.00  0.00     0.009 P  
HETATM   10  H   UNL     1      -8.754  13.591  66.254  1.00  0.00     0.000 HD 
HETATM   11  O   UNL     1      -6.398  10.536  66.023  1.00  0.00    -0.104 OA 
HETATM   12  O   UNL     1      -8.711  10.793  66.135  1.00  0.00    -0.166 OA 
HETATM   13  O   UNL     1      -7.292  10.347  68.106  1.00  0.00    -0.086 OA 
HETATM   14  O   UNL     1      -8.758  14.775  68.625  1.00  0.00    -0.168 OA 
HETATM   15  O   UNL     1      -6.781  14.135  67.377  1.00  0.00    -0.252 OA 
HETATM   16  O   UNL     1      -6.692  14.748  69.575  1.00  0.00    -0.136 OA 
ENDBRANCH   5   6
ENDBRANCH   4   5
TORSDOF 2
ENDMDL
MODEL      196
REMARK 921   NORMALIZED FREE ENERGY PREDICTED BY IDOCK:   -2.45 KCAL/MOL
REMARK 922        TOTAL FREE ENERGY PREDICTED BY IDOCK:   -2.71 KCAL/MOL
REMARK 923 INTER-LIGAND FREE ENERGY PREDICTED BY IDOCK:   -2.58 KCAL/MOL
REMARK 924 INTRA-LIGAND FREE ENERGY PREDICTED BY IDOCK:   -0.13 KCAL/MOL
REMARK 927      BINDING AFFINITY PREDICTED BY RF-SCORE:    0.00 PKD
ROOT
HETATM    1  N   UNL     1     -10.951  12.461  69.207  1.00  0.00    -0.435 NA 
HETATM    2  H2  UNL     1     -10.994  11.671  69.851  1.00  0.00     0.000 HD 
HETATM    3  H1  UNL     1     -11.092  13.341  69.701  1.00  0.00     0.000 HD 
HETATM    4  C   UNL     1      -9.718  12.432  68.434  1.00  0.00    -0.189 C  
ENDROOT
BRANCH   4   5
HETATM    5  C   UNL     1      -9.505  11.108  67.691  1.00  0.00    -0.173 C  
BRANCH   5   6
HETATM    6  C   UNL     1      -8.400  11.069  66.584  1.00  0.00    -0.155 C  
HETATM    7  O   UNL     1      -8.000  12.462  66.325  1.00  0.00    -0.294 OA 
HETATM    8  P   UNL     1      -8.936  10.448  64.948  1.00  0.00    -0.227 P  
HETATM    9  P   UNL     1      -6.970  10.088  67.170  1.00  0.00    -0.086 P  
HETATM   10  H   UNL     1      -7.328  12.438  65.653  1.00  0.00     0.000 HD 
HETATM   11  O   UNL     1      -9.389   9.923  63.564  1.00  0.00    -0.272 OA 
HETATM   12  O   UNL     1      -9.934  11.772  64.872  1.00  0.00    -0.245 OA 
HETATM   13  O   UNL     1     -10.002   9.448  65.701  1.00  0.00    -0.304 OA 
HETATM   14  O   UNL     1      -6.369  11.436  67.911  1.00  0.00    -0.053 OA 
HETATM   15  O   UNL     1      -6.224  10.382  65.733  1.00  0.00    -0.102 OA 
HETATM   16  O   UNL     1      -5.760   9.258  67.666  1.00  0.00    -0.041 OA 
ENDBRANCH   5   6
ENDBRANCH   4   5
TORSDOF 2
ENDMDL
MODEL      197
REMARK 921   NORMALIZED FREE ENERGY PREDICTED BY IDOCK:   -2.44 KCAL/MOL
REMARK 922        TOTAL FREE ENERGY PREDICTED BY IDOCK:   -2.69 KCAL/MOL
REMARK 923 INTER-LIGAND FREE ENERGY PREDICTED BY IDOCK:   -2.56 KCAL/MOL
REMARK 924 INTRA-LIGAND FREE ENERGY PREDICTED BY IDOCK:   -0.13 KCAL/MOL
REMARK 927      BINDING AFFINITY PREDICTED BY RF-SCORE:    0.00 PKD
ROOT
HETATM    1  N   UNL     1      -7.483   6.916  68.364  1.00  0.00    -0.096 NA 
HETATM    2  H2  UNL     1      -6.651   7.307  68.805  1.00  0.00     0.000 HD 
HETATM    3  H1  UNL     1      -7.242   6.120  67.774  1.00  0.00     0.000 HD 
HETATM    4  C   UNL     1      -8.498   6.603  69.359  1.00  0.00    -0.131 C  
ENDROOT
BRANCH   4   5
HETATM    5  C   UNL     1      -8.860   7.799  70.246  1.00  0.00    -0.144 C  
BRANCH   5   6
HETATM    6  C   UNL     1      -9.905   7.565  71.388  1.00  0.00    -0.177 C  
HETATM    7  O   UNL     1     -10.411   6.191  71.232  1.00  0.00    -0.205 OA 
HETATM    8  P   UNL     1     -11.409   8.605  71.314  1.00  0.00    -0.324 P  
HETATM    9  P   UNL     1      -9.099   7.771  73.018  1.00  0.00    -0.268 P  
HETATM   10  H   UNL     1     -11.045   6.049  71.925  1.00  0.00     0.000 HD 
HETATM   11  O   UNL     1     -12.681   9.485  71.252  1.00  0.00    -0.318 OA 
HETATM   12  O   UNL     1     -11.766   7.832  69.889  1.00  0.00     0.098 OA 
HETATM   13  O   UNL     1     -10.512   9.816  70.655  1.00  0.00    -0.289 OA 
HETATM   14  O   UNL     1      -8.609   6.196  72.958  1.00  0.00    -0.119 OA 
HETATM   15  O   UNL     1     -10.541   7.437  73.734  1.00  0.00    -0.349 OA 
HETATM   16  O   UNL     1      -8.417   7.946  74.397  1.00  0.00    -0.233 OA 
ENDBRANCH   5   6
ENDBRANCH   4   5
TORSDOF 2
ENDMDL
MODEL      198
REMARK 921   NORMALIZED FREE ENERGY PREDICTED BY IDOCK:   -2.43 KCAL/MOL
REMARK 922        TOTAL FREE ENERGY PREDICTED BY IDOCK:   -2.68 KCAL/MOL
REMARK 923 INTER-LIGAND FREE ENERGY PREDICTED BY IDOCK:   -2.11 KCAL/MOL
REMARK 924 INTRA-LIGAND FREE ENERGY PREDICTED BY IDOCK:   -0.57 KCAL/MOL
REMARK 927      BINDING AFFINITY PREDICTED BY RF-SCORE:    0.00 PKD
ROOT
HETATM    1  N   UNL     1     -11.133   6.195  66.599  1.00  0.00    -0.759 NA 
HETATM    2  H2  UNL     1     -11.563   5.664  67.356  1.00  0.00     0.000 HD 
HETATM    3  H1  UNL     1     -11.726   6.192  65.770  1.00  0.00     0.000 HD 
HETATM    4  C   UNL     1     -10.779   7.534  67.043  1.00  0.00    -0.297 C  
ENDROOT
BRANCH   4   5
HETATM    5  C   UNL     1      -9.887   7.539  68.290  1.00  0.00    -0.177 C  
BRANCH   5   6
HETATM    6  C   UNL     1      -8.409   7.051  68.126  1.00  0.00    -0.123 C  
HETATM    7  O   UNL     1      -8.238   6.665  66.715  1.00  0.00    -0.111 OA 
HETATM    8  P   UNL     1      -7.963   5.540  69.059  1.00  0.00    -0.096 P  
HETATM    9  P   UNL     1      -7.256   8.402  68.566  1.00  0.00    -0.083 P  
HETATM   10  H   UNL     1      -7.340   6.368  66.616  1.00  0.00     0.000 HD 
HETATM   11  O   UNL     1      -7.586   4.263  69.848  1.00  0.00    -0.052 OA 
HETATM   12  O   UNL     1      -9.060   4.736  68.107  1.00  0.00    -0.109 OA 
HETATM   13  O   UNL     1      -9.022   5.983  70.238  1.00  0.00    -0.144 OA 
HETATM   14  O   UNL     1      -7.377   8.986  67.027  1.00  0.00    -0.085 OA 
HETATM   15  O   UNL     1      -6.001   7.394  68.230  1.00  0.00    -0.031 OA 
HETATM   16  O   UNL     1      -6.281   9.546  68.939  1.00  0.00    -0.043 OA 
ENDBRANCH   5   6
ENDBRANCH   4   5
TORSDOF 2
ENDMDL
MODEL      199
REMARK 921   NORMALIZED FREE ENERGY PREDICTED BY IDOCK:   -2.42 KCAL/MOL
REMARK 922        TOTAL FREE ENERGY PREDICTED BY IDOCK:   -2.67 KCAL/MOL
REMARK 923 INTER-LIGAND FREE ENERGY PREDICTED BY IDOCK:   -2.59 KCAL/MOL
REMARK 924 INTRA-LIGAND FREE ENERGY PREDICTED BY IDOCK:   -0.08 KCAL/MOL
REMARK 927      BINDING AFFINITY PREDICTED BY RF-SCORE:    0.00 PKD
ROOT
HETATM    1  N   UNL     1      -6.333   9.375  71.957  1.00  0.00    -0.294 NA 
HETATM    2  H2  UNL     1      -6.474  10.148  72.607  1.00  0.00     0.000 HD 
HETATM    3  H1  UNL     1      -5.367   9.347  71.629  1.00  0.00     0.000 HD 
HETATM    4  C   UNL     1      -6.773   8.118  72.543  1.00  0.00    -0.085 C  
ENDROOT
BRANCH   4   5
HETATM    5  C   UNL     1      -8.224   8.160  73.036  1.00  0.00    -0.248 C  
BRANCH   5   6
HETATM    6  C   UNL     1      -9.345   7.758  72.021  1.00  0.00    -0.152 C  
HETATM    7  O   UNL     1     -10.197   8.943  71.829  1.00  0.00    -0.303 OA 
HETATM    8  P   UNL     1     -10.506   6.463  72.592  1.00  0.00    -0.233 P  
HETATM    9  P   UNL     1      -8.592   7.245  70.435  1.00  0.00    -0.146 P  
HETATM   10  H   UNL     1     -10.878   8.699  71.213  1.00  0.00     0.000 HD 
HETATM   11  O   UNL     1     -11.488   5.368  73.075  1.00  0.00    -0.308 OA 
HETATM   12  O   UNL     1     -10.992   7.539  73.760  1.00  0.00    -0.266 OA 
HETATM   13  O   UNL     1      -9.285   5.781  73.458  1.00  0.00    -0.132 OA 
HETATM   14  O   UNL     1      -8.545   8.826  69.963  1.00  0.00    -0.123 OA 
HETATM   15  O   UNL     1     -10.103   6.973  69.844  1.00  0.00    -0.188 OA 
HETATM   16  O   UNL     1      -7.954   6.810  69.092  1.00  0.00    -0.109 OA 
ENDBRANCH   5   6
ENDBRANCH   4   5
TORSDOF 2
ENDMDL
MODEL      200
REMARK 921   NORMALIZED FREE ENERGY PREDICTED BY IDOCK:   -2.41 KCAL/MOL
REMARK 922        TOTAL FREE ENERGY PREDICTED BY IDOCK:   -2.66 KCAL/MOL
REMARK 923 INTER-LIGAND FREE ENERGY PREDICTED BY IDOCK:   -2.37 KCAL/MOL
REMARK 924 INTRA-LIGAND FREE ENERGY PREDICTED BY IDOCK:   -0.29 KCAL/MOL
REMARK 927      BINDING AFFINITY PREDICTED BY RF-SCORE:    0.00 PKD
ROOT
HETATM    1  N   UNL     1      -8.548  10.769  64.331  1.00  0.00    -0.346 NA 
HETATM    2  H2  UNL     1      -7.779  10.478  64.935  1.00  0.00     0.000 HD 
HETATM    3  H1  UNL     1      -8.546  10.238  63.460  1.00  0.00     0.000 HD 
HETATM    4  C   UNL     1      -9.817  10.701  65.038  1.00  0.00    -0.293 C  
ENDROOT
BRANCH   4   5
HETATM    5  C   UNL     1      -9.820  11.499  66.347  1.00  0.00    -0.233 C  
BRANCH   5   6
HETATM    6  C   UNL     1      -9.227  10.806  67.619  1.00  0.00    -0.147 C  
HETATM    7  O   UNL     1      -8.536   9.588  67.163  1.00  0.00    -0.130 OA 
HETATM    8  P   UNL     1     -10.450  10.196  68.835  1.00  0.00    -0.239 P  
HETATM    9  P   UNL     1      -8.052  11.937  68.450  1.00  0.00    -0.108 P  
HETATM   10  H   UNL     1      -8.176   9.168  67.935  1.00  0.00     0.000 HD 
HETATM   11  O   UNL     1     -11.486   9.679  69.864  1.00  0.00    -0.203 OA 
HETATM   12  O   UNL     1     -10.963   9.143  67.658  1.00  0.00    -0.173 OA 
HETATM   13  O   UNL     1     -11.446  11.440  68.425  1.00  0.00    -0.247 OA 
HETATM   14  O   UNL     1      -6.856  11.412  67.441  1.00  0.00    -0.085 OA 
HETATM   15  O   UNL     1      -7.790  10.775  69.585  1.00  0.00    -0.099 OA 
HETATM   16  O   UNL     1      -7.059  12.894  69.154  1.00  0.00    -0.068 OA 
ENDBRANCH   5   6
ENDBRANCH   4   5
TORSDOF 2
ENDMDL
MODEL      201
REMARK 921   NORMALIZED FREE ENERGY PREDICTED BY IDOCK:   -2.40 KCAL/MOL
REMARK 922        TOTAL FREE ENERGY PREDICTED BY IDOCK:   -2.64 KCAL/MOL
REMARK 923 INTER-LIGAND FREE ENERGY PREDICTED BY IDOCK:   -2.46 KCAL/MOL
REMARK 924 INTRA-LIGAND FREE ENERGY PREDICTED BY IDOCK:   -0.18 KCAL/MOL
REMARK 927      BINDING AFFINITY PREDICTED BY RF-SCORE:    0.00 PKD
ROOT
HETATM    1  N   UNL     1      -9.647  12.128  66.385  1.00  0.00    -0.230 NA 
HETATM    2  H2  UNL     1      -9.332  11.983  65.426  1.00  0.00     0.000 HD 
HETATM    3  H1  UNL     1      -9.923  13.098  66.533  1.00  0.00     0.000 HD 
HETATM    4  C   UNL     1     -10.691  11.178  66.736  1.00  0.00    -0.276 C  
ENDROOT
BRANCH   4   5
HETATM    5  C   UNL     1     -10.277   9.719  66.512  1.00  0.00    -0.289 C  
BRANCH   5   6
HETATM    6  C   UNL     1      -9.299   9.076  67.550  1.00  0.00    -0.135 C  
HETATM    7  O   UNL     1      -7.951   9.582  67.242  1.00  0.00    -0.105 OA 
HETATM    8  P   UNL     1      -9.123   7.256  67.456  1.00  0.00    -0.125 P  
HETATM    9  P   UNL     1      -9.792   9.553  69.247  1.00  0.00    -0.205 P  
HETATM   10  H   UNL     1      -7.357   9.191  67.872  1.00  0.00     0.000 HD 
HETATM   11  O   UNL     1      -8.975   5.717  67.375  1.00  0.00    -0.111 OA 
HETATM   12  O   UNL     1      -8.468   7.487  65.948  1.00  0.00    -0.135 OA 
HETATM   13  O   UNL     1     -10.691   7.153  66.968  1.00  0.00    -0.327 OA 
HETATM   14  O   UNL     1      -8.924  10.949  69.090  1.00  0.00    -0.137 OA 
HETATM   15  O   UNL     1      -8.529   8.673  69.825  1.00  0.00    -0.123 OA 
HETATM   16  O   UNL     1     -10.210   9.958  70.682  1.00  0.00    -0.266 OA 
ENDBRANCH   5   6
ENDBRANCH   4   5
TORSDOF 2
ENDMDL
MODEL      202
REMARK 921   NORMALIZED FREE ENERGY PREDICTED BY IDOCK:   -2.40 KCAL/MOL
REMARK 922        TOTAL FREE ENERGY PREDICTED BY IDOCK:   -2.64 KCAL/MOL
REMARK 923 INTER-LIGAND FREE ENERGY PREDICTED BY IDOCK:   -2.44 KCAL/MOL
REMARK 924 INTRA-LIGAND FREE ENERGY PREDICTED BY IDOCK:   -0.20 KCAL/MOL
REMARK 927      BINDING AFFINITY PREDICTED BY RF-SCORE:    0.00 PKD
ROOT
HETATM    1  N   UNL     1      -9.990   5.929  69.223  1.00  0.00    -0.162 NA 
HETATM    2  H2  UNL     1     -10.781   6.298  68.698  1.00  0.00     0.000 HD 
HETATM    3  H1  UNL     1     -10.095   4.928  69.385  1.00  0.00     0.000 HD 
HETATM    4  C   UNL     1      -8.733   6.273  68.576  1.00  0.00    -0.112 C  
ENDROOT
BRANCH   4   5
HETATM    5  C   UNL     1      -8.573   7.779  68.334  1.00  0.00    -0.128 C  
BRANCH   5   6
HETATM    6  C   UNL     1      -9.820   8.563  67.804  1.00  0.00    -0.175 C  
HETATM    7  O   UNL     1     -10.824   7.561  67.413  1.00  0.00    -0.460 OA 
HETATM    8  P   UNL     1      -9.553   9.545  66.283  1.00  0.00    -0.264 P  
HETATM    9  P   UNL     1     -10.476   9.648  69.124  1.00  0.00    -0.224 P  
HETATM   10  H   UNL     1     -11.581   8.037  67.091  1.00  0.00     0.000 HD 
HETATM   11  O   UNL     1      -9.328  10.376  64.996  1.00  0.00    -0.190 OA 
HETATM   12  O   UNL     1      -9.272   8.104  65.509  1.00  0.00    -0.054 OA 
HETATM   13  O   UNL     1      -8.001   9.815  66.756  1.00  0.00    -0.105 OA 
HETATM   14  O   UNL     1     -11.355   8.379  69.710  1.00  0.00    -0.050 OA 
HETATM   15  O   UNL     1     -11.644  10.151  68.081  1.00  0.00    -0.225 OA 
HETATM   16  O   UNL     1     -11.031  10.567  70.241  1.00  0.00    -0.292 OA 
ENDBRANCH   5   6
ENDBRANCH   4   5
TORSDOF 2
ENDMDL
MODEL      203
REMARK 921   NORMALIZED FREE ENERGY PREDICTED BY IDOCK:   -2.39 KCAL/MOL
REMARK 922        TOTAL FREE ENERGY PREDICTED BY IDOCK:   -2.63 KCAL/MOL
REMARK 923 INTER-LIGAND FREE ENERGY PREDICTED BY IDOCK:   -2.06 KCAL/MOL
REMARK 924 INTRA-LIGAND FREE ENERGY PREDICTED BY IDOCK:   -0.58 KCAL/MOL
REMARK 927      BINDING AFFINITY PREDICTED BY RF-SCORE:    0.00 PKD
ROOT
HETATM    1  N   UNL     1     -11.873   6.453  69.108  1.00  0.00    -0.339 NA 
HETATM    2  H2  UNL     1     -11.660   5.498  68.822  1.00  0.00     0.000 HD 
HETATM    3  H1  UNL     1     -12.815   6.516  69.494  1.00  0.00     0.000 HD 
HETATM    4  C   UNL     1     -10.851   6.965  70.008  1.00  0.00    -0.262 C  
ENDROOT
BRANCH   4   5
HETATM    5  C   UNL     1      -9.436   6.871  69.427  1.00  0.00    -0.148 C  
BRANCH   5   6
HETATM    6  C   UNL     1      -8.982   7.996  68.438  1.00  0.00    -0.133 C  
HETATM    7  O   UNL     1     -10.127   8.907  68.268  1.00  0.00    -0.173 OA 
HETATM    8  P   UNL     1      -8.593   7.448  66.736  1.00  0.00    -0.138 P  
HETATM    9  P   UNL     1      -7.546   8.892  69.134  1.00  0.00    -0.082 P  
HETATM   10  H   UNL     1      -9.851   9.589  67.667  1.00  0.00     0.000 HD 
HETATM   11  O   UNL     1      -8.264   6.984  65.296  1.00  0.00    -0.133 OA 
HETATM   12  O   UNL     1     -10.192   7.022  66.602  1.00  0.00    -0.210 OA 
HETATM   13  O   UNL     1      -8.064   6.013  67.342  1.00  0.00    -0.105 OA 
HETATM   14  O   UNL     1      -8.581   9.864  69.977  1.00  0.00    -0.203 OA 
HETATM   15  O   UNL     1      -7.533   9.843  67.791  1.00  0.00    -0.089 OA 
HETATM   16  O   UNL     1      -6.331   9.650  69.722  1.00  0.00    -0.042 OA 
ENDBRANCH   5   6
ENDBRANCH   4   5
TORSDOF 2
ENDMDL
MODEL      204
REMARK 921   NORMALIZED FREE ENERGY PREDICTED BY IDOCK:   -2.35 KCAL/MOL
REMARK 922        TOTAL FREE ENERGY PREDICTED BY IDOCK:   -2.59 KCAL/MOL
REMARK 923 INTER-LIGAND FREE ENERGY PREDICTED BY IDOCK:   -2.08 KCAL/MOL
REMARK 924 INTRA-LIGAND FREE ENERGY PREDICTED BY IDOCK:   -0.51 KCAL/MOL
REMARK 927      BINDING AFFINITY PREDICTED BY RF-SCORE:    0.00 PKD
ROOT
HETATM    1  N   UNL     1      -9.235   7.159  67.550  1.00  0.00    -0.125 NA 
HETATM    2  H2  UNL     1      -8.297   7.194  67.950  1.00  0.00     0.000 HD 
HETATM    3  H1  UNL     1      -9.264   6.533  66.746  1.00  0.00     0.000 HD 
HETATM    4  C   UNL     1     -10.220   6.829  68.568  1.00  0.00    -0.175 C  
ENDROOT
BRANCH   4   5
HETATM    5  C   UNL     1     -10.176   7.771  69.776  1.00  0.00    -0.211 C  
BRANCH   5   6
HETATM    6  C   UNL     1      -9.034   7.553  70.824  1.00  0.00    -0.149 C  
HETATM    7  O   UNL     1      -8.495   6.202  70.596  1.00  0.00    -0.130 OA 
HETATM    8  P   UNL     1      -9.558   7.533  72.578  1.00  0.00    -0.197 P  
HETATM    9  P   UNL     1      -7.729   8.814  70.591  1.00  0.00    -0.122 P  
HETATM   10  H   UNL     1      -7.802   6.069  71.233  1.00  0.00     0.000 HD 
HETATM   11  O   UNL     1     -10.002   7.517  74.061  1.00  0.00    -0.220 OA 
HETATM   12  O   UNL     1     -10.424   6.165  72.212  1.00  0.00    -0.190 OA 
HETATM   13  O   UNL     1     -10.745   8.613  72.212  1.00  0.00    -0.344 OA 
HETATM   14  O   UNL     1      -7.035   7.860  69.436  1.00  0.00    -0.056 OA 
HETATM   15  O   UNL     1      -6.900   8.136  71.840  1.00  0.00    -0.064 OA 
HETATM   16  O   UNL     1      -6.624   9.881  70.394  1.00  0.00    -0.096 OA 
ENDBRANCH   5   6
ENDBRANCH   4   5
TORSDOF 2
ENDMDL
MODEL      205
REMARK 921   NORMALIZED FREE ENERGY PREDICTED BY IDOCK:   -2.32 KCAL/MOL
REMARK 922        TOTAL FREE ENERGY PREDICTED BY IDOCK:   -2.56 KCAL/MOL
REMARK 923 INTER-LIGAND FREE ENERGY PREDICTED BY IDOCK:   -2.34 KCAL/MOL
REMARK 924 INTRA-LIGAND FREE ENERGY PREDICTED BY IDOCK:   -0.21 KCAL/MOL
REMARK 927      BINDING AFFINITY PREDICTED BY RF-SCORE:    0.00 PKD
ROOT
HETATM    1  N   UNL     1      -7.789   6.039  73.207  1.00  0.00    -0.104 NA 
HETATM    2  H2  UNL     1      -7.464   7.005  73.158  1.00  0.00     0.000 HD 
HETATM    3  H1  UNL     1      -8.031   5.786  74.165  1.00  0.00     0.000 HD 
HETATM    4  C   UNL     1      -8.872   5.808  72.264  1.00  0.00    -0.135 C  
ENDROOT
BRANCH   4   5
HETATM    5  C   UNL     1      -8.508   6.189  70.824  1.00  0.00    -0.131 C  
BRANCH   5   6
HETATM    6  C   UNL     1      -9.136   7.498  70.241  1.00  0.00    -0.154 C  
HETATM    7  O   UNL     1     -10.291   7.837  71.089  1.00  0.00    -0.200 OA 
HETATM    8  P   UNL     1      -9.844   7.358  68.559  1.00  0.00    -0.168 P  
HETATM    9  P   UNL     1      -7.899   8.847  70.271  1.00  0.00    -0.137 P  
HETATM   10  H   UNL     1     -10.672   8.632  70.734  1.00  0.00     0.000 HD 
HETATM   11  O   UNL     1     -10.443   7.239  67.136  1.00  0.00    -0.260 OA 
HETATM   12  O   UNL     1     -10.946   6.300  69.207  1.00  0.00    -0.297 OA 
HETATM   13  O   UNL     1      -8.696   6.238  68.193  1.00  0.00    -0.116 OA 
HETATM   14  O   UNL     1      -8.323   9.179  71.832  1.00  0.00    -0.333 OA 
HETATM   15  O   UNL     1      -9.025   9.848  69.610  1.00  0.00    -0.190 OA 
HETATM   16  O   UNL     1      -6.853   9.988  70.297  1.00  0.00    -0.118 OA 
ENDBRANCH   5   6
ENDBRANCH   4   5
TORSDOF 2
ENDMDL
MODEL      206
REMARK 921   NORMALIZED FREE ENERGY PREDICTED BY IDOCK:   -2.32 KCAL/MOL
REMARK 922        TOTAL FREE ENERGY PREDICTED BY IDOCK:   -2.56 KCAL/MOL
REMARK 923 INTER-LIGAND FREE ENERGY PREDICTED BY IDOCK:   -2.58 KCAL/MOL
REMARK 924 INTRA-LIGAND FREE ENERGY PREDICTED BY IDOCK:    0.02 KCAL/MOL
REMARK 927      BINDING AFFINITY PREDICTED BY RF-SCORE:    0.00 PKD
ROOT
HETATM    1  N   UNL     1     -11.458  15.422  66.810  1.00  0.00    -0.133 NA 
HETATM    2  H2  UNL     1     -11.632  15.383  65.806  1.00  0.00     0.000 HD 
HETATM    3  H1  UNL     1     -11.732  16.327  67.191  1.00  0.00     0.000 HD 
HETATM    4  C   UNL     1     -12.091  14.302  67.490  1.00  0.00    -0.312 C  
ENDROOT
BRANCH   4   5
HETATM    5  C   UNL     1     -11.681  12.941  66.916  1.00  0.00    -0.445 C  
BRANCH   5   6
HETATM    6  C   UNL     1     -10.510  12.180  67.623  1.00  0.00    -0.206 C  
HETATM    7  O   UNL     1     -10.647  12.426  69.068  1.00  0.00    -0.376 OA 
HETATM    8  P   UNL     1      -8.824  12.774  67.228  1.00  0.00    -0.208 P  
HETATM    9  P   UNL     1     -10.626  10.390  67.262  1.00  0.00    -0.250 P  
HETATM   10  H   UNL     1      -9.936  11.964  69.497  1.00  0.00     0.000 HD 
HETATM   11  O   UNL     1      -7.398  13.277  66.895  1.00  0.00     0.145 OA 
HETATM   12  O   UNL     1      -9.252  14.202  67.958  1.00  0.00    -0.181 OA 
HETATM   13  O   UNL     1      -9.341  13.170  65.717  1.00  0.00    -0.028 OA 
HETATM   14  O   UNL     1     -11.677  10.219  68.523  1.00  0.00    -0.199 OA 
HETATM   15  O   UNL     1      -9.279  10.154  68.176  1.00  0.00    -0.134 OA 
HETATM   16  O   UNL     1     -10.724   8.875  66.956  1.00  0.00    -0.248 OA 
ENDBRANCH   5   6
ENDBRANCH   4   5
TORSDOF 2
ENDMDL
MODEL      207
REMARK 921   NORMALIZED FREE ENERGY PREDICTED BY IDOCK:   -2.30 KCAL/MOL
REMARK 922        TOTAL FREE ENERGY PREDICTED BY IDOCK:   -2.54 KCAL/MOL
REMARK 923 INTER-LIGAND FREE ENERGY PREDICTED BY IDOCK:   -2.47 KCAL/MOL
REMARK 924 INTRA-LIGAND FREE ENERGY PREDICTED BY IDOCK:   -0.07 KCAL/MOL
REMARK 927      BINDING AFFINITY PREDICTED BY RF-SCORE:    0.00 PKD
ROOT
HETATM    1  N   UNL     1     -11.447   9.695  71.574  1.00  0.00    -0.385 NA 
HETATM    2  H2  UNL     1     -10.995  10.432  72.116  1.00  0.00     0.000 HD 
HETATM    3  H1  UNL     1     -12.458   9.716  71.705  1.00  0.00     0.000 HD 
HETATM    4  C   UNL     1     -11.050   9.764  70.176  1.00  0.00    -0.285 C  
ENDROOT
BRANCH   4   5
HETATM    5  C   UNL     1      -9.530   9.734  69.979  1.00  0.00    -0.278 C  
BRANCH   5   6
HETATM    6  C   UNL     1      -8.928   8.538  69.170  1.00  0.00    -0.146 C  
HETATM    7  O   UNL     1      -7.784   8.027  69.943  1.00  0.00    -0.095 OA 
HETATM    8  P   UNL     1      -8.210   8.963  67.541  1.00  0.00    -0.108 P  
HETATM    9  P   UNL     1     -10.193   7.233  68.957  1.00  0.00    -0.203 P  
HETATM   10  H   UNL     1      -7.418   7.301  69.451  1.00  0.00     0.000 HD 
HETATM   11  O   UNL     1      -7.602   9.322  66.163  1.00  0.00    -0.094 OA 
HETATM   12  O   UNL     1      -7.088   9.863  68.369  1.00  0.00    -0.071 OA 
HETATM   13  O   UNL     1      -9.332  10.155  67.382  1.00  0.00    -0.146 OA 
HETATM   14  O   UNL     1      -9.783   6.616  70.432  1.00  0.00    -0.174 OA 
HETATM   15  O   UNL     1      -9.086   6.343  68.127  1.00  0.00    -0.116 OA 
HETATM   16  O   UNL     1     -11.264   6.129  68.777  1.00  0.00    -0.367 OA 
ENDBRANCH   5   6
ENDBRANCH   4   5
TORSDOF 2
ENDMDL
MODEL      208
REMARK 921   NORMALIZED FREE ENERGY PREDICTED BY IDOCK:   -2.30 KCAL/MOL
REMARK 922        TOTAL FREE ENERGY PREDICTED BY IDOCK:   -2.54 KCAL/MOL
REMARK 923 INTER-LIGAND FREE ENERGY PREDICTED BY IDOCK:   -2.36 KCAL/MOL
REMARK 924 INTRA-LIGAND FREE ENERGY PREDICTED BY IDOCK:   -0.18 KCAL/MOL
REMARK 927      BINDING AFFINITY PREDICTED BY RF-SCORE:    0.00 PKD
ROOT
HETATM    1  N   UNL     1      -7.515   4.241  73.004  1.00  0.00    -0.078 NA 
HETATM    2  H2  UNL     1      -6.564   4.536  72.784  1.00  0.00     0.000 HD 
HETATM    3  H1  UNL     1      -7.513   3.366  73.527  1.00  0.00     0.000 HD 
HETATM    4  C   UNL     1      -8.244   5.306  73.675  1.00  0.00    -0.113 C  
ENDROOT
BRANCH   4   5
HETATM    5  C   UNL     1      -8.248   6.622  72.888  1.00  0.00    -0.108 C  
BRANCH   5   6
HETATM    6  C   UNL     1      -9.111   6.685  71.585  1.00  0.00    -0.142 C  
HETATM    7  O   UNL     1      -8.565   5.681  70.657  1.00  0.00    -0.126 OA 
HETATM    8  P   UNL     1      -9.021   8.254  70.646  1.00  0.00    -0.166 P  
HETATM    9  P   UNL     1     -10.859   6.311  71.980  1.00  0.00    -0.271 P  
HETATM   10  H   UNL     1      -9.089   5.719  69.866  1.00  0.00     0.000 HD 
HETATM   11  O   UNL     1      -8.944   9.581  69.852  1.00  0.00    -0.177 OA 
HETATM   12  O   UNL     1      -7.418   7.905  70.389  1.00  0.00    -0.073 OA 
HETATM   13  O   UNL     1      -8.815   9.064  72.063  1.00  0.00    -0.373 OA 
HETATM   14  O   UNL     1     -10.528   4.699  71.844  1.00  0.00    -0.181 OA 
HETATM   15  O   UNL     1     -11.225   6.507  70.388  1.00  0.00    -0.299 OA 
HETATM   16  O   UNL     1     -12.337   5.994  72.314  1.00  0.00    -0.252 OA 
ENDBRANCH   5   6
ENDBRANCH   4   5
TORSDOF 2
ENDMDL
MODEL      209
REMARK 921   NORMALIZED FREE ENERGY PREDICTED BY IDOCK:   -2.30 KCAL/MOL
REMARK 922        TOTAL FREE ENERGY PREDICTED BY IDOCK:   -2.53 KCAL/MOL
REMARK 923 INTER-LIGAND FREE ENERGY PREDICTED BY IDOCK:   -2.36 KCAL/MOL
REMARK 924 INTRA-LIGAND FREE ENERGY PREDICTED BY IDOCK:   -0.17 KCAL/MOL
REMARK 927      BINDING AFFINITY PREDICTED BY RF-SCORE:    0.00 PKD
ROOT
HETATM    1  N   UNL     1     -10.480  11.415  67.312  1.00  0.00    -0.198 NA 
HETATM    2  H2  UNL     1      -9.640  11.436  66.734  1.00  0.00     0.000 HD 
HETATM    3  H1  UNL     1     -11.216  11.992  66.905  1.00  0.00     0.000 HD 
HETATM    4  C   UNL     1     -10.902  10.046  67.565  1.00  0.00    -0.265 C  
ENDROOT
BRANCH   4   5
HETATM    5  C   UNL     1      -9.796   9.179  68.178  1.00  0.00    -0.188 C  
BRANCH   5   6
HETATM    6  C   UNL     1      -9.478   7.814  67.483  1.00  0.00    -0.141 C  
HETATM    7  O   UNL     1     -10.511   7.602  66.456  1.00  0.00    -0.500 OA 
HETATM    8  P   UNL     1      -9.599   6.332  68.550  1.00  0.00    -0.130 P  
HETATM    9  P   UNL     1      -7.817   7.880  66.717  1.00  0.00    -0.105 P  
HETATM   10  H   UNL     1     -10.318   6.772  66.034  1.00  0.00     0.000 HD 
HETATM   11  O   UNL     1      -9.701   5.078  69.452  1.00  0.00    -0.150 OA 
HETATM   12  O   UNL     1     -11.218   6.670  68.684  1.00  0.00    -0.239 OA 
HETATM   13  O   UNL     1      -9.107   7.240  69.830  1.00  0.00    -0.142 OA 
HETATM   14  O   UNL     1      -8.482   8.564  65.370  1.00  0.00    -0.156 OA 
HETATM   15  O   UNL     1      -8.030   6.333  66.202  1.00  0.00    -0.105 OA 
HETATM   16  O   UNL     1      -6.411   7.936  66.070  1.00  0.00    -0.045 OA 
ENDBRANCH   5   6
ENDBRANCH   4   5
TORSDOF 2
ENDMDL
MODEL      210
REMARK 921   NORMALIZED FREE ENERGY PREDICTED BY IDOCK:   -2.28 KCAL/MOL
REMARK 922        TOTAL FREE ENERGY PREDICTED BY IDOCK:   -2.51 KCAL/MOL
REMARK 923 INTER-LIGAND FREE ENERGY PREDICTED BY IDOCK:   -2.46 KCAL/MOL
REMARK 924 INTRA-LIGAND FREE ENERGY PREDICTED BY IDOCK:   -0.05 KCAL/MOL
REMARK 927      BINDING AFFINITY PREDICTED BY RF-SCORE:    0.00 PKD
ROOT
HETATM    1  N   UNL     1     -11.708   6.243  70.362  1.00  0.00    -0.316 NA 
HETATM    2  H2  UNL     1     -12.266   6.961  69.899  1.00  0.00     0.000 HD 
HETATM    3  H1  UNL     1     -12.295   5.468  70.668  1.00  0.00     0.000 HD 
HETATM    4  C   UNL     1     -10.601   5.822  69.517  1.00  0.00    -0.319 C  
ENDROOT
BRANCH   4   5
HETATM    5  C   UNL     1      -9.719   6.987  69.056  1.00  0.00    -0.145 C  
BRANCH   5   6
HETATM    6  C   UNL     1      -9.308   8.053  70.126  1.00  0.00    -0.156 C  
HETATM    7  O   UNL     1      -9.821   7.580  71.423  1.00  0.00    -0.177 OA 
HETATM    8  P   UNL     1     -10.061   9.710  69.927  1.00  0.00    -0.278 P  
HETATM    9  P   UNL     1      -7.486   8.213  70.175  1.00  0.00    -0.063 P  
HETATM   10  H   UNL     1      -9.572   8.228  72.072  1.00  0.00     0.000 HD 
HETATM   11  O   UNL     1     -10.697  11.111  69.758  1.00  0.00    -0.161 OA 
HETATM   12  O   UNL     1     -11.525   8.981  70.212  1.00  0.00    -0.230 OA 
HETATM   13  O   UNL     1     -10.054   9.492  68.296  1.00  0.00    -0.169 OA 
HETATM   14  O   UNL     1      -7.418   6.938  71.222  1.00  0.00    -0.080 OA 
HETATM   15  O   UNL     1      -7.652   9.347  71.355  1.00  0.00    -0.340 OA 
HETATM   16  O   UNL     1      -5.944   8.348  70.217  1.00  0.00    -0.028 OA 
ENDBRANCH   5   6
ENDBRANCH   4   5
TORSDOF 2
ENDMDL
MODEL      211
REMARK 921   NORMALIZED FREE ENERGY PREDICTED BY IDOCK:   -2.26 KCAL/MOL
REMARK 922        TOTAL FREE ENERGY PREDICTED BY IDOCK:   -2.50 KCAL/MOL
REMARK 923 INTER-LIGAND FREE ENERGY PREDICTED BY IDOCK:   -2.34 KCAL/MOL
REMARK 924 INTRA-LIGAND FREE ENERGY PREDICTED BY IDOCK:   -0.16 KCAL/MOL
REMARK 927      BINDING AFFINITY PREDICTED BY RF-SCORE:    0.00 PKD
ROOT
HETATM    1  N   UNL     1     -11.094   9.604  67.880  1.00  0.00    -0.508 NA 
HETATM    2  H2  UNL     1     -10.939   9.364  68.859  1.00  0.00     0.000 HD 
HETATM    3  H1  UNL     1     -11.069  10.614  67.744  1.00  0.00     0.000 HD 
HETATM    4  C   UNL     1     -10.165   8.889  67.018  1.00  0.00    -0.275 C  
ENDROOT
BRANCH   4   5
HETATM    5  C   UNL     1     -10.202   7.370  67.222  1.00  0.00    -0.330 C  
BRANCH   5   6
HETATM    6  C   UNL     1      -8.843   6.640  67.485  1.00  0.00    -0.116 C  
HETATM    7  O   UNL     1      -7.772   7.582  67.119  1.00  0.00    -0.107 OA 
HETATM    8  P   UNL     1      -8.517   5.169  66.445  1.00  0.00    -0.114 P  
HETATM    9  P   UNL     1      -8.718   6.179  69.251  1.00  0.00    -0.121 P  
HETATM   10  H   UNL     1      -6.946   7.138  67.279  1.00  0.00     0.000 HD 
HETATM   11  O   UNL     1      -8.241   3.925  65.566  1.00  0.00    -0.103 OA 
HETATM   12  O   UNL     1      -8.500   6.201  65.145  1.00  0.00    -0.149 OA 
HETATM   13  O   UNL     1     -10.132   4.857  66.420  1.00  0.00    -0.205 OA 
HETATM   14  O   UNL     1      -8.130   7.684  69.587  1.00  0.00    -0.121 OA 
HETATM   15  O   UNL     1      -7.242   5.523  68.940  1.00  0.00    -0.063 OA 
HETATM   16  O   UNL     1      -8.613   5.788  70.746  1.00  0.00    -0.126 OA 
ENDBRANCH   5   6
ENDBRANCH   4   5
TORSDOF 2
ENDMDL
MODEL      212
REMARK 921   NORMALIZED FREE ENERGY PREDICTED BY IDOCK:   -2.25 KCAL/MOL
REMARK 922        TOTAL FREE ENERGY PREDICTED BY IDOCK:   -2.48 KCAL/MOL
REMARK 923 INTER-LIGAND FREE ENERGY PREDICTED BY IDOCK:   -1.91 KCAL/MOL
REMARK 924 INTRA-LIGAND FREE ENERGY PREDICTED BY IDOCK:   -0.58 KCAL/MOL
REMARK 927      BINDING AFFINITY PREDICTED BY RF-SCORE:    0.00 PKD
ROOT
HETATM    1  N   UNL     1     -11.945   7.082  69.964  1.00  0.00    -0.614 NA 
HETATM    2  H2  UNL     1     -12.125   6.288  70.579  1.00  0.00     0.000 HD 
HETATM    3  H1  UNL     1     -12.790   7.635  69.827  1.00  0.00     0.000 HD 
HETATM    4  C   UNL     1     -10.820   7.868  70.449  1.00  0.00    -0.244 C  
ENDROOT
BRANCH   4   5
HETATM    5  C   UNL     1      -9.549   7.036  70.655  1.00  0.00    -0.165 C  
BRANCH   5   6
HETATM    6  C   UNL     1      -8.699   6.686  69.389  1.00  0.00    -0.135 C  
HETATM    7  O   UNL     1      -9.386   7.281  68.231  1.00  0.00    -0.136 OA 
HETATM    8  P   UNL     1      -8.587   4.907  68.975  1.00  0.00    -0.085 P  
HETATM    9  P   UNL     1      -7.014   7.380  69.562  1.00  0.00    -0.059 P  
HETATM   10  H   UNL     1      -8.870   7.068  67.462  1.00  0.00     0.000 HD 
HETATM   11  O   UNL     1      -8.492   3.402  68.624  1.00  0.00    -0.074 OA 
HETATM   12  O   UNL     1     -10.224   4.957  68.707  1.00  0.00    -0.142 OA 
HETATM   13  O   UNL     1      -8.666   4.551  70.579  1.00  0.00    -0.089 OA 
HETATM   14  O   UNL     1      -7.561   8.817  68.963  1.00  0.00    -0.086 OA 
HETATM   15  O   UNL     1      -6.642   6.752  68.087  1.00  0.00    -0.053 OA 
HETATM   16  O   UNL     1      -5.589   7.966  69.708  1.00  0.00    -0.023 OA 
ENDBRANCH   5   6
ENDBRANCH   4   5
TORSDOF 2
ENDMDL
MODEL      213
REMARK 921   NORMALIZED FREE ENERGY PREDICTED BY IDOCK:   -2.25 KCAL/MOL
REMARK 922        TOTAL FREE ENERGY PREDICTED BY IDOCK:   -2.47 KCAL/MOL
REMARK 923 INTER-LIGAND FREE ENERGY PREDICTED BY IDOCK:   -2.24 KCAL/MOL
REMARK 924 INTRA-LIGAND FREE ENERGY PREDICTED BY IDOCK:   -0.24 KCAL/MOL
REMARK 927      BINDING AFFINITY PREDICTED BY RF-SCORE:    0.00 PKD
ROOT
HETATM    1  N   UNL     1     -10.404   8.580  68.158  1.00  0.00    -0.229 NA 
HETATM    2  H2  UNL     1      -9.880   8.785  69.008  1.00  0.00     0.000 HD 
HETATM    3  H1  UNL     1     -10.175   9.246  67.420  1.00  0.00     0.000 HD 
HETATM    4  C   UNL     1     -10.216   7.195  67.755  1.00  0.00    -0.184 C  
ENDROOT
BRANCH   4   5
HETATM    5  C   UNL     1     -10.560   6.194  68.864  1.00  0.00    -0.335 C  
BRANCH   5   6
HETATM    6  C   UNL     1      -9.535   6.029  70.035  1.00  0.00    -0.156 C  
HETATM    7  O   UNL     1      -8.613   7.174  69.964  1.00  0.00    -0.138 OA 
HETATM    8  P   UNL     1      -8.438   4.567  69.931  1.00  0.00    -0.066 P  
HETATM    9  P   UNL     1     -10.420   6.015  71.637  1.00  0.00    -0.243 P  
HETATM   10  H   UNL     1      -7.990   7.074  70.675  1.00  0.00     0.000 HD 
HETATM   11  O   UNL     1      -7.511   3.330  69.843  1.00  0.00    -0.044 OA 
HETATM   12  O   UNL     1      -7.805   5.251  68.558  1.00  0.00    -0.082 OA 
HETATM   13  O   UNL     1      -9.651   3.738  69.190  1.00  0.00    -0.176 OA 
HETATM   14  O   UNL     1     -10.380   7.665  71.656  1.00  0.00    -0.189 OA 
HETATM   15  O   UNL     1      -8.971   5.837  72.396  1.00  0.00    -0.140 OA 
HETATM   16  O   UNL     1     -11.169   6.003  72.992  1.00  0.00    -0.254 OA 
ENDBRANCH   5   6
ENDBRANCH   4   5
TORSDOF 2
ENDMDL
MODEL      214
REMARK 921   NORMALIZED FREE ENERGY PREDICTED BY IDOCK:   -2.21 KCAL/MOL
REMARK 922        TOTAL FREE ENERGY PREDICTED BY IDOCK:   -2.44 KCAL/MOL
REMARK 923 INTER-LIGAND FREE ENERGY PREDICTED BY IDOCK:   -2.37 KCAL/MOL
REMARK 924 INTRA-LIGAND FREE ENERGY PREDICTED BY IDOCK:   -0.06 KCAL/MOL
REMARK 927      BINDING AFFINITY PREDICTED BY RF-SCORE:    0.00 PKD
ROOT
HETATM    1  N   UNL     1      -8.645   2.582  72.402  1.00  0.00    -0.066 NA 
HETATM    2  H2  UNL     1      -8.783   2.337  73.382  1.00  0.00     0.000 HD 
HETATM    3  H1  UNL     1      -8.332   1.774  71.865  1.00  0.00     0.000 HD 
HETATM    4  C   UNL     1      -9.839   3.205  71.851  1.00  0.00    -0.168 C  
ENDROOT
BRANCH   4   5
HETATM    5  C   UNL     1     -10.311   4.420  72.658  1.00  0.00    -0.248 C  
BRANCH   5   6
HETATM    6  C   UNL     1      -9.775   5.827  72.230  1.00  0.00    -0.154 C  
HETATM    7  O   UNL     1      -8.583   6.101  73.049  1.00  0.00    -0.119 OA 
HETATM    8  P   UNL     1     -10.887   7.239  72.574  1.00  0.00    -0.323 P  
HETATM    9  P   UNL     1      -9.342   5.810  70.452  1.00  0.00    -0.163 P  
HETATM   10  H   UNL     1      -8.258   6.955  72.790  1.00  0.00     0.000 HD 
HETATM   11  O   UNL     1     -11.828   8.434  72.866  1.00  0.00    -0.298 OA 
HETATM   12  O   UNL     1     -10.686   6.891  74.185  1.00  0.00    -0.198 OA 
HETATM   13  O   UNL     1     -12.180   6.253  72.326  1.00  0.00    -0.286 OA 
HETATM   14  O   UNL     1      -7.853   5.211  70.836  1.00  0.00    -0.091 OA 
HETATM   15  O   UNL     1      -8.890   7.387  70.583  1.00  0.00    -0.148 OA 
HETATM   16  O   UNL     1      -8.976   5.797  68.947  1.00  0.00    -0.113 OA 
ENDBRANCH   5   6
ENDBRANCH   4   5
TORSDOF 2
ENDMDL
MODEL      215
REMARK 921   NORMALIZED FREE ENERGY PREDICTED BY IDOCK:   -2.20 KCAL/MOL
REMARK 922        TOTAL FREE ENERGY PREDICTED BY IDOCK:   -2.43 KCAL/MOL
REMARK 923 INTER-LIGAND FREE ENERGY PREDICTED BY IDOCK:   -2.78 KCAL/MOL
REMARK 924 INTRA-LIGAND FREE ENERGY PREDICTED BY IDOCK:    0.36 KCAL/MOL
REMARK 927      BINDING AFFINITY PREDICTED BY RF-SCORE:    0.00 PKD
ROOT
HETATM    1  N   UNL     1     -12.345  15.766  70.643  1.00  0.00    -0.418 NA 
HETATM    2  H2  UNL     1     -12.090  16.172  69.743  1.00  0.00     0.000 HD 
HETATM    3  H1  UNL     1     -13.226  16.152  70.980  1.00  0.00     0.000 HD 
HETATM    4  C   UNL     1     -12.348  14.312  70.572  1.00  0.00    -0.360 C  
ENDROOT
BRANCH   4   5
HETATM    5  C   UNL     1     -11.024  13.731  70.065  1.00  0.00     0.264 C  
BRANCH   5   6
HETATM    6  C   UNL     1     -11.093  12.486  69.120  1.00  0.00    -0.196 C  
HETATM    7  O   UNL     1      -9.740  11.906  69.072  1.00  0.00    -0.409 OA 
HETATM    8  P   UNL     1     -11.488  12.839  67.368  1.00  0.00    -0.376 P  
HETATM    9  P   UNL     1     -12.290  11.271  69.782  1.00  0.00    -0.063 P  
HETATM   10  H   UNL     1      -9.783  11.150  68.498  1.00  0.00     0.000 HD 
HETATM   11  O   UNL     1     -11.822  13.138  65.886  1.00  0.00    -0.364 OA 
HETATM   12  O   UNL     1     -10.052  13.669  67.304  1.00  0.00    -0.235 OA 
HETATM   13  O   UNL     1     -12.418  14.106  67.856  1.00  0.00    -0.108 OA 
HETATM   14  O   UNL     1     -11.101  10.645  70.741  1.00  0.00    -0.176 OA 
HETATM   15  O   UNL     1     -11.956  10.295  68.500  1.00  0.00    -0.163 OA 
HETATM   16  O   UNL     1     -13.303  10.242  70.342  1.00  0.00    -0.178 OA 
ENDBRANCH   5   6
ENDBRANCH   4   5
TORSDOF 2
ENDMDL
MODEL      216
REMARK 921   NORMALIZED FREE ENERGY PREDICTED BY IDOCK:   -2.20 KCAL/MOL
REMARK 922        TOTAL FREE ENERGY PREDICTED BY IDOCK:   -2.43 KCAL/MOL
REMARK 923 INTER-LIGAND FREE ENERGY PREDICTED BY IDOCK:   -2.30 KCAL/MOL
REMARK 924 INTRA-LIGAND FREE ENERGY PREDICTED BY IDOCK:   -0.13 KCAL/MOL
REMARK 927      BINDING AFFINITY PREDICTED BY RF-SCORE:    0.00 PKD
ROOT
HETATM    1  N   UNL     1      -7.982   9.844  70.499  1.00  0.00    -0.402 NA 
HETATM    2  H2  UNL     1      -7.848   9.814  69.488  1.00  0.00     0.000 HD 
HETATM    3  H1  UNL     1      -8.454  10.704  70.777  1.00  0.00     0.000 HD 
HETATM    4  C   UNL     1      -8.658   8.645  70.968  1.00  0.00    -0.173 C  
ENDROOT
BRANCH   4   5
HETATM    5  C   UNL     1      -7.949   7.352  70.550  1.00  0.00    -0.099 C  
BRANCH   5   6
HETATM    6  C   UNL     1      -8.785   6.288  69.763  1.00  0.00    -0.137 C  
HETATM    7  O   UNL     1      -8.315   4.963  70.200  1.00  0.00    -0.078 OA 
HETATM    8  P   UNL     1      -8.544   6.271  67.949  1.00  0.00    -0.113 P  
HETATM    9  P   UNL     1     -10.564   6.495  70.140  1.00  0.00    -0.273 P  
HETATM   10  H   UNL     1      -8.823   4.317  69.722  1.00  0.00     0.000 HD 
HETATM   11  O   UNL     1      -8.339   6.256  66.414  1.00  0.00    -0.111 OA 
HETATM   12  O   UNL     1      -6.974   5.821  68.251  1.00  0.00    -0.064 OA 
HETATM   13  O   UNL     1      -8.288   7.895  67.990  1.00  0.00    -0.122 OA 
HETATM   14  O   UNL     1     -10.374   5.552  71.481  1.00  0.00    -0.207 OA 
HETATM   15  O   UNL     1     -10.888   5.235  69.134  1.00  0.00    -0.130 OA 
HETATM   16  O   UNL     1     -12.069   6.671  70.458  1.00  0.00    -0.390 OA 
ENDBRANCH   5   6
ENDBRANCH   4   5
TORSDOF 2
ENDMDL
MODEL      217
REMARK 921   NORMALIZED FREE ENERGY PREDICTED BY IDOCK:   -2.19 KCAL/MOL
REMARK 922        TOTAL FREE ENERGY PREDICTED BY IDOCK:   -2.41 KCAL/MOL
REMARK 923 INTER-LIGAND FREE ENERGY PREDICTED BY IDOCK:   -2.29 KCAL/MOL
REMARK 924 INTRA-LIGAND FREE ENERGY PREDICTED BY IDOCK:   -0.12 KCAL/MOL
REMARK 927      BINDING AFFINITY PREDICTED BY RF-SCORE:    0.00 PKD
ROOT
HETATM    1  N   UNL     1      -8.105   7.240  66.953  1.00  0.00    -0.118 NA 
HETATM    2  H2  UNL     1      -7.227   7.476  67.415  1.00  0.00     0.000 HD 
HETATM    3  H1  UNL     1      -7.935   6.829  66.036  1.00  0.00     0.000 HD 
HETATM    4  C   UNL     1      -8.932   6.403  67.809  1.00  0.00    -0.113 C  
ENDROOT
BRANCH   4   5
HETATM    5  C   UNL     1      -9.189   7.021  69.188  1.00  0.00    -0.138 C  
BRANCH   5   6
HETATM    6  C   UNL     1      -9.693   6.072  70.325  1.00  0.00    -0.165 C  
HETATM    7  O   UNL     1     -10.162   4.836  69.677  1.00  0.00    -0.236 OA 
HETATM    8  P   UNL     1     -11.147   6.662  71.267  1.00  0.00    -0.295 P  
HETATM    9  P   UNL     1      -8.323   5.709  71.483  1.00  0.00    -0.129 P  
HETATM   10  H   UNL     1     -10.469   4.259  70.368  1.00  0.00     0.000 HD 
HETATM   11  O   UNL     1     -12.378   7.161  72.063  1.00  0.00    -0.304 OA 
HETATM   12  O   UNL     1     -12.001   6.545  69.848  1.00  0.00    -0.319 OA 
HETATM   13  O   UNL     1     -10.631   8.209  71.052  1.00  0.00    -0.206 OA 
HETATM   14  O   UNL     1      -7.831   4.483  70.493  1.00  0.00    -0.053 OA 
HETATM   15  O   UNL     1      -9.355   4.771  72.356  1.00  0.00    -0.128 OA 
HETATM   16  O   UNL     1      -7.163   5.403  72.463  1.00  0.00    -0.088 OA 
ENDBRANCH   5   6
ENDBRANCH   4   5
TORSDOF 2
ENDMDL
MODEL      218
REMARK 921   NORMALIZED FREE ENERGY PREDICTED BY IDOCK:   -2.18 KCAL/MOL
REMARK 922        TOTAL FREE ENERGY PREDICTED BY IDOCK:   -2.40 KCAL/MOL
REMARK 923 INTER-LIGAND FREE ENERGY PREDICTED BY IDOCK:   -1.87 KCAL/MOL
REMARK 924 INTRA-LIGAND FREE ENERGY PREDICTED BY IDOCK:   -0.53 KCAL/MOL
REMARK 927      BINDING AFFINITY PREDICTED BY RF-SCORE:    0.00 PKD
ROOT
HETATM    1  N   UNL     1      -9.383   5.639  70.097  1.00  0.00    -0.151 NA 
HETATM    2  H2  UNL     1     -10.386   5.607  69.914  1.00  0.00     0.000 HD 
HETATM    3  H1  UNL     1      -9.148   5.102  70.931  1.00  0.00     0.000 HD 
HETATM    4  C   UNL     1      -8.630   5.229  68.922  1.00  0.00    -0.091 C  
ENDROOT
BRANCH   4   5
HETATM    5  C   UNL     1      -8.983   6.036  67.668  1.00  0.00    -0.111 C  
BRANCH   5   6
HETATM    6  C   UNL     1      -8.564   7.543  67.633  1.00  0.00    -0.119 C  
HETATM    7  O   UNL     1      -7.821   7.811  68.876  1.00  0.00    -0.117 OA 
HETATM    8  P   UNL     1      -9.938   8.751  67.667  1.00  0.00    -0.224 P  
HETATM    9  P   UNL     1      -7.509   7.860  66.172  1.00  0.00    -0.081 P  
HETATM   10  H   UNL     1      -7.566   8.726  68.855  1.00  0.00     0.000 HD 
HETATM   11  O   UNL     1     -11.101   9.773  67.695  1.00  0.00    -0.244 OA 
HETATM   12  O   UNL     1     -10.292   8.173  69.182  1.00  0.00    -0.215 OA 
HETATM   13  O   UNL     1     -10.869   7.682  66.833  1.00  0.00    -0.328 OA 
HETATM   14  O   UNL     1      -6.190   7.373  67.038  1.00  0.00    -0.044 OA 
HETATM   15  O   UNL     1      -7.400   9.434  66.636  1.00  0.00    -0.088 OA 
HETATM   16  O   UNL     1      -6.616   8.128  64.936  1.00  0.00    -0.054 OA 
ENDBRANCH   5   6
ENDBRANCH   4   5
TORSDOF 2
ENDMDL
MODEL      219
REMARK 921   NORMALIZED FREE ENERGY PREDICTED BY IDOCK:   -2.18 KCAL/MOL
REMARK 922        TOTAL FREE ENERGY PREDICTED BY IDOCK:   -2.40 KCAL/MOL
REMARK 923 INTER-LIGAND FREE ENERGY PREDICTED BY IDOCK:   -2.24 KCAL/MOL
REMARK 924 INTRA-LIGAND FREE ENERGY PREDICTED BY IDOCK:   -0.16 KCAL/MOL
REMARK 927      BINDING AFFINITY PREDICTED BY RF-SCORE:    0.00 PKD
ROOT
HETATM    1  N   UNL     1     -10.788  12.800  69.083  1.00  0.00    -0.427 NA 
HETATM    2  H2  UNL     1     -10.370  13.044  69.980  1.00  0.00     0.000 HD 
HETATM    3  H1  UNL     1     -11.652  13.319  68.931  1.00  0.00     0.000 HD 
HETATM    4  C   UNL     1      -9.827  12.961  68.003  1.00  0.00    -0.223 C  
ENDROOT
BRANCH   4   5
HETATM    5  C   UNL     1      -8.528  12.179  68.231  1.00  0.00    -0.176 C  
BRANCH   5   6
HETATM    6  C   UNL     1      -8.574  10.626  68.043  1.00  0.00    -0.122 C  
HETATM    7  O   UNL     1      -9.515  10.099  69.045  1.00  0.00    -0.170 OA 
HETATM    8  P   UNL     1      -7.011   9.738  68.388  1.00  0.00    -0.069 P  
HETATM    9  P   UNL     1      -9.144  10.223  66.352  1.00  0.00    -0.161 P  
HETATM   10  H   UNL     1      -9.542   9.156  68.931  1.00  0.00     0.000 HD 
HETATM   11  O   UNL     1      -5.689   8.986  68.680  1.00  0.00    -0.040 OA 
HETATM   12  O   UNL     1      -7.175  10.242  69.961  1.00  0.00    -0.146 OA 
HETATM   13  O   UNL     1      -6.173  11.049  67.854  1.00  0.00    -0.053 OA 
HETATM   14  O   UNL     1     -10.708  10.342  66.867  1.00  0.00    -0.239 OA 
HETATM   15  O   UNL     1      -9.001   8.626  66.722  1.00  0.00    -0.131 OA 
HETATM   16  O   UNL     1      -9.626   9.882  64.920  1.00  0.00    -0.281 OA 
ENDBRANCH   5   6
ENDBRANCH   4   5
TORSDOF 2
ENDMDL
MODEL      220
REMARK 921   NORMALIZED FREE ENERGY PREDICTED BY IDOCK:   -2.16 KCAL/MOL
REMARK 922        TOTAL FREE ENERGY PREDICTED BY IDOCK:   -2.38 KCAL/MOL
REMARK 923 INTER-LIGAND FREE ENERGY PREDICTED BY IDOCK:   -2.24 KCAL/MOL
REMARK 924 INTRA-LIGAND FREE ENERGY PREDICTED BY IDOCK:   -0.15 KCAL/MOL
REMARK 927      BINDING AFFINITY PREDICTED BY RF-SCORE:    0.00 PKD
ROOT
HETATM    1  N   UNL     1      -8.858   8.417  65.046  1.00  0.00    -0.405 NA 
HETATM    2  H2  UNL     1      -7.981   8.595  64.556  1.00  0.00     0.000 HD 
HETATM    3  H1  UNL     1      -9.060   7.418  65.078  1.00  0.00     0.000 HD 
HETATM    4  C   UNL     1      -8.852   9.040  66.361  1.00  0.00    -0.146 C  
ENDROOT
BRANCH   4   5
HETATM    5  C   UNL     1      -8.547  10.542  66.314  1.00  0.00    -0.151 C  
BRANCH   5   6
HETATM    6  C   UNL     1      -9.758  11.530  66.375  1.00  0.00    -0.207 C  
HETATM    7  O   UNL     1     -10.857  10.822  67.052  1.00  0.00    -0.265 OA 
HETATM    8  P   UNL     1     -10.470  12.016  64.760  1.00  0.00    -0.324 P  
HETATM    9  P   UNL     1      -9.288  13.031  67.311  1.00  0.00    -0.238 P  
HETATM   10  H   UNL     1     -11.593  11.422  67.089  1.00  0.00     0.000 HD 
HETATM   11  O   UNL     1     -11.072  12.427  63.394  1.00  0.00    -0.455 OA 
HETATM   12  O   UNL     1     -10.895  10.423  64.568  1.00  0.00     0.150 OA 
HETATM   13  O   UNL     1      -8.973  11.897  64.089  1.00  0.00     0.366 OA 
HETATM   14  O   UNL     1      -9.675  12.257  68.717  1.00  0.00    -0.112 OA 
HETATM   15  O   UNL     1     -10.804  13.620  67.060  1.00  0.00    -0.282 OA 
HETATM   16  O   UNL     1      -8.890  14.301  68.102  1.00  0.00    -0.169 OA 
ENDBRANCH   5   6
ENDBRANCH   4   5
TORSDOF 2
ENDMDL
MODEL      221
REMARK 921   NORMALIZED FREE ENERGY PREDICTED BY IDOCK:   -2.16 KCAL/MOL
REMARK 922        TOTAL FREE ENERGY PREDICTED BY IDOCK:   -2.38 KCAL/MOL
REMARK 923 INTER-LIGAND FREE ENERGY PREDICTED BY IDOCK:   -2.23 KCAL/MOL
REMARK 924 INTRA-LIGAND FREE ENERGY PREDICTED BY IDOCK:   -0.15 KCAL/MOL
REMARK 927      BINDING AFFINITY PREDICTED BY RF-SCORE:    0.00 PKD
ROOT
HETATM    1  N   UNL     1     -10.655   6.593  73.913  1.00  0.00    -0.468 NA 
HETATM    2  H2  UNL     1     -10.063   6.374  74.714  1.00  0.00     0.000 HD 
HETATM    3  H1  UNL     1     -11.567   6.930  74.217  1.00  0.00     0.000 HD 
HETATM    4  C   UNL     1      -9.980   7.508  73.005  1.00  0.00    -0.268 C  
ENDROOT
BRANCH   4   5
HETATM    5  C   UNL     1      -8.608   7.000  72.548  1.00  0.00    -0.132 C  
BRANCH   5   6
HETATM    6  C   UNL     1      -8.530   6.262  71.170  1.00  0.00    -0.124 C  
HETATM    7  O   UNL     1      -8.078   4.888  71.444  1.00  0.00    -0.105 OA 
HETATM    8  P   UNL     1      -7.291   6.912  69.990  1.00  0.00    -0.084 P  
HETATM    9  P   UNL     1     -10.179   6.251  70.378  1.00  0.00    -0.222 P  
HETATM   10  H   UNL     1      -8.031   4.440  70.607  1.00  0.00     0.000 HD 
HETATM   11  O   UNL     1      -6.242   7.461  68.992  1.00  0.00    -0.032 OA 
HETATM   12  O   UNL     1      -6.133   6.443  71.085  1.00  0.00    -0.033 OA 
HETATM   13  O   UNL     1      -7.532   8.420  70.601  1.00  0.00    -0.058 OA 
HETATM   14  O   UNL     1     -10.565   4.894  71.236  1.00  0.00    -0.144 OA 
HETATM   15  O   UNL     1      -9.527   5.429  69.112  1.00  0.00    -0.121 OA 
HETATM   16  O   UNL     1     -11.575   6.242  69.708  1.00  0.00    -0.436 OA 
ENDBRANCH   5   6
ENDBRANCH   4   5
TORSDOF 2
ENDMDL
MODEL      222
REMARK 921   NORMALIZED FREE ENERGY PREDICTED BY IDOCK:   -2.14 KCAL/MOL
REMARK 922        TOTAL FREE ENERGY PREDICTED BY IDOCK:   -2.36 KCAL/MOL
REMARK 923 INTER-LIGAND FREE ENERGY PREDICTED BY IDOCK:   -2.17 KCAL/MOL
REMARK 924 INTRA-LIGAND FREE ENERGY PREDICTED BY IDOCK:   -0.19 KCAL/MOL
REMARK 927      BINDING AFFINITY PREDICTED BY RF-SCORE:    0.00 PKD
ROOT
HETATM    1  N   UNL     1      -8.313   5.096  69.228  1.00  0.00    -0.087 NA 
HETATM    2  H2  UNL     1      -8.991   5.729  68.804  1.00  0.00     0.000 HD 
HETATM    3  H1  UNL     1      -7.784   4.598  68.513  1.00  0.00     0.000 HD 
HETATM    4  C   UNL     1      -7.467   5.803  70.177  1.00  0.00    -0.081 C  
ENDROOT
BRANCH   4   5
HETATM    5  C   UNL     1      -8.263   6.552  71.252  1.00  0.00    -0.121 C  
BRANCH   5   6
HETATM    6  C   UNL     1      -8.133   8.111  71.295  1.00  0.00    -0.107 C  
HETATM    7  O   UNL     1      -7.797   8.476  72.681  1.00  0.00    -0.289 OA 
HETATM    8  P   UNL     1      -9.668   9.047  70.947  1.00  0.00    -0.288 P  
HETATM    9  P   UNL     1      -6.814   8.656  70.150  1.00  0.00    -0.044 P  
HETATM   10  H   UNL     1      -7.719   9.423  72.708  1.00  0.00     0.000 HD 
HETATM   11  O   UNL     1     -10.966   9.838  70.653  1.00  0.00    -0.282 OA 
HETATM   12  O   UNL     1     -10.287   8.372  72.332  1.00  0.00    -0.305 OA 
HETATM   13  O   UNL     1     -10.140   7.849  69.924  1.00  0.00    -0.190 OA 
HETATM   14  O   UNL     1      -5.697   8.395  71.337  1.00  0.00    -0.034 OA 
HETATM   15  O   UNL     1      -7.120  10.211  70.593  1.00  0.00    -0.312 OA 
HETATM   16  O   UNL     1      -5.698   9.117  69.181  1.00  0.00    -0.036 OA 
ENDBRANCH   5   6
ENDBRANCH   4   5
TORSDOF 2
ENDMDL
MODEL      223
REMARK 921   NORMALIZED FREE ENERGY PREDICTED BY IDOCK:   -2.14 KCAL/MOL
REMARK 922        TOTAL FREE ENERGY PREDICTED BY IDOCK:   -2.35 KCAL/MOL
REMARK 923 INTER-LIGAND FREE ENERGY PREDICTED BY IDOCK:   -2.20 KCAL/MOL
REMARK 924 INTRA-LIGAND FREE ENERGY PREDICTED BY IDOCK:   -0.15 KCAL/MOL
REMARK 927      BINDING AFFINITY PREDICTED BY RF-SCORE:    0.00 PKD
ROOT
HETATM    1  N   UNL     1     -10.328  11.958  69.144  1.00  0.00    -0.420 NA 
HETATM    2  H2  UNL     1     -10.367  12.358  68.206  1.00  0.00     0.000 HD 
HETATM    3  H1  UNL     1     -11.184  12.157  69.659  1.00  0.00     0.000 HD 
HETATM    4  C   UNL     1     -10.011  10.539  69.089  1.00  0.00    -0.220 C  
ENDROOT
BRANCH   4   5
HETATM    5  C   UNL     1      -8.723  10.239  68.313  1.00  0.00    -0.126 C  
BRANCH   5   6
HETATM    6  C   UNL     1      -8.768   9.093  67.249  1.00  0.00    -0.117 C  
HETATM    7  O   UNL     1     -10.104   8.479  67.334  1.00  0.00    -0.194 OA 
HETATM    8  P   UNL     1      -7.619   7.698  67.535  1.00  0.00    -0.112 P  
HETATM    9  P   UNL     1      -8.484   9.785  65.579  1.00  0.00    -0.161 P  
HETATM   10  H   UNL     1     -10.131   7.783  66.688  1.00  0.00     0.000 HD 
HETATM   11  O   UNL     1      -6.646   6.517  67.777  1.00  0.00    -0.056 OA 
HETATM   12  O   UNL     1      -8.484   7.384  68.917  1.00  0.00    -0.128 OA 
HETATM   13  O   UNL     1      -6.549   8.747  68.214  1.00  0.00    -0.059 OA 
HETATM   14  O   UNL     1     -10.093  10.135  65.467  1.00  0.00    -0.289 OA 
HETATM   15  O   UNL     1      -8.633   8.267  64.962  1.00  0.00    -0.154 OA 
HETATM   16  O   UNL     1      -8.243  10.371  64.166  1.00  0.00    -0.163 OA 
ENDBRANCH   5   6
ENDBRANCH   4   5
TORSDOF 2
ENDMDL
MODEL      224
REMARK 921   NORMALIZED FREE ENERGY PREDICTED BY IDOCK:   -2.13 KCAL/MOL
REMARK 922        TOTAL FREE ENERGY PREDICTED BY IDOCK:   -2.34 KCAL/MOL
REMARK 923 INTER-LIGAND FREE ENERGY PREDICTED BY IDOCK:   -2.08 KCAL/MOL
REMARK 924 INTRA-LIGAND FREE ENERGY PREDICTED BY IDOCK:   -0.26 KCAL/MOL
REMARK 927      BINDING AFFINITY PREDICTED BY RF-SCORE:    0.00 PKD
ROOT
HETATM    1  N   UNL     1      -8.416   6.889  63.642  1.00  0.00    -0.330 NA 
HETATM    2  H2  UNL     1      -9.118   6.218  63.954  1.00  0.00     0.000 HD 
HETATM    3  H1  UNL     1      -8.764   7.441  62.858  1.00  0.00     0.000 HD 
HETATM    4  C   UNL     1      -7.951   7.705  64.753  1.00  0.00    -0.137 C  
ENDROOT
BRANCH   4   5
HETATM    5  C   UNL     1      -7.428   6.875  65.932  1.00  0.00    -0.084 C  
BRANCH   5   6
HETATM    6  C   UNL     1      -8.358   6.727  67.182  1.00  0.00    -0.121 C  
HETATM    7  O   UNL     1      -7.508   6.899  68.372  1.00  0.00    -0.093 OA 
HETATM    8  P   UNL     1      -9.121   5.079  67.414  1.00  0.00    -0.123 P  
HETATM    9  P   UNL     1      -9.667   8.005  67.137  1.00  0.00    -0.242 P  
HETATM   10  H   UNL     1      -8.073   6.809  69.131  1.00  0.00     0.000 HD 
HETATM   11  O   UNL     1      -9.766   3.686  67.610  1.00  0.00    -0.176 OA 
HETATM   12  O   UNL     1      -7.582   4.495  67.631  1.00  0.00    -0.076 OA 
HETATM   13  O   UNL     1      -9.166   4.895  65.780  1.00  0.00    -0.144 OA 
HETATM   14  O   UNL     1      -8.633   9.067  67.863  1.00  0.00    -0.124 OA 
HETATM   15  O   UNL     1     -10.255   7.402  68.550  1.00  0.00    -0.174 OA 
HETATM   16  O   UNL     1     -10.775   9.086  67.098  1.00  0.00    -0.259 OA 
ENDBRANCH   5   6
ENDBRANCH   4   5
TORSDOF 2
ENDMDL
MODEL      225
REMARK 921   NORMALIZED FREE ENERGY PREDICTED BY IDOCK:   -2.13 KCAL/MOL
REMARK 922        TOTAL FREE ENERGY PREDICTED BY IDOCK:   -2.34 KCAL/MOL
REMARK 923 INTER-LIGAND FREE ENERGY PREDICTED BY IDOCK:   -2.19 KCAL/MOL
REMARK 924 INTRA-LIGAND FREE ENERGY PREDICTED BY IDOCK:   -0.16 KCAL/MOL
REMARK 927      BINDING AFFINITY PREDICTED BY RF-SCORE:    0.00 PKD
ROOT
HETATM    1  N   UNL     1      -8.376  12.848  67.824  1.00  0.00    -0.164 NA 
HETATM    2  H2  UNL     1      -8.502  12.494  66.876  1.00  0.00     0.000 HD 
HETATM    3  H1  UNL     1      -8.009  12.122  68.438  1.00  0.00     0.000 HD 
HETATM    4  C   UNL     1      -7.567  14.058  67.823  1.00  0.00    -0.170 C  
ENDROOT
BRANCH   4   5
HETATM    5  C   UNL     1      -8.119  15.150  66.899  1.00  0.00    -0.194 C  
BRANCH   5   6
HETATM    6  C   UNL     1      -8.371  16.564  67.519  1.00  0.00    -0.164 C  
HETATM    7  O   UNL     1      -7.950  16.497  68.929  1.00  0.00    -0.222 OA 
HETATM    8  P   UNL     1     -10.120  17.097  67.601  1.00  0.00    -0.329 P  
HETATM    9  P   UNL     1      -7.393  17.820  66.617  1.00  0.00    -0.275 P  
HETATM   10  H   UNL     1      -8.103  17.356  69.305  1.00  0.00     0.000 HD 
HETATM   11  O   UNL     1     -11.600  17.547  67.670  1.00  0.00     0.458 OA 
HETATM   12  O   UNL     1     -10.362  15.835  68.653  1.00  0.00    -0.215 OA 
HETATM   13  O   UNL     1     -10.418  16.254  66.220  1.00  0.00    -0.312 OA 
HETATM   14  O   UNL     1      -6.096  17.480  67.580  1.00  0.00    -0.135 OA 
HETATM   15  O   UNL     1      -8.007  18.970  67.620  1.00  0.00    -0.254 OA 
HETATM   16  O   UNL     1      -6.565  18.883  65.852  1.00  0.00    -0.210 OA 
ENDBRANCH   5   6
ENDBRANCH   4   5
TORSDOF 2
ENDMDL
MODEL      226
REMARK 921   NORMALIZED FREE ENERGY PREDICTED BY IDOCK:   -2.12 KCAL/MOL
REMARK 922        TOTAL FREE ENERGY PREDICTED BY IDOCK:   -2.34 KCAL/MOL
REMARK 923 INTER-LIGAND FREE ENERGY PREDICTED BY IDOCK:   -2.46 KCAL/MOL
REMARK 924 INTRA-LIGAND FREE ENERGY PREDICTED BY IDOCK:    0.13 KCAL/MOL
REMARK 927      BINDING AFFINITY PREDICTED BY RF-SCORE:    0.00 PKD
ROOT
HETATM    1  N   UNL     1      -7.465   9.815  71.142  1.00  0.00    -0.284 NA 
HETATM    2  H2  UNL     1      -6.565   9.507  70.775  1.00  0.00     0.000 HD 
HETATM    3  H1  UNL     1      -7.517  10.833  71.168  1.00  0.00     0.000 HD 
HETATM    4  C   UNL     1      -8.561   9.206  70.405  1.00  0.00    -0.209 C  
ENDROOT
BRANCH   4   5
HETATM    5  C   UNL     1      -8.483   7.675  70.366  1.00  0.00    -0.136 C  
BRANCH   5   6
HETATM    6  C   UNL     1      -9.659   6.873  71.015  1.00  0.00    -0.170 C  
HETATM    7  O   UNL     1     -10.903   7.586  70.680  1.00  0.00    -0.231 OA 
HETATM    8  P   UNL     1      -9.662   6.806  72.844  1.00  0.00    -0.169 P  
HETATM    9  P   UNL     1      -9.694   5.171  70.342  1.00  0.00    -0.239 P  
HETATM   10  H   UNL     1     -11.617   7.099  71.074  1.00  0.00     0.000 HD 
HETATM   11  O   UNL     1      -9.665   6.750  74.391  1.00  0.00    -0.267 OA 
HETATM   12  O   UNL     1      -9.889   8.450  72.815  1.00  0.00    -0.274 OA 
HETATM   13  O   UNL     1      -8.018   6.840  72.826  1.00  0.00    -0.099 OA 
HETATM   14  O   UNL     1     -10.588   5.711  69.064  1.00  0.00    -0.245 OA 
HETATM   15  O   UNL     1     -10.997   4.858  71.296  1.00  0.00     0.059 OA 
HETATM   16  O   UNL     1      -9.723   3.731  69.774  1.00  0.00    -0.200 OA 
ENDBRANCH   5   6
ENDBRANCH   4   5
TORSDOF 2
ENDMDL
MODEL      227
REMARK 921   NORMALIZED FREE ENERGY PREDICTED BY IDOCK:   -2.12 KCAL/MOL
REMARK 922        TOTAL FREE ENERGY PREDICTED BY IDOCK:   -2.33 KCAL/MOL
REMARK 923 INTER-LIGAND FREE ENERGY PREDICTED BY IDOCK:   -1.76 KCAL/MOL
REMARK 924 INTRA-LIGAND FREE ENERGY PREDICTED BY IDOCK:   -0.57 KCAL/MOL
REMARK 927      BINDING AFFINITY PREDICTED BY RF-SCORE:    0.00 PKD
ROOT
HETATM    1  N   UNL     1      -7.979   6.142  64.555  1.00  0.00    -0.121 NA 
HETATM    2  H2  UNL     1      -8.121   5.141  64.693  1.00  0.00     0.000 HD 
HETATM    3  H1  UNL     1      -8.179   6.407  63.591  1.00  0.00     0.000 HD 
HETATM    4  C   UNL     1      -8.738   6.912  65.529  1.00  0.00    -0.025 C  
ENDROOT
BRANCH   4   5
HETATM    5  C   UNL     1      -8.438   6.512  66.978  1.00  0.00    -0.113 C  
BRANCH   5   6
HETATM    6  C   UNL     1      -9.083   5.191  67.514  1.00  0.00    -0.114 C  
HETATM    7  O   UNL     1      -9.966   4.682  66.451  1.00  0.00    -0.200 OA 
HETATM    8  P   UNL     1     -10.188   5.376  68.961  1.00  0.00    -0.179 P  
HETATM    9  P   UNL     1      -7.772   3.973  67.899  1.00  0.00    -0.066 P  
HETATM   10  H   UNL     1     -10.358   3.879  66.777  1.00  0.00     0.000 HD 
HETATM   11  O   UNL     1     -11.123   5.533  70.185  1.00  0.00    -0.248 OA 
HETATM   12  O   UNL     1     -11.180   6.273  67.977  1.00  0.00    -0.323 OA 
HETATM   13  O   UNL     1      -9.257   6.628  69.484  1.00  0.00    -0.143 OA 
HETATM   14  O   UNL     1      -7.776   3.493  66.319  1.00  0.00    -0.083 OA 
HETATM   15  O   UNL     1      -8.942   2.914  68.364  1.00  0.00    -0.110 OA 
HETATM   16  O   UNL     1      -6.664   2.942  68.225  1.00  0.00    -0.039 OA 
ENDBRANCH   5   6
ENDBRANCH   4   5
TORSDOF 2
ENDMDL
MODEL      228
REMARK 921   NORMALIZED FREE ENERGY PREDICTED BY IDOCK:   -2.12 KCAL/MOL
REMARK 922        TOTAL FREE ENERGY PREDICTED BY IDOCK:   -2.33 KCAL/MOL
REMARK 923 INTER-LIGAND FREE ENERGY PREDICTED BY IDOCK:   -2.40 KCAL/MOL
REMARK 924 INTRA-LIGAND FREE ENERGY PREDICTED BY IDOCK:    0.07 KCAL/MOL
REMARK 927      BINDING AFFINITY PREDICTED BY RF-SCORE:    0.00 PKD
ROOT
HETATM    1  N   UNL     1     -11.785   6.381  69.637  1.00  0.00    -0.587 NA 
HETATM    2  H2  UNL     1     -11.595   6.189  68.653  1.00  0.00     0.000 HD 
HETATM    3  H1  UNL     1     -12.371   5.652  70.043  1.00  0.00     0.000 HD 
HETATM    4  C   UNL     1     -10.547   6.593  70.371  1.00  0.00    -0.223 C  
ENDROOT
BRANCH   4   5
HETATM    5  C   UNL     1      -9.665   7.688  69.761  1.00  0.00    -0.171 C  
BRANCH   5   6
HETATM    6  C   UNL     1      -8.836   7.324  68.484  1.00  0.00    -0.129 C  
HETATM    7  O   UNL     1      -7.428   7.628  68.785  1.00  0.00    -0.094 OA 
HETATM    8  P   UNL     1      -9.198   8.318  66.991  1.00  0.00    -0.172 P  
HETATM    9  P   UNL     1      -9.041   5.547  68.098  1.00  0.00    -0.110 P  
HETATM   10  H   UNL     1      -6.924   7.407  68.010  1.00  0.00     0.000 HD 
HETATM   11  O   UNL     1      -9.505   9.160  65.728  1.00  0.00    -0.239 OA 
HETATM   12  O   UNL     1      -8.621   9.628  67.832  1.00  0.00    -0.122 OA 
HETATM   13  O   UNL     1     -10.762   8.449  67.485  1.00  0.00    -0.240 OA 
HETATM   14  O   UNL     1      -7.823   5.192  69.155  1.00  0.00    -0.079 OA 
HETATM   15  O   UNL     1      -8.044   5.748  66.806  1.00  0.00    -0.102 OA 
HETATM   16  O   UNL     1      -9.215   4.043  67.771  1.00  0.00    -0.134 OA 
ENDBRANCH   5   6
ENDBRANCH   4   5
TORSDOF 2
ENDMDL
MODEL      229
REMARK 921   NORMALIZED FREE ENERGY PREDICTED BY IDOCK:   -2.11 KCAL/MOL
REMARK 922        TOTAL FREE ENERGY PREDICTED BY IDOCK:   -2.33 KCAL/MOL
REMARK 923 INTER-LIGAND FREE ENERGY PREDICTED BY IDOCK:   -2.08 KCAL/MOL
REMARK 924 INTRA-LIGAND FREE ENERGY PREDICTED BY IDOCK:   -0.25 KCAL/MOL
REMARK 927      BINDING AFFINITY PREDICTED BY RF-SCORE:    0.00 PKD
ROOT
HETATM    1  N   UNL     1      -6.889   9.577  65.030  1.00  0.00    -0.093 NA 
HETATM    2  H2  UNL     1      -6.415   9.292  65.887  1.00  0.00     0.000 HD 
HETATM    3  H1  UNL     1      -6.876   8.826  64.341  1.00  0.00     0.000 HD 
HETATM    4  C   UNL     1      -8.228  10.067  65.317  1.00  0.00    -0.148 C  
ENDROOT
BRANCH   4   5
HETATM    5  C   UNL     1      -8.247  11.196  66.354  1.00  0.00    -0.164 C  
BRANCH   5   6
HETATM    6  C   UNL     1      -8.890  10.889  67.748  1.00  0.00    -0.135 C  
HETATM    7  O   UNL     1      -9.761  12.028  68.079  1.00  0.00    -0.185 OA 
HETATM    8  P   UNL     1      -7.724  10.795  69.156  1.00  0.00    -0.087 P  
HETATM    9  P   UNL     1      -9.862   9.342  67.656  1.00  0.00    -0.201 P  
HETATM   10  H   UNL     1     -10.151  11.842  68.926  1.00  0.00     0.000 HD 
HETATM   11  O   UNL     1      -6.738  10.715  70.347  1.00  0.00    -0.263 OA 
HETATM   12  O   UNL     1      -7.407  12.402  68.886  1.00  0.00    -0.100 OA 
HETATM   13  O   UNL     1      -6.577  10.200  68.138  1.00  0.00    -0.058 OA 
HETATM   14  O   UNL     1     -11.155  10.205  67.099  1.00  0.00    -0.213 OA 
HETATM   15  O   UNL     1     -10.248   9.531  69.244  1.00  0.00    -0.186 OA 
HETATM   16  O   UNL     1     -10.685   8.032  67.578  1.00  0.00    -0.244 OA 
ENDBRANCH   5   6
ENDBRANCH   4   5
TORSDOF 2
ENDMDL
MODEL      230
REMARK 921   NORMALIZED FREE ENERGY PREDICTED BY IDOCK:   -2.11 KCAL/MOL
REMARK 922        TOTAL FREE ENERGY PREDICTED BY IDOCK:   -2.32 KCAL/MOL
REMARK 923 INTER-LIGAND FREE ENERGY PREDICTED BY IDOCK:   -2.16 KCAL/MOL
REMARK 924 INTRA-LIGAND FREE ENERGY PREDICTED BY IDOCK:   -0.16 KCAL/MOL
REMARK 927      BINDING AFFINITY PREDICTED BY RF-SCORE:    0.00 PKD
ROOT
HETATM    1  N   UNL     1     -11.452   9.691  71.574  1.00  0.00    -0.385 NA 
HETATM    2  H2  UNL     1     -10.982  10.422  72.106  1.00  0.00     0.000 HD 
HETATM    3  H1  UNL     1     -12.461   9.730  71.713  1.00  0.00     0.000 HD 
HETATM    4  C   UNL     1     -11.067   9.743  70.171  1.00  0.00    -0.285 C  
ENDROOT
BRANCH   4   5
HETATM    5  C   UNL     1      -9.550   9.684  69.961  1.00  0.00    -0.281 C  
BRANCH   5   6
HETATM    6  C   UNL     1      -8.976   8.466  69.164  1.00  0.00    -0.147 C  
HETATM    7  O   UNL     1     -10.111   7.827  68.478  1.00  0.00    -0.187 OA 
HETATM    8  P   UNL     1      -8.253   7.123  70.175  1.00  0.00    -0.138 P  
HETATM    9  P   UNL     1      -7.737   9.049  67.949  1.00  0.00    -0.097 P  
HETATM   10  H   UNL     1      -9.762   7.087  67.994  1.00  0.00     0.000 HD 
HETATM   11  O   UNL     1      -7.642   5.987  71.031  1.00  0.00    -0.092 OA 
HETATM   12  O   UNL     1      -9.777   6.884  70.787  1.00  0.00    -0.172 OA 
HETATM   13  O   UNL     1      -7.777   8.243  71.282  1.00  0.00    -0.082 OA 
HETATM   14  O   UNL     1      -8.955   9.350  66.875  1.00  0.00    -0.129 OA 
HETATM   15  O   UNL     1      -7.521   7.489  67.473  1.00  0.00    -0.099 OA 
HETATM   16  O   UNL     1      -6.689   9.542  66.921  1.00  0.00    -0.071 OA 
ENDBRANCH   5   6
ENDBRANCH   4   5
TORSDOF 2
ENDMDL
MODEL      231
REMARK 921   NORMALIZED FREE ENERGY PREDICTED BY IDOCK:   -2.10 KCAL/MOL
REMARK 922        TOTAL FREE ENERGY PREDICTED BY IDOCK:   -2.31 KCAL/MOL
REMARK 923 INTER-LIGAND FREE ENERGY PREDICTED BY IDOCK:   -1.72 KCAL/MOL
REMARK 924 INTRA-LIGAND FREE ENERGY PREDICTED BY IDOCK:   -0.59 KCAL/MOL
REMARK 927      BINDING AFFINITY PREDICTED BY RF-SCORE:    0.00 PKD
ROOT
HETATM    1  N   UNL     1      -8.569   6.666  62.774  1.00  0.00    -0.334 NA 
HETATM    2  H2  UNL     1      -9.213   6.216  63.424  1.00  0.00     0.000 HD 
HETATM    3  H1  UNL     1      -9.068   7.038  61.967  1.00  0.00     0.000 HD 
HETATM    4  C   UNL     1      -7.760   7.665  63.456  1.00  0.00    -0.130 C  
ENDROOT
BRANCH   4   5
HETATM    5  C   UNL     1      -7.010   7.106  64.670  1.00  0.00    -0.051 C  
BRANCH   5   6
HETATM    6  C   UNL     1      -7.862   6.635  65.895  1.00  0.00    -0.102 C  
HETATM    7  O   UNL     1      -9.243   7.088  65.658  1.00  0.00    -0.379 OA 
HETATM    8  P   UNL     1      -7.419   7.383  67.506  1.00  0.00    -0.104 P  
HETATM    9  P   UNL     1      -7.798   4.812  66.031  1.00  0.00    -0.096 P  
HETATM   10  H   UNL     1      -9.760   6.802  66.402  1.00  0.00     0.000 HD 
HETATM   11  O   UNL     1      -7.044   8.016  68.868  1.00  0.00    -0.064 OA 
HETATM   12  O   UNL     1      -7.892   8.838  66.860  1.00  0.00    -0.099 OA 
HETATM   13  O   UNL     1      -5.851   7.458  67.014  1.00  0.00    -0.032 OA 
HETATM   14  O   UNL     1      -9.043   4.703  64.952  1.00  0.00    -0.153 OA 
HETATM   15  O   UNL     1      -8.774   4.911  67.352  1.00  0.00    -0.105 OA 
HETATM   16  O   UNL     1      -7.744   3.268  66.146  1.00  0.00    -0.077 OA 
ENDBRANCH   5   6
ENDBRANCH   4   5
TORSDOF 2
ENDMDL
MODEL      232
REMARK 921   NORMALIZED FREE ENERGY PREDICTED BY IDOCK:   -2.10 KCAL/MOL
REMARK 922        TOTAL FREE ENERGY PREDICTED BY IDOCK:   -2.31 KCAL/MOL
REMARK 923 INTER-LIGAND FREE ENERGY PREDICTED BY IDOCK:   -3.87 KCAL/MOL
REMARK 924 INTRA-LIGAND FREE ENERGY PREDICTED BY IDOCK:    1.56 KCAL/MOL
REMARK 927      BINDING AFFINITY PREDICTED BY RF-SCORE:    0.00 PKD
ROOT
HETATM    1  N   UNL     1      -7.126  20.596  65.108  1.00  0.00    -0.523 NA 
HETATM    2  H2  UNL     1      -7.656  21.425  65.375  1.00  0.00     0.000 HD 
HETATM    3  H1  UNL     1      -6.728  20.704  64.176  1.00  0.00     0.000 HD 
HETATM    4  C   UNL     1      -6.132  20.268  66.119  1.00  0.00    -0.181 C  
ENDROOT
BRANCH   4   5
HETATM    5  C   UNL     1      -6.731  20.106  67.521  1.00  0.00    -0.268 C  
BRANCH   5   6
HETATM    6  C   UNL     1      -7.995  19.196  67.668  1.00  0.00    -0.260 C  
HETATM    7  O   UNL     1      -8.481  19.356  69.049  1.00  0.00    -0.345 OA 
HETATM    8  P   UNL     1      -7.701  17.396  67.505  1.00  0.00    -0.199 P  
HETATM    9  P   UNL     1      -9.277  19.716  66.471  1.00  0.00    -0.405 P  
HETATM   10  H   UNL     1      -9.249  18.803  69.138  1.00  0.00     0.000 HD 
HETATM   11  O   UNL     1      -7.453  15.874  67.368  1.00  0.00    -0.150 OA 
HETATM   12  O   UNL     1      -6.777  17.513  68.879  1.00  0.00    -0.217 OA 
HETATM   13  O   UNL     1      -6.493  17.713  66.435  1.00  0.00    -0.189 OA 
HETATM   14  O   UNL     1      -9.802  20.850  67.549  1.00  0.00    -0.414 OA 
HETATM   15  O   UNL     1     -10.250  18.522  67.047  1.00  0.00    -0.341 OA 
HETATM   16  O   UNL     1     -10.361  20.156  65.457  1.00  0.00    -0.378 OA 
ENDBRANCH   5   6
ENDBRANCH   4   5
TORSDOF 2
ENDMDL
MODEL      233
REMARK 921   NORMALIZED FREE ENERGY PREDICTED BY IDOCK:   -2.08 KCAL/MOL
REMARK 922        TOTAL FREE ENERGY PREDICTED BY IDOCK:   -2.29 KCAL/MOL
REMARK 923 INTER-LIGAND FREE ENERGY PREDICTED BY IDOCK:   -2.20 KCAL/MOL
REMARK 924 INTRA-LIGAND FREE ENERGY PREDICTED BY IDOCK:   -0.09 KCAL/MOL
REMARK 927      BINDING AFFINITY PREDICTED BY RF-SCORE:    0.00 PKD
ROOT
HETATM    1  N   UNL     1      -9.336  12.950  65.920  1.00  0.00    -0.462 NA 
HETATM    2  H2  UNL     1      -9.949  12.427  65.295  1.00  0.00     0.000 HD 
HETATM    3  H1  UNL     1      -9.613  13.930  65.965  1.00  0.00     0.000 HD 
HETATM    4  C   UNL     1      -9.266  12.315  67.228  1.00  0.00    -0.185 C  
ENDROOT
BRANCH   4   5
HETATM    5  C   UNL     1      -8.849  10.842  67.160  1.00  0.00    -0.135 C  
BRANCH   5   6
HETATM    6  C   UNL     1      -8.651  10.082  68.514  1.00  0.00    -0.119 C  
HETATM    7  O   UNL     1      -9.025  11.015  69.589  1.00  0.00    -0.344 OA 
HETATM    8  P   UNL     1      -6.929   9.608  68.914  1.00  0.00    -0.060 P  
HETATM    9  P   UNL     1      -9.718   8.595  68.552  1.00  0.00    -0.172 P  
HETATM   10  H   UNL     1      -8.905  10.553  70.411  1.00  0.00     0.000 HD 
HETATM   11  O   UNL     1      -5.473   9.207  69.253  1.00  0.00    -0.035 OA 
HETATM   12  O   UNL     1      -6.592  11.232  68.985  1.00  0.00    -0.064 OA 
HETATM   13  O   UNL     1      -6.630   9.421  67.307  1.00  0.00    -0.069 OA 
HETATM   14  O   UNL     1     -10.967   9.525  69.102  1.00  0.00    -0.210 OA 
HETATM   15  O   UNL     1      -9.132   8.257  70.052  1.00  0.00    -0.148 OA 
HETATM   16  O   UNL     1     -10.620   7.337  68.585  1.00  0.00    -0.197 OA 
ENDBRANCH   5   6
ENDBRANCH   4   5
TORSDOF 2
ENDMDL
MODEL      234
REMARK 921   NORMALIZED FREE ENERGY PREDICTED BY IDOCK:   -2.05 KCAL/MOL
REMARK 922        TOTAL FREE ENERGY PREDICTED BY IDOCK:   -2.25 KCAL/MOL
REMARK 923 INTER-LIGAND FREE ENERGY PREDICTED BY IDOCK:   -1.97 KCAL/MOL
REMARK 924 INTRA-LIGAND FREE ENERGY PREDICTED BY IDOCK:   -0.29 KCAL/MOL
REMARK 927      BINDING AFFINITY PREDICTED BY RF-SCORE:    0.00 PKD
ROOT
HETATM    1  N   UNL     1      -8.409   5.211  68.509  1.00  0.00    -0.089 NA 
HETATM    2  H2  UNL     1      -9.108   5.815  68.077  1.00  0.00     0.000 HD 
HETATM    3  H1  UNL     1      -7.898   4.683  67.802  1.00  0.00     0.000 HD 
HETATM    4  C   UNL     1      -7.539   5.975  69.391  1.00  0.00    -0.097 C  
ENDROOT
BRANCH   4   5
HETATM    5  C   UNL     1      -8.307   6.769  70.453  1.00  0.00    -0.130 C  
BRANCH   5   6
HETATM    6  C   UNL     1      -8.246   6.252  71.929  1.00  0.00    -0.110 C  
HETATM    7  O   UNL     1      -7.222   5.195  71.973  1.00  0.00    -0.079 OA 
HETATM    8  P   UNL     1      -9.761   5.431  72.547  1.00  0.00    -0.156 P  
HETATM    9  P   UNL     1      -7.797   7.628  73.050  1.00  0.00    -0.130 P  
HETATM   10  H   UNL     1      -7.185   4.881  72.869  1.00  0.00     0.000 HD 
HETATM   11  O   UNL     1     -11.042   4.737  73.070  1.00  0.00    -0.257 OA 
HETATM   12  O   UNL     1      -9.488   4.262  71.401  1.00  0.00    -0.137 OA 
HETATM   13  O   UNL     1     -10.662   6.426  71.595  1.00  0.00    -0.221 OA 
HETATM   14  O   UNL     1      -6.202   7.339  72.740  1.00  0.00    -0.054 OA 
HETATM   15  O   UNL     1      -7.881   6.579  74.314  1.00  0.00    -0.103 OA 
HETATM   16  O   UNL     1      -7.418   8.792  73.998  1.00  0.00    -0.404 OA 
ENDBRANCH   5   6
ENDBRANCH   4   5
TORSDOF 2
ENDMDL
MODEL      235
REMARK 921   NORMALIZED FREE ENERGY PREDICTED BY IDOCK:   -2.02 KCAL/MOL
REMARK 922        TOTAL FREE ENERGY PREDICTED BY IDOCK:   -2.22 KCAL/MOL
REMARK 923 INTER-LIGAND FREE ENERGY PREDICTED BY IDOCK:   -2.04 KCAL/MOL
REMARK 924 INTRA-LIGAND FREE ENERGY PREDICTED BY IDOCK:   -0.18 KCAL/MOL
REMARK 927      BINDING AFFINITY PREDICTED BY RF-SCORE:    0.00 PKD
ROOT
HETATM    1  N   UNL     1     -10.545  10.301  70.313  1.00  0.00    -0.419 NA 
HETATM    2  H2  UNL     1     -10.600  10.734  69.391  1.00  0.00     0.000 HD 
HETATM    3  H1  UNL     1     -11.001  10.882  71.015  1.00  0.00     0.000 HD 
HETATM    4  C   UNL     1     -11.059   8.940  70.276  1.00  0.00    -0.228 C  
ENDROOT
BRANCH   4   5
HETATM    5  C   UNL     1     -10.374   8.066  69.220  1.00  0.00    -0.224 C  
BRANCH   5   6
HETATM    6  C   UNL     1      -8.908   7.598  69.506  1.00  0.00    -0.139 C  
HETATM    7  O   UNL     1      -8.031   8.753  69.253  1.00  0.00    -0.104 OA 
HETATM    8  P   UNL     1      -8.259   6.295  68.398  1.00  0.00    -0.115 P  
HETATM    9  P   UNL     1      -8.761   7.049  71.246  1.00  0.00    -0.128 P  
HETATM   10  H   UNL     1      -7.141   8.469  69.426  1.00  0.00     0.000 HD 
HETATM   11  O   UNL     1      -7.710   5.192  67.460  1.00  0.00    -0.090 OA 
HETATM   12  O   UNL     1      -8.398   7.398  67.165  1.00  0.00    -0.116 OA 
HETATM   13  O   UNL     1      -9.778   5.676  68.272  1.00  0.00    -0.120 OA 
HETATM   14  O   UNL     1      -8.494   8.614  71.701  1.00  0.00    -0.157 OA 
HETATM   15  O   UNL     1      -7.173   6.717  70.970  1.00  0.00    -0.074 OA 
HETATM   16  O   UNL     1      -8.636   6.584  72.717  1.00  0.00    -0.124 OA 
ENDBRANCH   5   6
ENDBRANCH   4   5
TORSDOF 2
ENDMDL
MODEL      236
REMARK 921   NORMALIZED FREE ENERGY PREDICTED BY IDOCK:   -2.01 KCAL/MOL
REMARK 922        TOTAL FREE ENERGY PREDICTED BY IDOCK:   -2.21 KCAL/MOL
REMARK 923 INTER-LIGAND FREE ENERGY PREDICTED BY IDOCK:   -1.87 KCAL/MOL
REMARK 924 INTRA-LIGAND FREE ENERGY PREDICTED BY IDOCK:   -0.34 KCAL/MOL
REMARK 927      BINDING AFFINITY PREDICTED BY RF-SCORE:    0.00 PKD
ROOT
HETATM    1  N   UNL     1      -7.576  10.083  70.183  1.00  0.00    -0.184 NA 
HETATM    2  H2  UNL     1      -6.813   9.715  69.614  1.00  0.00     0.000 HD 
HETATM    3  H1  UNL     1      -7.468  11.086  70.330  1.00  0.00     0.000 HD 
HETATM    4  C   UNL     1      -8.866   9.725  69.613  1.00  0.00    -0.211 C  
ENDROOT
BRANCH   4   5
HETATM    5  C   UNL     1      -9.028   8.217  69.391  1.00  0.00    -0.147 C  
BRANCH   5   6
HETATM    6  C   UNL     1      -8.522   7.626  68.033  1.00  0.00    -0.123 C  
HETATM    7  O   UNL     1      -8.492   8.735  67.066  1.00  0.00    -0.108 OA 
HETATM    8  P   UNL     1      -9.614   6.382  67.252  1.00  0.00    -0.138 P  
HETATM    9  P   UNL     1      -6.849   6.917  68.251  1.00  0.00    -0.079 P  
HETATM   10  H   UNL     1      -8.185   8.376  66.241  1.00  0.00     0.000 HD 
HETATM   11  O   UNL     1     -10.539   5.331  66.591  1.00  0.00    -0.284 OA 
HETATM   12  O   UNL     1     -10.736   7.596  67.095  1.00  0.00    -0.332 OA 
HETATM   13  O   UNL     1     -10.081   5.884  68.748  1.00  0.00    -0.147 OA 
HETATM   14  O   UNL     1      -6.199   8.413  67.996  1.00  0.00    -0.049 OA 
HETATM   15  O   UNL     1      -6.856   6.501  66.659  1.00  0.00    -0.061 OA 
HETATM   16  O   UNL     1      -5.433   6.317  68.435  1.00  0.00    -0.007 OA 
ENDBRANCH   5   6
ENDBRANCH   4   5
TORSDOF 2
ENDMDL
MODEL      237
REMARK 921   NORMALIZED FREE ENERGY PREDICTED BY IDOCK:   -2.01 KCAL/MOL
REMARK 922        TOTAL FREE ENERGY PREDICTED BY IDOCK:   -2.21 KCAL/MOL
REMARK 923 INTER-LIGAND FREE ENERGY PREDICTED BY IDOCK:   -2.22 KCAL/MOL
REMARK 924 INTRA-LIGAND FREE ENERGY PREDICTED BY IDOCK:    0.02 KCAL/MOL
REMARK 927      BINDING AFFINITY PREDICTED BY RF-SCORE:    0.00 PKD
ROOT
HETATM    1  N   UNL     1      -6.530   5.014  71.307  1.00  0.00    -0.029 NA 
HETATM    2  H2  UNL     1      -6.926   4.107  71.555  1.00  0.00     0.000 HD 
HETATM    3  H1  UNL     1      -5.529   4.938  71.133  1.00  0.00     0.000 HD 
HETATM    4  C   UNL     1      -7.259   5.611  70.199  1.00  0.00    -0.068 C  
ENDROOT
BRANCH   4   5
HETATM    5  C   UNL     1      -8.765   5.726  70.462  1.00  0.00    -0.140 C  
BRANCH   5   6
HETATM    6  C   UNL     1      -9.466   7.073  70.086  1.00  0.00    -0.162 C  
HETATM    7  O   UNL     1      -8.509   8.153  70.378  1.00  0.00    -0.124 OA 
HETATM    8  P   UNL     1     -10.942   7.505  71.078  1.00  0.00    -0.261 P  
HETATM    9  P   UNL     1      -9.906   7.069  68.309  1.00  0.00    -0.154 P  
HETATM   10  H   UNL     1      -8.935   8.971  70.150  1.00  0.00     0.000 HD 
HETATM   11  O   UNL     1     -12.191   7.870  71.918  1.00  0.00    -0.292 OA 
HETATM   12  O   UNL     1      -9.924   7.604  72.386  1.00  0.00    -0.179 OA 
HETATM   13  O   UNL     1     -11.285   5.903  71.225  1.00  0.00    -0.273 OA 
HETATM   14  O   UNL     1      -8.386   7.603  67.948  1.00  0.00    -0.121 OA 
HETATM   15  O   UNL     1     -10.537   8.577  68.497  1.00  0.00    -0.193 OA 
HETATM   16  O   UNL     1     -10.278   7.065  66.806  1.00  0.00    -0.227 OA 
ENDBRANCH   5   6
ENDBRANCH   4   5
TORSDOF 2
ENDMDL
MODEL      238
REMARK 921   NORMALIZED FREE ENERGY PREDICTED BY IDOCK:   -2.00 KCAL/MOL
REMARK 922        TOTAL FREE ENERGY PREDICTED BY IDOCK:   -2.20 KCAL/MOL
REMARK 923 INTER-LIGAND FREE ENERGY PREDICTED BY IDOCK:   -2.29 KCAL/MOL
REMARK 924 INTRA-LIGAND FREE ENERGY PREDICTED BY IDOCK:    0.09 KCAL/MOL
REMARK 927      BINDING AFFINITY PREDICTED BY RF-SCORE:    0.00 PKD
ROOT
HETATM    1  N   UNL     1      -6.993   8.281  68.149  1.00  0.00    -0.075 NA 
HETATM    2  H2  UNL     1      -7.796   8.335  67.523  1.00  0.00     0.000 HD 
HETATM    3  H1  UNL     1      -6.326   9.025  67.950  1.00  0.00     0.000 HD 
HETATM    4  C   UNL     1      -7.422   8.255  69.539  1.00  0.00    -0.086 C  
ENDROOT
BRANCH   4   5
HETATM    5  C   UNL     1      -8.426   7.136  69.839  1.00  0.00    -0.140 C  
BRANCH   5   6
HETATM    6  C   UNL     1      -9.153   7.166  71.224  1.00  0.00    -0.151 C  
HETATM    7  O   UNL     1      -8.139   7.511  72.234  1.00  0.00    -0.097 OA 
HETATM    8  P   UNL     1      -9.830   5.566  71.801  1.00  0.00    -0.181 P  
HETATM    9  P   UNL     1     -10.486   8.419  71.198  1.00  0.00    -0.240 P  
HETATM   10  H   UNL     1      -8.581   7.529  73.076  1.00  0.00     0.000 HD 
HETATM   11  O   UNL     1     -10.403   4.213  72.289  1.00  0.00    -0.178 OA 
HETATM   12  O   UNL     1      -8.262   5.026  71.862  1.00  0.00    -0.112 OA 
HETATM   13  O   UNL     1     -10.115   5.148  70.236  1.00  0.00    -0.226 OA 
HETATM   14  O   UNL     1      -9.383   9.579  71.600  1.00  0.00    -0.158 OA 
HETATM   15  O   UNL     1     -10.840   8.025  72.755  1.00  0.00    -0.343 OA 
HETATM   16  O   UNL     1     -11.615   9.479  71.175  1.00  0.00    -0.307 OA 
ENDBRANCH   5   6
ENDBRANCH   4   5
TORSDOF 2
ENDMDL
MODEL      239
REMARK 921   NORMALIZED FREE ENERGY PREDICTED BY IDOCK:   -1.99 KCAL/MOL
REMARK 922        TOTAL FREE ENERGY PREDICTED BY IDOCK:   -2.19 KCAL/MOL
REMARK 923 INTER-LIGAND FREE ENERGY PREDICTED BY IDOCK:   -1.59 KCAL/MOL
REMARK 924 INTRA-LIGAND FREE ENERGY PREDICTED BY IDOCK:   -0.59 KCAL/MOL
REMARK 927      BINDING AFFINITY PREDICTED BY RF-SCORE:    0.00 PKD
ROOT
HETATM    1  N   UNL     1      -8.403   5.679  67.463  1.00  0.00    -0.101 NA 
HETATM    2  H2  UNL     1      -9.250   6.234  67.582  1.00  0.00     0.000 HD 
HETATM    3  H1  UNL     1      -8.464   5.097  66.628  1.00  0.00     0.000 HD 
HETATM    4  C   UNL     1      -7.221   6.527  67.484  1.00  0.00    -0.086 C  
ENDROOT
BRANCH   4   5
HETATM    5  C   UNL     1      -7.129   7.401  68.739  1.00  0.00    -0.081 C  
BRANCH   5   6
HETATM    6  C   UNL     1      -8.092   8.630  68.838  1.00  0.00    -0.118 C  
HETATM    7  O   UNL     1      -8.786   8.738  67.545  1.00  0.00    -0.133 OA 
HETATM    8  P   UNL     1      -7.283  10.259  69.048  1.00  0.00    -0.100 P  
HETATM    9  P   UNL     1      -9.295   8.368  70.193  1.00  0.00    -0.168 P  
HETATM   10  H   UNL     1      -9.371   9.485  67.605  1.00  0.00     0.000 HD 
HETATM   11  O   UNL     1      -6.599  11.636  69.225  1.00  0.00    -0.092 OA 
HETATM   12  O   UNL     1      -6.624  10.025  67.542  1.00  0.00    -0.067 OA 
HETATM   13  O   UNL     1      -6.081   9.527  69.899  1.00  0.00    -0.041 OA 
HETATM   14  O   UNL     1     -10.260   7.525  69.151  1.00  0.00    -0.191 OA 
HETATM   15  O   UNL     1      -9.960   9.831  69.838  1.00  0.00    -0.217 OA 
HETATM   16  O   UNL     1     -10.313   8.147  71.338  1.00  0.00    -0.199 OA 
ENDBRANCH   5   6
ENDBRANCH   4   5
TORSDOF 2
ENDMDL
MODEL      240
REMARK 921   NORMALIZED FREE ENERGY PREDICTED BY IDOCK:   -1.99 KCAL/MOL
REMARK 922        TOTAL FREE ENERGY PREDICTED BY IDOCK:   -2.18 KCAL/MOL
REMARK 923 INTER-LIGAND FREE ENERGY PREDICTED BY IDOCK:   -1.63 KCAL/MOL
REMARK 924 INTRA-LIGAND FREE ENERGY PREDICTED BY IDOCK:   -0.55 KCAL/MOL
REMARK 927      BINDING AFFINITY PREDICTED BY RF-SCORE:    0.00 PKD
ROOT
HETATM    1  N   UNL     1      -7.044   5.208  69.449  1.00  0.00    -0.055 NA 
HETATM    2  H2  UNL     1      -7.338   6.112  69.818  1.00  0.00     0.000 HD 
HETATM    3  H1  UNL     1      -6.421   4.734  70.102  1.00  0.00     0.000 HD 
HETATM    4  C   UNL     1      -8.197   4.403  69.074  1.00  0.00    -0.079 C  
ENDROOT
BRANCH   4   5
HETATM    5  C   UNL     1      -9.135   5.116  68.093  1.00  0.00    -0.125 C  
BRANCH   5   6
HETATM    6  C   UNL     1      -8.662   5.252  66.607  1.00  0.00    -0.113 C  
HETATM    7  O   UNL     1      -7.373   4.549  66.500  1.00  0.00    -0.078 OA 
HETATM    8  P   UNL     1      -8.290   6.953  66.045  1.00  0.00    -0.141 P  
HETATM    9  P   UNL     1      -9.900   4.497  65.490  1.00  0.00    -0.181 P  
HETATM   10  H   UNL     1      -7.085   4.632  65.598  1.00  0.00     0.000 HD 
HETATM   11  O   UNL     1      -7.975   8.393  65.569  1.00  0.00    -0.102 OA 
HETATM   12  O   UNL     1      -7.059   6.957  67.159  1.00  0.00    -0.075 OA 
HETATM   13  O   UNL     1      -9.461   7.519  67.052  1.00  0.00    -0.146 OA 
HETATM   14  O   UNL     1      -9.189   3.025  65.723  1.00  0.00    -0.151 OA 
HETATM   15  O   UNL     1      -8.946   4.906  64.214  1.00  0.00    -0.141 OA 
HETATM   16  O   UNL     1     -10.947   3.859  64.546  1.00  0.00    -0.246 OA 
ENDBRANCH   5   6
ENDBRANCH   4   5
TORSDOF 2
ENDMDL
MODEL      241
REMARK 921   NORMALIZED FREE ENERGY PREDICTED BY IDOCK:   -1.97 KCAL/MOL
REMARK 922        TOTAL FREE ENERGY PREDICTED BY IDOCK:   -2.16 KCAL/MOL
REMARK 923 INTER-LIGAND FREE ENERGY PREDICTED BY IDOCK:   -2.47 KCAL/MOL
REMARK 924 INTRA-LIGAND FREE ENERGY PREDICTED BY IDOCK:    0.30 KCAL/MOL
REMARK 927      BINDING AFFINITY PREDICTED BY RF-SCORE:    0.00 PKD
ROOT
HETATM    1  N   UNL     1     -11.815   9.492  70.307  1.00  0.00    -0.457 NA 
HETATM    2  H2  UNL     1     -11.215   8.669  70.366  1.00  0.00     0.000 HD 
HETATM    3  H1  UNL     1     -12.097   9.803  71.237  1.00  0.00     0.000 HD 
HETATM    4  C   UNL     1     -11.182  10.540  69.522  1.00  0.00    -0.271 C  
ENDROOT
BRANCH   4   5
HETATM    5  C   UNL     1     -10.759  10.072  68.125  1.00  0.00    -0.282 C  
BRANCH   5   6
HETATM    6  C   UNL     1      -9.334  10.483  67.624  1.00  0.00    -0.149 C  
HETATM    7  O   UNL     1      -9.309  10.259  66.169  1.00  0.00    -0.159 OA 
HETATM    8  P   UNL     1      -7.947   9.469  68.255  1.00  0.00    -0.093 P  
HETATM    9  P   UNL     1      -9.026  12.245  68.009  1.00  0.00    -0.191 P  
HETATM   10  H   UNL     1      -8.443  10.508  65.865  1.00  0.00     0.000 HD 
HETATM   11  O   UNL     1      -6.774   8.610  68.788  1.00  0.00    -0.056 OA 
HETATM   12  O   UNL     1      -8.622   8.194  67.432  1.00  0.00    -0.124 OA 
HETATM   13  O   UNL     1      -8.776   9.249  69.659  1.00  0.00    -0.132 OA 
HETATM   14  O   UNL     1      -9.788  12.669  66.607  1.00  0.00    -0.232 OA 
HETATM   15  O   UNL     1      -7.541  12.100  67.316  1.00  0.00    -0.145 OA 
HETATM   16  O   UNL     1      -8.764  13.736  68.334  1.00  0.00    -0.175 OA 
ENDBRANCH   5   6
ENDBRANCH   4   5
TORSDOF 2
ENDMDL
MODEL      242
REMARK 921   NORMALIZED FREE ENERGY PREDICTED BY IDOCK:   -1.96 KCAL/MOL
REMARK 922        TOTAL FREE ENERGY PREDICTED BY IDOCK:   -2.15 KCAL/MOL
REMARK 923 INTER-LIGAND FREE ENERGY PREDICTED BY IDOCK:   -1.68 KCAL/MOL
REMARK 924 INTRA-LIGAND FREE ENERGY PREDICTED BY IDOCK:   -0.47 KCAL/MOL
REMARK 927      BINDING AFFINITY PREDICTED BY RF-SCORE:    0.00 PKD
ROOT
HETATM    1  N   UNL     1      -7.687   3.550  68.118  1.00  0.00    -0.064 NA 
HETATM    2  H2  UNL     1      -8.568   3.857  67.705  1.00  0.00     0.000 HD 
HETATM    3  H1  UNL     1      -7.302   2.757  67.605  1.00  0.00     0.000 HD 
HETATM    4  C   UNL     1      -6.755   4.661  68.235  1.00  0.00    -0.050 C  
ENDROOT
BRANCH   4   5
HETATM    5  C   UNL     1      -7.334   5.853  69.006  1.00  0.00    -0.084 C  
BRANCH   5   6
HETATM    6  C   UNL     1      -8.690   6.451  68.504  1.00  0.00    -0.121 C  
HETATM    7  O   UNL     1      -9.014   5.777  67.236  1.00  0.00    -0.114 OA 
HETATM    8  P   UNL     1      -8.663   8.229  68.070  1.00  0.00    -0.134 P  
HETATM    9  P   UNL     1      -9.999   6.146  69.746  1.00  0.00    -0.191 P  
HETATM   10  H   UNL     1      -9.838   6.141  66.931  1.00  0.00     0.000 HD 
HETATM   11  O   UNL     1      -8.639   9.733  67.703  1.00  0.00    -0.125 OA 
HETATM   12  O   UNL     1      -7.602   7.826  66.859  1.00  0.00    -0.095 OA 
HETATM   13  O   UNL     1      -7.532   8.474  69.240  1.00  0.00    -0.079 OA 
HETATM   14  O   UNL     1     -10.257   4.655  69.086  1.00  0.00    -0.143 OA 
HETATM   15  O   UNL     1     -11.066   6.917  68.760  1.00  0.00    -0.185 OA 
HETATM   16  O   UNL     1     -11.107   5.888  70.797  1.00  0.00    -0.293 OA 
ENDBRANCH   5   6
ENDBRANCH   4   5
TORSDOF 2
ENDMDL
MODEL      243
REMARK 921   NORMALIZED FREE ENERGY PREDICTED BY IDOCK:   -1.94 KCAL/MOL
REMARK 922        TOTAL FREE ENERGY PREDICTED BY IDOCK:   -2.13 KCAL/MOL
REMARK 923 INTER-LIGAND FREE ENERGY PREDICTED BY IDOCK:   -2.14 KCAL/MOL
REMARK 924 INTRA-LIGAND FREE ENERGY PREDICTED BY IDOCK:    0.01 KCAL/MOL
REMARK 927      BINDING AFFINITY PREDICTED BY RF-SCORE:    0.00 PKD
ROOT
HETATM    1  N   UNL     1      -8.518  12.895  66.537  1.00  0.00    -0.415 NA 
HETATM    2  H2  UNL     1      -9.023  12.405  65.798  1.00  0.00     0.000 HD 
HETATM    3  H1  UNL     1      -8.645  13.903  66.457  1.00  0.00     0.000 HD 
HETATM    4  C   UNL     1      -8.885  12.376  67.846  1.00  0.00    -0.180 C  
ENDROOT
BRANCH   4   5
HETATM    5  C   UNL     1      -8.695  10.859  67.967  1.00  0.00    -0.132 C  
BRANCH   5   6
HETATM    6  C   UNL     1      -9.129   9.976  66.750  1.00  0.00    -0.139 C  
HETATM    7  O   UNL     1     -10.061  10.781  65.944  1.00  0.00    -0.237 OA 
HETATM    8  P   UNL     1     -10.084   8.470  67.163  1.00  0.00    -0.309 P  
HETATM    9  P   UNL     1      -7.659   9.514  65.763  1.00  0.00    -0.106 P  
HETATM   10  H   UNL     1     -10.324  10.244  65.205  1.00  0.00     0.000 HD 
HETATM   11  O   UNL     1     -10.891   7.196  67.512  1.00  0.00    -0.257 OA 
HETATM   12  O   UNL     1     -11.269   9.484  67.730  1.00  0.00    -0.091 OA 
HETATM   13  O   UNL     1      -9.244   8.350  68.572  1.00  0.00    -0.136 OA 
HETATM   14  O   UNL     1      -7.781  10.942  64.942  1.00  0.00     0.097 OA 
HETATM   15  O   UNL     1      -8.647   8.687  64.741  1.00  0.00    -0.172 OA 
HETATM   16  O   UNL     1      -6.415   9.124  64.928  1.00  0.00    -0.065 OA 
ENDBRANCH   5   6
ENDBRANCH   4   5
TORSDOF 2
ENDMDL
MODEL      244
REMARK 921   NORMALIZED FREE ENERGY PREDICTED BY IDOCK:   -1.94 KCAL/MOL
REMARK 922        TOTAL FREE ENERGY PREDICTED BY IDOCK:   -2.13 KCAL/MOL
REMARK 923 INTER-LIGAND FREE ENERGY PREDICTED BY IDOCK:   -1.93 KCAL/MOL
REMARK 924 INTRA-LIGAND FREE ENERGY PREDICTED BY IDOCK:   -0.20 KCAL/MOL
REMARK 927      BINDING AFFINITY PREDICTED BY RF-SCORE:    0.00 PKD
ROOT
HETATM    1  N   UNL     1      -6.124   6.175  69.354  1.00  0.00    -0.028 NA 
HETATM    2  H2  UNL     1      -6.515   7.117  69.345  1.00  0.00     0.000 HD 
HETATM    3  H1  UNL     1      -5.790   5.929  70.285  1.00  0.00     0.000 HD 
HETATM    4  C   UNL     1      -7.076   5.214  68.816  1.00  0.00    -0.057 C  
ENDROOT
BRANCH   4   5
HETATM    5  C   UNL     1      -7.578   5.584  67.416  1.00  0.00    -0.089 C  
BRANCH   5   6
HETATM    6  C   UNL     1      -9.087   5.970  67.265  1.00  0.00    -0.111 C  
HETATM    7  O   UNL     1      -9.737   5.674  68.553  1.00  0.00    -0.124 OA 
HETATM    8  P   UNL     1     -10.040   4.989  66.049  1.00  0.00    -0.160 P  
HETATM    9  P   UNL     1      -9.235   7.750  66.865  1.00  0.00    -0.170 P  
HETATM   10  H   UNL     1     -10.653   5.908  68.462  1.00  0.00     0.000 HD 
HETATM   11  O   UNL     1     -10.847   4.160  65.021  1.00  0.00    -0.223 OA 
HETATM   12  O   UNL     1      -9.763   3.675  67.025  1.00  0.00    -0.197 OA 
HETATM   13  O   UNL     1      -8.680   4.840  65.137  1.00  0.00    -0.133 OA 
HETATM   14  O   UNL     1      -9.166   8.102  68.476  1.00  0.00    -0.137 OA 
HETATM   15  O   UNL     1     -10.870   7.571  66.836  1.00  0.00    -0.345 OA 
HETATM   16  O   UNL     1      -9.361   9.255  66.526  1.00  0.00    -0.155 OA 
ENDBRANCH   5   6
ENDBRANCH   4   5
TORSDOF 2
ENDMDL
MODEL      245
REMARK 921   NORMALIZED FREE ENERGY PREDICTED BY IDOCK:   -1.77 KCAL/MOL
REMARK 922        TOTAL FREE ENERGY PREDICTED BY IDOCK:   -1.94 KCAL/MOL
REMARK 923 INTER-LIGAND FREE ENERGY PREDICTED BY IDOCK:   -1.68 KCAL/MOL
REMARK 924 INTRA-LIGAND FREE ENERGY PREDICTED BY IDOCK:   -0.25 KCAL/MOL
REMARK 927      BINDING AFFINITY PREDICTED BY RF-SCORE:    0.00 PKD
ROOT
HETATM    1  N   UNL     1      -9.898  10.909  69.257  1.00  0.00    -0.396 NA 
HETATM    2  H2  UNL     1      -9.654  11.281  68.339  1.00  0.00     0.000 HD 
HETATM    3  H1  UNL     1     -10.910  10.873  69.377  1.00  0.00     0.000 HD 
HETATM    4  C   UNL     1      -9.251   9.626  69.484  1.00  0.00    -0.203 C  
ENDROOT
BRANCH   4   5
HETATM    5  C   UNL     1      -7.729   9.679  69.303  1.00  0.00    -0.095 C  
BRANCH   5   6
HETATM    6  C   UNL     1      -7.141   9.147  67.954  1.00  0.00    -0.079 C  
HETATM    7  O   UNL     1      -6.065   8.202  68.296  1.00  0.00    -0.043 OA 
HETATM    8  P   UNL     1      -6.318  10.396  66.898  1.00  0.00    -0.082 P  
HETATM    9  P   UNL     1      -8.453   8.306  66.994  1.00  0.00    -0.126 P  
HETATM   10  H   UNL     1      -5.708   7.880  67.477  1.00  0.00     0.000 HD 
HETATM   11  O   UNL     1      -5.622  11.452  66.006  1.00  0.00    -0.204 OA 
HETATM   12  O   UNL     1      -5.201  10.559  68.116  1.00  0.00    -0.035 OA 
HETATM   13  O   UNL     1      -7.373  11.529  67.455  1.00  0.00    -0.107 OA 
HETATM   14  O   UNL     1      -8.151   6.915  67.830  1.00  0.00    -0.112 OA 
HETATM   15  O   UNL     1      -7.346   7.999  65.817  1.00  0.00    -0.076 OA 
HETATM   16  O   UNL     1      -9.563   7.595  66.182  1.00  0.00    -0.128 OA 
ENDBRANCH   5   6
ENDBRANCH   4   5
TORSDOF 2
ENDMDL
MODEL      246
REMARK 921   NORMALIZED FREE ENERGY PREDICTED BY IDOCK:   -1.75 KCAL/MOL
REMARK 922        TOTAL FREE ENERGY PREDICTED BY IDOCK:   -1.92 KCAL/MOL
REMARK 923 INTER-LIGAND FREE ENERGY PREDICTED BY IDOCK:   -1.83 KCAL/MOL
REMARK 924 INTRA-LIGAND FREE ENERGY PREDICTED BY IDOCK:   -0.08 KCAL/MOL
REMARK 927      BINDING AFFINITY PREDICTED BY RF-SCORE:    0.00 PKD
ROOT
HETATM    1  N   UNL     1      -5.391   8.426  71.538  1.00  0.00    -0.033 NA 
HETATM    2  H2  UNL     1      -5.441   9.193  72.209  1.00  0.00     0.000 HD 
HETATM    3  H1  UNL     1      -4.527   7.897  71.655  1.00  0.00     0.000 HD 
HETATM    4  C   UNL     1      -6.583   7.596  71.611  1.00  0.00    -0.042 C  
ENDROOT
BRANCH   4   5
HETATM    5  C   UNL     1      -7.882   8.391  71.436  1.00  0.00    -0.137 C  
BRANCH   5   6
HETATM    6  C   UNL     1      -8.741   8.103  70.160  1.00  0.00    -0.130 C  
HETATM    7  O   UNL     1      -8.874   9.377  69.434  1.00  0.00    -0.142 OA 
HETATM    8  P   UNL     1     -10.469   7.583  70.466  1.00  0.00    -0.227 P  
HETATM    9  P   UNL     1      -7.904   6.854  69.117  1.00  0.00    -0.113 P  
HETATM   10  H   UNL     1      -9.396   9.202  68.659  1.00  0.00     0.000 HD 
HETATM   11  O   UNL     1     -11.931   7.143  70.725  1.00  0.00    -0.332 OA 
HETATM   12  O   UNL     1     -10.710   9.086  71.129  1.00  0.00    -0.239 OA 
HETATM   13  O   UNL     1      -9.977   6.840  71.849  1.00  0.00    -0.177 OA 
HETATM   14  O   UNL     1      -7.018   8.057  68.414  1.00  0.00    -0.069 OA 
HETATM   15  O   UNL     1      -9.150   6.962  68.048  1.00  0.00    -0.122 OA 
HETATM   16  O   UNL     1      -7.195   5.797  68.235  1.00  0.00    -0.072 OA 
ENDBRANCH   5   6
ENDBRANCH   4   5
TORSDOF 2
ENDMDL
MODEL      247
REMARK 921   NORMALIZED FREE ENERGY PREDICTED BY IDOCK:   -1.72 KCAL/MOL
REMARK 922        TOTAL FREE ENERGY PREDICTED BY IDOCK:   -1.89 KCAL/MOL
REMARK 923 INTER-LIGAND FREE ENERGY PREDICTED BY IDOCK:   -1.80 KCAL/MOL
REMARK 924 INTRA-LIGAND FREE ENERGY PREDICTED BY IDOCK:   -0.09 KCAL/MOL
REMARK 927      BINDING AFFINITY PREDICTED BY RF-SCORE:    0.00 PKD
ROOT
HETATM    1  N   UNL     1     -11.126   6.714  72.694  1.00  0.00    -0.252 NA 
HETATM    2  H2  UNL     1     -11.190   6.049  73.464  1.00  0.00     0.000 HD 
HETATM    3  H1  UNL     1     -11.403   7.648  72.997  1.00  0.00     0.000 HD 
HETATM    4  C   UNL     1      -9.803   6.679  72.088  1.00  0.00    -0.156 C  
ENDROOT
BRANCH   4   5
HETATM    5  C   UNL     1      -9.387   5.276  71.634  1.00  0.00    -0.178 C  
BRANCH   5   6
HETATM    6  C   UNL     1      -9.162   5.047  70.102  1.00  0.00    -0.135 C  
HETATM    7  O   UNL     1     -10.032   3.929  69.702  1.00  0.00    -0.129 OA 
HETATM    8  P   UNL     1      -7.484   4.500  69.618  1.00  0.00    -0.051 P  
HETATM    9  P   UNL     1      -9.599   6.564  69.178  1.00  0.00    -0.133 P  
HETATM   10  H   UNL     1      -9.895   3.790  68.772  1.00  0.00     0.000 HD 
HETATM   11  O   UNL     1      -6.064   4.038  69.209  1.00  0.00    -0.025 OA 
HETATM   12  O   UNL     1      -7.783   3.114  70.481  1.00  0.00    -0.043 OA 
HETATM   13  O   UNL     1      -6.863   5.373  70.868  1.00  0.00    -0.045 OA 
HETATM   14  O   UNL     1     -11.177   6.078  69.156  1.00  0.00    -0.378 OA 
HETATM   15  O   UNL     1      -9.200   5.788  67.783  1.00  0.00    -0.107 OA 
HETATM   16  O   UNL     1      -9.969   7.849  68.395  1.00  0.00    -0.169 OA 
ENDBRANCH   5   6
ENDBRANCH   4   5
TORSDOF 2
ENDMDL
MODEL      248
REMARK 921   NORMALIZED FREE ENERGY PREDICTED BY IDOCK:   -1.70 KCAL/MOL
REMARK 922        TOTAL FREE ENERGY PREDICTED BY IDOCK:   -1.86 KCAL/MOL
REMARK 923 INTER-LIGAND FREE ENERGY PREDICTED BY IDOCK:   -1.87 KCAL/MOL
REMARK 924 INTRA-LIGAND FREE ENERGY PREDICTED BY IDOCK:    0.01 KCAL/MOL
REMARK 927      BINDING AFFINITY PREDICTED BY RF-SCORE:    0.00 PKD
ROOT
HETATM    1  N   UNL     1     -11.043   8.236  71.021  1.00  0.00    -0.245 NA 
HETATM    2  H2  UNL     1     -10.189   8.680  71.357  1.00  0.00     0.000 HD 
HETATM    3  H1  UNL     1     -11.836   8.873  71.093  1.00  0.00     0.000 HD 
HETATM    4  C   UNL     1     -10.857   7.707  69.678  1.00  0.00    -0.191 C  
ENDROOT
BRANCH   4   5
HETATM    5  C   UNL     1      -9.665   6.750  69.569  1.00  0.00    -0.154 C  
BRANCH   5   6
HETATM    6  C   UNL     1      -8.862   6.743  68.226  1.00  0.00    -0.125 C  
HETATM    7  O   UNL     1      -9.079   5.427  67.601  1.00  0.00    -0.109 OA 
HETATM    8  P   UNL     1      -7.043   6.865  68.386  1.00  0.00    -0.090 P  
HETATM    9  P   UNL     1      -9.469   8.080  67.133  1.00  0.00    -0.190 P  
HETATM   10  H   UNL     1      -8.591   5.423  66.786  1.00  0.00     0.000 HD 
HETATM   11  O   UNL     1      -5.504   6.968  68.522  1.00  0.00    -0.016 OA 
HETATM   12  O   UNL     1      -7.101   5.396  69.157  1.00  0.00    -0.054 OA 
HETATM   13  O   UNL     1      -7.246   7.793  69.729  1.00  0.00    -0.064 OA 
HETATM   14  O   UNL     1     -10.657   7.072  66.585  1.00  0.00    -0.239 OA 
HETATM   15  O   UNL     1      -8.366   7.612  66.006  1.00  0.00    -0.120 OA 
HETATM   16  O   UNL     1      -9.983   9.211  66.209  1.00  0.00    -0.270 OA 
ENDBRANCH   5   6
ENDBRANCH   4   5
TORSDOF 2
ENDMDL
MODEL      249
REMARK 921   NORMALIZED FREE ENERGY PREDICTED BY IDOCK:   -1.64 KCAL/MOL
REMARK 922        TOTAL FREE ENERGY PREDICTED BY IDOCK:   -1.80 KCAL/MOL
REMARK 923 INTER-LIGAND FREE ENERGY PREDICTED BY IDOCK:   -1.83 KCAL/MOL
REMARK 924 INTRA-LIGAND FREE ENERGY PREDICTED BY IDOCK:    0.03 KCAL/MOL
REMARK 927      BINDING AFFINITY PREDICTED BY RF-SCORE:    0.00 PKD
ROOT
HETATM    1  N   UNL     1      -8.180   5.655  74.030  1.00  0.00    -0.109 NA 
HETATM    2  H2  UNL     1      -7.615   6.229  73.405  1.00  0.00     0.000 HD 
HETATM    3  H1  UNL     1      -8.180   6.039  74.975  1.00  0.00     0.000 HD 
HETATM    4  C   UNL     1      -9.517   5.463  73.492  1.00  0.00    -0.137 C  
ENDROOT
BRANCH   4   5
HETATM    5  C   UNL     1      -9.517   4.885  72.071  1.00  0.00    -0.185 C  
BRANCH   5   6
HETATM    6  C   UNL     1      -9.105   5.839  70.901  1.00  0.00    -0.145 C  
HETATM    7  O   UNL     1     -10.109   5.674  69.838  1.00  0.00    -0.184 OA 
HETATM    8  P   UNL     1      -7.517   5.449  70.080  1.00  0.00    -0.071 P  
HETATM    9  P   UNL     1      -9.076   7.571  71.494  1.00  0.00    -0.136 P  
HETATM   10  H   UNL     1      -9.858   6.253  69.127  1.00  0.00     0.000 HD 
HETATM   11  O   UNL     1      -6.173   5.119  69.385  1.00  0.00    -0.030 OA 
HETATM   12  O   UNL     1      -8.221   4.028  69.589  1.00  0.00    -0.058 OA 
HETATM   13  O   UNL     1      -6.938   4.890  71.515  1.00  0.00    -0.045 OA 
HETATM   14  O   UNL     1     -10.696   7.684  71.195  1.00  0.00    -0.225 OA 
HETATM   15  O   UNL     1      -8.627   8.043  69.983  1.00  0.00    -0.131 OA 
HETATM   16  O   UNL     1      -9.052   9.036  71.995  1.00  0.00    -0.375 OA 
ENDBRANCH   5   6
ENDBRANCH   4   5
TORSDOF 2
ENDMDL
MODEL      250
REMARK 921   NORMALIZED FREE ENERGY PREDICTED BY IDOCK:   -1.64 KCAL/MOL
REMARK 922        TOTAL FREE ENERGY PREDICTED BY IDOCK:   -1.79 KCAL/MOL
REMARK 923 INTER-LIGAND FREE ENERGY PREDICTED BY IDOCK:   -1.72 KCAL/MOL
REMARK 924 INTRA-LIGAND FREE ENERGY PREDICTED BY IDOCK:   -0.08 KCAL/MOL
REMARK 927      BINDING AFFINITY PREDICTED BY RF-SCORE:    0.00 PKD
ROOT
HETATM    1  N   UNL     1      -6.006   8.327  72.963  1.00  0.00    -0.066 NA 
HETATM    2  H2  UNL     1      -5.480   9.071  72.505  1.00  0.00     0.000 HD 
HETATM    3  H1  UNL     1      -5.961   8.421  73.977  1.00  0.00     0.000 HD 
HETATM    4  C   UNL     1      -7.368   8.268  72.455  1.00  0.00    -0.110 C  
ENDROOT
BRANCH   4   5
HETATM    5  C   UNL     1      -7.436   8.127  70.930  1.00  0.00    -0.061 C  
BRANCH   5   6
HETATM    6  C   UNL     1      -8.816   7.746  70.298  1.00  0.00    -0.144 C  
HETATM    7  O   UNL     1      -9.806   7.756  71.388  1.00  0.00    -0.166 OA 
HETATM    8  P   UNL     1      -8.934   6.057  69.604  1.00  0.00    -0.132 P  
HETATM    9  P   UNL     1      -9.267   8.967  69.011  1.00  0.00    -0.141 P  
HETATM   10  H   UNL     1     -10.644   7.524  71.004  1.00  0.00     0.000 HD 
HETATM   11  O   UNL     1      -9.033   4.627  69.018  1.00  0.00    -0.101 OA 
HETATM   12  O   UNL     1      -8.713   5.501  71.153  1.00  0.00    -0.127 OA 
HETATM   13  O   UNL     1      -7.341   6.135  69.201  1.00  0.00    -0.080 OA 
HETATM   14  O   UNL     1      -9.917   9.936  70.179  1.00  0.00    -0.249 OA 
HETATM   15  O   UNL     1     -10.655   8.124  68.748  1.00  0.00    -0.200 OA 
HETATM   16  O   UNL     1      -9.648   9.999  67.922  1.00  0.00    -0.144 OA 
ENDBRANCH   5   6
ENDBRANCH   4   5
TORSDOF 2
ENDMDL
MODEL      251
REMARK 921   NORMALIZED FREE ENERGY PREDICTED BY IDOCK:   -1.52 KCAL/MOL
REMARK 922        TOTAL FREE ENERGY PREDICTED BY IDOCK:   -1.66 KCAL/MOL
REMARK 923 INTER-LIGAND FREE ENERGY PREDICTED BY IDOCK:   -1.55 KCAL/MOL
REMARK 924 INTRA-LIGAND FREE ENERGY PREDICTED BY IDOCK:   -0.12 KCAL/MOL
REMARK 927      BINDING AFFINITY PREDICTED BY RF-SCORE:    0.00 PKD
ROOT
HETATM    1  N   UNL     1      -5.496   9.987  64.119  1.00  0.00    -0.094 NA 
HETATM    2  H2  UNL     1      -6.274  10.572  63.816  1.00  0.00     0.000 HD 
HETATM    3  H1  UNL     1      -4.639  10.533  64.195  1.00  0.00     0.000 HD 
HETATM    4  C   UNL     1      -5.829   9.274  65.343  1.00  0.00    -0.058 C  
ENDROOT
BRANCH   4   5
HETATM    5  C   UNL     1      -7.118   8.453  65.229  1.00  0.00    -0.075 C  
BRANCH   5   6
HETATM    6  C   UNL     1      -7.977   8.267  66.524  1.00  0.00    -0.100 C  
HETATM    7  O   UNL     1      -7.108   8.597  67.666  1.00  0.00    -0.077 OA 
HETATM    8  P   UNL     1      -8.537   6.560  66.868  1.00  0.00    -0.120 P  
HETATM    9  P   UNL     1      -9.424   9.387  66.474  1.00  0.00    -0.228 P  
HETATM   10  H   UNL     1      -7.629   8.484  68.453  1.00  0.00     0.000 HD 
HETATM   11  O   UNL     1      -9.012   5.115  67.159  1.00  0.00    -0.113 OA 
HETATM   12  O   UNL     1      -6.935   6.164  67.046  1.00  0.00    -0.067 OA 
HETATM   13  O   UNL     1      -8.623   6.285  65.248  1.00  0.00    -0.139 OA 
HETATM   14  O   UNL     1      -8.491  10.595  67.103  1.00  0.00    -0.126 OA 
HETATM   15  O   UNL     1      -9.886   8.797  67.939  1.00  0.00    -0.156 OA 
HETATM   16  O   UNL     1     -10.649  10.333  66.432  1.00  0.00    -0.193 OA 
ENDBRANCH   5   6
ENDBRANCH   4   5
TORSDOF 2
ENDMDL
MODEL      252
REMARK 921   NORMALIZED FREE ENERGY PREDICTED BY IDOCK:   -1.42 KCAL/MOL
REMARK 922        TOTAL FREE ENERGY PREDICTED BY IDOCK:   -1.55 KCAL/MOL
REMARK 923 INTER-LIGAND FREE ENERGY PREDICTED BY IDOCK:   -1.35 KCAL/MOL
REMARK 924 INTRA-LIGAND FREE ENERGY PREDICTED BY IDOCK:   -0.20 KCAL/MOL
REMARK 927      BINDING AFFINITY PREDICTED BY RF-SCORE:    0.00 PKD
ROOT
HETATM    1  N   UNL     1      -5.827   4.385  70.556  1.00  0.00    -0.013 NA 
HETATM    2  H2  UNL     1      -6.321   3.847  71.267  1.00  0.00     0.000 HD 
HETATM    3  H1  UNL     1      -5.277   3.772  69.954  1.00  0.00     0.000 HD 
HETATM    4  C   UNL     1      -6.747   5.235  69.816  1.00  0.00    -0.051 C  
ENDROOT
BRANCH   4   5
HETATM    5  C   UNL     1      -7.574   6.156  70.721  1.00  0.00    -0.096 C  
BRANCH   5   6
HETATM    6  C   UNL     1      -7.253   7.687  70.683  1.00  0.00    -0.062 C  
HETATM    7  O   UNL     1      -6.074   7.859  69.819  1.00  0.00    -0.026 OA 
HETATM    8  P   UNL     1      -6.751   8.434  72.277  1.00  0.00    -0.056 P  
HETATM    9  P   UNL     1      -8.685   8.604  70.005  1.00  0.00    -0.156 P  
HETATM   10  H   UNL     1      -5.879   8.789  69.796  1.00  0.00     0.000 HD 
HETATM   11  O   UNL     1      -6.325   9.066  73.625  1.00  0.00    -0.311 OA 
HETATM   12  O   UNL     1      -5.413   7.453  72.213  1.00  0.00    -0.037 OA 
HETATM   13  O   UNL     1      -7.731   7.370  73.059  1.00  0.00    -0.084 OA 
HETATM   14  O   UNL     1      -8.129   8.312  68.478  1.00  0.00    -0.120 OA 
HETATM   15  O   UNL     1      -7.836  10.000  70.193  1.00  0.00    -0.177 OA 
HETATM   16  O   UNL     1      -9.896   9.379  69.431  1.00  0.00    -0.165 OA 
ENDBRANCH   5   6
ENDBRANCH   4   5
TORSDOF 2
ENDMDL
MODEL      253
REMARK 921   NORMALIZED FREE ENERGY PREDICTED BY IDOCK:   -1.41 KCAL/MOL
REMARK 922        TOTAL FREE ENERGY PREDICTED BY IDOCK:   -1.54 KCAL/MOL
REMARK 923 INTER-LIGAND FREE ENERGY PREDICTED BY IDOCK:   -1.79 KCAL/MOL
REMARK 924 INTRA-LIGAND FREE ENERGY PREDICTED BY IDOCK:    0.25 KCAL/MOL
REMARK 927      BINDING AFFINITY PREDICTED BY RF-SCORE:    0.00 PKD
ROOT
HETATM    1  N   UNL     1     -10.982   9.159  67.796  1.00  0.00    -0.492 NA 
HETATM    2  H2  UNL     1     -10.505   8.917  68.665  1.00  0.00     0.000 HD 
HETATM    3  H1  UNL     1     -11.392  10.090  67.854  1.00  0.00     0.000 HD 
HETATM    4  C   UNL     1     -10.093   8.996  66.655  1.00  0.00    -0.285 C  
ENDROOT
BRANCH   4   5
HETATM    5  C   UNL     1      -9.476   7.595  66.569  1.00  0.00    -0.250 C  
BRANCH   5   6
HETATM    6  C   UNL     1      -7.917   7.485  66.650  1.00  0.00    -0.110 C  
HETATM    7  O   UNL     1      -7.388   7.895  65.339  1.00  0.00    -0.072 OA 
HETATM    8  P   UNL     1      -7.252   5.796  66.890  1.00  0.00    -0.076 P  
HETATM    9  P   UNL     1      -7.285   8.583  67.970  1.00  0.00    -0.089 P  
HETATM   10  H   UNL     1      -6.441   7.828  65.388  1.00  0.00     0.000 HD 
HETATM   11  O   UNL     1      -6.689   4.368  67.093  1.00  0.00    -0.049 OA 
HETATM   12  O   UNL     1      -7.888   5.430  65.401  1.00  0.00    -0.089 OA 
HETATM   13  O   UNL     1      -8.590   5.418  67.768  1.00  0.00    -0.106 OA 
HETATM   14  O   UNL     1      -7.275   9.839  66.899  1.00  0.00    -0.089 OA 
HETATM   15  O   UNL     1      -5.760   8.084  67.607  1.00  0.00    -0.036 OA 
HETATM   16  O   UNL     1      -6.750   9.512  69.088  1.00  0.00    -0.048 OA 
ENDBRANCH   5   6
ENDBRANCH   4   5
TORSDOF 2
ENDMDL
MODEL      254
REMARK 921   NORMALIZED FREE ENERGY PREDICTED BY IDOCK:   -1.19 KCAL/MOL
REMARK 922        TOTAL FREE ENERGY PREDICTED BY IDOCK:   -1.29 KCAL/MOL
REMARK 923 INTER-LIGAND FREE ENERGY PREDICTED BY IDOCK:   -1.50 KCAL/MOL
REMARK 924 INTRA-LIGAND FREE ENERGY PREDICTED BY IDOCK:    0.20 KCAL/MOL
REMARK 927      BINDING AFFINITY PREDICTED BY RF-SCORE:    0.00 PKD
ROOT
HETATM    1  N   UNL     1     -10.270   5.025  69.764  1.00  0.00    -0.277 NA 
HETATM    2  H2  UNL     1      -9.425   5.405  69.338  1.00  0.00     0.000 HD 
HETATM    3  H1  UNL     1     -10.669   4.286  69.186  1.00  0.00     0.000 HD 
HETATM    4  C   UNL     1     -10.014   4.604  71.133  1.00  0.00    -0.195 C  
ENDROOT
BRANCH   4   5
HETATM    5  C   UNL     1      -9.415   5.715  72.003  1.00  0.00    -0.169 C  
BRANCH   5   6
HETATM    6  C   UNL     1      -7.861   5.903  71.969  1.00  0.00    -0.106 C  
HETATM    7  O   UNL     1      -7.263   4.585  72.236  1.00  0.00    -0.066 OA 
HETATM    8  P   UNL     1      -7.163   6.982  73.272  1.00  0.00    -0.073 P  
HETATM    9  P   UNL     1      -7.347   6.521  70.325  1.00  0.00    -0.093 P  
HETATM   10  H   UNL     1      -6.319   4.699  72.216  1.00  0.00     0.000 HD 
HETATM   11  O   UNL     1      -6.572   7.894  74.374  1.00  0.00    -0.098 OA 
HETATM   12  O   UNL     1      -7.692   5.852  74.367  1.00  0.00    -0.097 OA 
HETATM   13  O   UNL     1      -8.543   7.877  73.239  1.00  0.00    -0.172 OA 
HETATM   14  O   UNL     1      -7.306   4.966  69.770  1.00  0.00    -0.054 OA 
HETATM   15  O   UNL     1      -5.788   6.517  70.850  1.00  0.00    -0.026 OA 
HETATM   16  O   UNL     1      -6.912   7.044  68.934  1.00  0.00    -0.073 OA 
ENDBRANCH   5   6
ENDBRANCH   4   5
TORSDOF 2
ENDMDL
MODEL      255
REMARK 921   NORMALIZED FREE ENERGY PREDICTED BY IDOCK:   -0.33 KCAL/MOL
REMARK 922        TOTAL FREE ENERGY PREDICTED BY IDOCK:   -0.34 KCAL/MOL
REMARK 923 INTER-LIGAND FREE ENERGY PREDICTED BY IDOCK:   -1.73 KCAL/MOL
REMARK 924 INTRA-LIGAND FREE ENERGY PREDICTED BY IDOCK:    1.39 KCAL/MOL
REMARK 927      BINDING AFFINITY PREDICTED BY RF-SCORE:    0.00 PKD
ROOT
HETATM    1  N   UNL     1     -10.125   6.004  70.691  1.00  0.00    -0.187 NA 
HETATM    2  H2  UNL     1     -10.063   5.022  70.422  1.00  0.00     0.000 HD 
HETATM    3  H1  UNL     1     -10.757   6.125  71.482  1.00  0.00     0.000 HD 
HETATM    4  C   UNL     1      -8.801   6.560  70.927  1.00  0.00    -0.147 C  
ENDROOT
BRANCH   4   5
HETATM    5  C   UNL     1      -7.851   6.377  69.739  1.00  0.00    -0.114 C  
BRANCH   5   6
HETATM    6  C   UNL     1      -8.033   7.331  68.512  1.00  0.00    -0.124 C  
HETATM    7  O   UNL     1      -7.031   6.937  67.508  1.00  0.00    -0.077 OA 
HETATM    8  P   UNL     1      -7.680   9.100  68.822  1.00  0.00    -0.089 P  
HETATM    9  P   UNL     1      -9.724   7.156  67.836  1.00  0.00    -0.147 P  
HETATM   10  H   UNL     1      -7.142   7.516  66.763  1.00  0.00     0.000 HD 
HETATM   11  O   UNL     1      -7.381  10.597  69.084  1.00  0.00    -0.089 OA 
HETATM   12  O   UNL     1      -6.109   8.645  69.108  1.00  0.00    -0.041 OA 
HETATM   13  O   UNL     1      -8.217   8.914  70.366  1.00  0.00    -0.109 OA 
HETATM   14  O   UNL     1      -9.214   5.872  66.932  1.00  0.00    -0.120 OA 
HETATM   15  O   UNL     1      -9.347   8.281  66.696  1.00  0.00    -0.166 OA 
HETATM   16  O   UNL     1     -11.156   7.008  67.264  1.00  0.00    -0.318 OA 
ENDBRANCH   5   6
ENDBRANCH   4   5
TORSDOF 2
ENDMDL
