MODEL        1
REMARK 921   NORMALIZED FREE ENERGY PREDICTED BY IDOCK:   -7.37 KCAL/MOL
REMARK 922        TOTAL FREE ENERGY PREDICTED BY IDOCK:  -11.55 KCAL/MOL
REMARK 923 INTER-LIGAND FREE ENERGY PREDICTED BY IDOCK:   -9.96 KCAL/MOL
REMARK 924 INTRA-LIGAND FREE ENERGY PREDICTED BY IDOCK:   -1.59 KCAL/MOL
REMARK 927      BINDING AFFINITY PREDICTED BY RF-SCORE:    0.00 PKD
ROOT
HETATM    1  C   UNL     1      -7.928   7.044  69.566  1.00  0.00    -0.125 C  
HETATM    2  C   UNL     1      -8.446   7.781  70.721  1.00  0.00    -0.121 C  
HETATM    3  C   UNL     1      -9.724   7.050  70.299  1.00  0.00    -0.175 C  
HETATM    4  C   UNL     1     -10.082   9.952  65.880  1.00  0.00    -0.316 C  
HETATM    5  C   UNL     1      -9.421   6.186  68.441  1.00  0.00    -0.118 C  
HETATM    6  C   UNL     1      -9.209   5.761  69.642  1.00  0.00    -0.159 C  
HETATM    7  C   UNL     1      -9.577  10.312  67.313  1.00  0.00    -0.186 C  
HETATM    8  C   UNL     1     -10.713  11.346  67.951  1.00  0.00    -0.242 C  
HETATM    9  C   UNL     1     -10.180  12.663  68.580  1.00  0.00    -0.201 C  
HETATM   10  C   UNL     1      -9.172  13.241  67.561  1.00  0.00    -0.213 C  
HETATM   11  C   UNL     1      -7.948  12.358  67.852  1.00  0.00    -0.155 C  
HETATM   12  C   UNL     1      -8.955   4.381  70.238  1.00  0.00    -0.142 C  
HETATM   13  C   UNL     1     -10.913   6.358  68.814  1.00  0.00    -0.404 C  
HETATM   14  C   UNL     1      -8.171  11.011  67.087  1.00  0.00    -0.133 C  
HETATM   15  C   UNL     1      -6.936  10.115  67.131  1.00  0.00    -0.087 C  
HETATM   16  C   UNL     1     -10.720   7.876  67.824  1.00  0.00    -0.189 C  
HETATM   17  C   UNL     1      -6.886   9.189  68.324  1.00  0.00    -0.065 C  
HETATM   18  C   UNL     1      -9.497   8.931  68.162  1.00  0.00    -0.155 C  
HETATM   19  C   UNL     1      -8.057   8.206  68.267  1.00  0.00    -0.128 C  
ENDROOT
BRANCH   3  20
HETATM   20  N   UNL     1     -11.170   7.719  71.205  1.00  0.00    -0.259 N  
HETATM   21  C   UNL     1     -12.716   7.113  70.981  1.00  0.00    -0.303 C  
HETATM   22  C   UNL     1     -13.742   7.859  71.821  1.00  0.00    -0.417 C  
HETATM   23  C   UNL     1     -11.238   9.193  71.012  1.00  0.00    -0.312 C  
HETATM   24  C   UNL     1     -13.689   9.344  71.500  1.00  0.00    -0.363 C  
HETATM   25  C   UNL     1     -10.906   7.307  72.719  1.00  0.00    -0.314 C  
HETATM   26  C   UNL     1     -12.312   9.887  71.821  1.00  0.00    -0.456 C  
ENDBRANCH   3  20
BRANCH   5  27
HETATM   27  O   UNL     1      -9.745   4.613  68.011  1.00  0.00    -0.152 OA 
BRANCH  27  28
HETATM   28  C   UNL     1      -9.741   4.043  66.780  1.00  0.00    -0.190 C  
HETATM   29  C   UNL     1      -9.049   2.706  66.861  1.00  0.00    -0.161 C  
HETATM   30  O   UNL     1     -10.400   4.447  65.837  1.00  0.00    -0.256 OA 
ENDBRANCH  27  28
ENDBRANCH   5  27
BRANCH  10  31
HETATM   31  O   UNL     1      -9.293  13.217  66.124  1.00  0.00    -0.194 OA 
BRANCH  31  32
HETATM   32  C   UNL     1      -9.838  14.406  65.622  1.00  0.00    -0.291 C  
HETATM   33  C   UNL     1     -10.928  14.078  64.661  1.00  0.00    -0.401 C  
HETATM   34  O   UNL     1      -9.514  15.531  65.983  1.00  0.00    -0.308 OA 
ENDBRANCH  31  32
ENDBRANCH  10  31
BRANCH   9  35
HETATM   35  N   UNL     1     -11.296  13.852  69.101  1.00  0.00    -0.272 N  
HETATM   36  C   UNL     1     -12.284  14.208  67.913  1.00  0.00    -0.155 C  
HETATM   37  C   UNL     1     -12.879  14.420  71.050  1.00  0.00    -0.423 C  
HETATM   38  C   UNL     1     -12.129  13.329  70.286  1.00  0.00    -0.335 C  
HETATM   39  C   UNL     1     -11.953  15.544  71.469  1.00  0.00    -0.463 C  
HETATM   40  C   UNL     1     -11.396  16.188  70.216  1.00  0.00    -0.363 C  
HETATM   41  C   UNL     1     -10.570  15.173  69.420  1.00  0.00    -0.255 C  
ENDBRANCH   9  35
TORSDOF 6
ENDMDL
MODEL        2
REMARK 921   NORMALIZED FREE ENERGY PREDICTED BY IDOCK:   -7.28 KCAL/MOL
REMARK 922        TOTAL FREE ENERGY PREDICTED BY IDOCK:  -11.43 KCAL/MOL
REMARK 923 INTER-LIGAND FREE ENERGY PREDICTED BY IDOCK:   -9.61 KCAL/MOL
REMARK 924 INTRA-LIGAND FREE ENERGY PREDICTED BY IDOCK:   -1.81 KCAL/MOL
REMARK 927      BINDING AFFINITY PREDICTED BY RF-SCORE:    0.00 PKD
ROOT
HETATM    1  C   UNL     1     -10.738  10.470  66.519  1.00  0.00    -0.191 C  
HETATM    2  C   UNL     1      -9.350  10.687  66.106  1.00  0.00    -0.207 C  
HETATM    3  C   UNL     1      -9.123  10.384  67.590  1.00  0.00    -0.138 C  
HETATM    4  C   UNL     1     -11.418  14.945  69.007  1.00  0.00    -0.322 C  
HETATM    5  C   UNL     1     -10.951  10.388  68.564  1.00  0.00    -0.254 C  
HETATM    6  C   UNL     1     -10.291   9.458  67.958  1.00  0.00    -0.267 C  
HETATM    7  C   UNL     1     -10.531  14.575  67.776  1.00  0.00    -0.242 C  
HETATM    8  C   UNL     1      -9.083  15.361  68.002  1.00  0.00    -0.175 C  
HETATM    9  C   UNL     1      -8.547  16.191  66.803  1.00  0.00    -0.247 C  
HETATM   10  C   UNL     1      -9.746  17.021  66.293  1.00  0.00    -0.283 C  
HETATM   11  C   UNL     1     -10.501  15.952  65.489  1.00  0.00    -0.425 C  
HETATM   12  C   UNL     1     -10.386   7.936  67.954  1.00  0.00    -0.281 C  
HETATM   13  C   UNL     1      -9.740  10.569  69.509  1.00  0.00    -0.147 C  
HETATM   14  C   UNL     1     -11.332  15.116  66.518  1.00  0.00    -0.234 C  
HETATM   15  C   UNL     1     -12.284  14.140  65.830  1.00  0.00    -0.458 C  
HETATM   16  C   UNL     1     -10.166  12.329  69.301  1.00  0.00     0.321 C  
HETATM   17  C   UNL     1     -11.678  12.789  65.535  1.00  0.00    -0.436 C  
HETATM   18  C   UNL     1     -10.333  12.964  67.787  1.00  0.00    -0.223 C  
HETATM   19  C   UNL     1     -11.311  12.089  66.845  1.00  0.00    -0.400 C  
ENDROOT
BRANCH   3  20
HETATM   20  N   UNL     1      -7.395  10.768  68.062  1.00  0.00    -0.087 N  
HETATM   21  C   UNL     1      -6.880  10.734  69.656  1.00  0.00    -0.133 C  
HETATM   22  C   UNL     1      -5.415  11.123  69.786  1.00  0.00    -0.053 C  
HETATM   23  C   UNL     1      -7.009  12.091  67.499  1.00  0.00    -0.130 C  
HETATM   24  C   UNL     1      -5.191  12.496  69.173  1.00  0.00    -0.068 C  
HETATM   25  C   UNL     1      -6.547   9.568  67.451  1.00  0.00    -0.070 C  
HETATM   26  C   UNL     1      -5.557  12.466  67.704  1.00  0.00    -0.121 C  
ENDBRANCH   3  20
BRANCH   5  27
HETATM   27  O   UNL     1     -11.534   9.218  69.590  1.00  0.00    -0.039 OA 
BRANCH  27  28
HETATM   28  C   UNL     1     -11.748   9.281  70.928  1.00  0.00    -0.296 C  
HETATM   29  C   UNL     1     -12.771  10.350  71.212  1.00  0.00    -0.536 C  
HETATM   30  O   UNL     1     -11.353   8.445  71.724  1.00  0.00    -0.264 OA 
ENDBRANCH  27  28
ENDBRANCH   5  27
BRANCH  10  31
HETATM   31  O   UNL     1     -10.766  17.644  67.101  1.00  0.00    -0.306 OA 
BRANCH  31  32
HETATM   32  C   UNL     1     -10.528  19.013  67.286  1.00  0.00    -0.451 C  
HETATM   33  C   UNL     1     -10.438  19.678  65.957  1.00  0.00    -0.622 C  
HETATM   34  O   UNL     1     -10.483  19.573  68.375  1.00  0.00    -0.395 OA 
ENDBRANCH  31  32
ENDBRANCH  10  31
BRANCH   9  35
HETATM   35  N   UNL     1      -7.155  17.164  67.016  1.00  0.00    -0.172 N  
HETATM   36  C   UNL     1      -5.887  16.236  67.227  1.00  0.00    -0.122 C  
HETATM   37  C   UNL     1      -5.934  19.192  66.005  1.00  0.00    -0.191 C  
HETATM   38  C   UNL     1      -6.913  18.041  65.775  1.00  0.00    -0.231 C  
HETATM   39  C   UNL     1      -6.325  20.023  67.211  1.00  0.00    -0.224 C  
HETATM   40  C   UNL     1      -6.258  19.136  68.436  1.00  0.00    -0.247 C  
HETATM   41  C   UNL     1      -7.263  17.986  68.315  1.00  0.00    -0.248 C  
ENDBRANCH   9  35
TORSDOF 6
ENDMDL
MODEL        3
REMARK 921   NORMALIZED FREE ENERGY PREDICTED BY IDOCK:   -6.94 KCAL/MOL
REMARK 922        TOTAL FREE ENERGY PREDICTED BY IDOCK:  -10.96 KCAL/MOL
REMARK 923 INTER-LIGAND FREE ENERGY PREDICTED BY IDOCK:   -9.57 KCAL/MOL
REMARK 924 INTRA-LIGAND FREE ENERGY PREDICTED BY IDOCK:   -1.39 KCAL/MOL
REMARK 927      BINDING AFFINITY PREDICTED BY RF-SCORE:    0.00 PKD
ROOT
HETATM    1  C   UNL     1      -7.566   8.588  68.546  1.00  0.00    -0.095 C  
HETATM    2  C   UNL     1      -7.996   8.864  69.918  1.00  0.00    -0.108 C  
HETATM    3  C   UNL     1      -9.189   8.026  69.448  1.00  0.00    -0.152 C  
HETATM    4  C   UNL     1     -10.760  11.873  66.159  1.00  0.00    -0.318 C  
HETATM    5  C   UNL     1      -9.066   7.776  67.396  1.00  0.00    -0.126 C  
HETATM    6  C   UNL     1      -8.588   7.097  68.383  1.00  0.00    -0.123 C  
HETATM    7  C   UNL     1     -10.086  11.930  67.567  1.00  0.00    -0.206 C  
HETATM    8  C   UNL     1     -11.253  12.496  68.609  1.00  0.00    -0.319 C  
HETATM    9  C   UNL     1     -10.845  13.676  69.535  1.00  0.00     0.079 C  
HETATM   10  C   UNL     1     -10.132  14.701  68.625  1.00  0.00    -0.238 C  
HETATM   11  C   UNL     1      -8.749  14.045  68.499  1.00  0.00    -0.156 C  
HETATM   12  C   UNL     1      -8.013   5.690  68.510  1.00  0.00    -0.100 C  
HETATM   13  C   UNL     1     -10.481   7.530  67.971  1.00  0.00    -0.253 C  
HETATM   14  C   UNL     1      -8.873  12.938  67.399  1.00  0.00    -0.199 C  
HETATM   15  C   UNL     1      -7.518  12.337  67.035  1.00  0.00    -0.063 C  
HETATM   16  C   UNL     1     -10.710   9.265  67.461  1.00  0.00    -0.272 C  
HETATM   17  C   UNL     1      -7.116  11.155  67.885  1.00  0.00    -0.081 C  
HETATM   18  C   UNL     1      -9.638  10.418  67.953  1.00  0.00    -0.157 C  
HETATM   19  C   UNL     1      -8.101  10.005  67.673  1.00  0.00    -0.110 C  
ENDROOT
BRANCH   3  20
HETATM   20  N   UNL     1     -10.551   8.113  70.670  1.00  0.00    -0.211 N  
HETATM   21  C   UNL     1     -11.875   7.088  70.600  1.00  0.00    -0.377 C  
HETATM   22  C   UNL     1     -12.878   7.384  71.705  1.00  0.00    -0.406 C  
HETATM   23  C   UNL     1     -11.072   9.506  70.735  1.00  0.00    -0.323 C  
HETATM   24  C   UNL     1     -13.314   8.839  71.627  1.00  0.00    -0.402 C  
HETATM   25  C   UNL     1      -9.882   7.641  72.034  1.00  0.00    -0.167 C  
HETATM   26  C   UNL     1     -12.112   9.743  71.808  1.00  0.00    -0.425 C  
ENDBRANCH   3  20
BRANCH   5  27
HETATM   27  O   UNL     1      -9.195   6.346  66.558  1.00  0.00    -0.149 OA 
BRANCH  27  28
HETATM   28  C   UNL     1      -8.664   6.005  65.357  1.00  0.00    -0.083 C  
HETATM   29  C   UNL     1      -7.953   7.201  64.778  1.00  0.00    -0.122 C  
HETATM   30  O   UNL     1      -8.580   4.859  64.946  1.00  0.00    -0.137 OA 
ENDBRANCH  27  28
ENDBRANCH   5  27
BRANCH  10  31
HETATM   31  O   UNL     1     -10.488  15.041  67.270  1.00  0.00    -0.258 OA 
BRANCH  31  32
HETATM   32  C   UNL     1     -10.482  16.426  67.055  1.00  0.00    -0.291 C  
HETATM   33  C   UNL     1     -10.367  16.694  65.594  1.00  0.00    -0.310 C  
HETATM   34  O   UNL     1     -10.628  17.270  67.931  1.00  0.00    -0.365 OA 
ENDBRANCH  31  32
ENDBRANCH  10  31
BRANCH   9  35
HETATM   35  N   UNL     1     -12.037  14.423  70.509  1.00  0.00    -0.312 N  
HETATM   36  C   UNL     1     -13.035  15.244  69.590  1.00  0.00     0.339 C  
HETATM   37  C   UNL     1     -13.670  13.932  72.438  1.00  0.00    -0.678 C  
HETATM   38  C   UNL     1     -12.847  13.366  71.281  1.00  0.00    -0.323 C  
HETATM   39  C   UNL     1     -12.820  14.774  73.368  1.00  0.00    -0.597 C  
HETATM   40  C   UNL     1     -12.292  15.956  72.582  1.00  0.00    -0.581 C  
HETATM   41  C   UNL     1     -11.398  15.476  71.435  1.00  0.00    -0.395 C  
ENDBRANCH   9  35
TORSDOF 6
ENDMDL
MODEL        4
REMARK 921   NORMALIZED FREE ENERGY PREDICTED BY IDOCK:   -6.90 KCAL/MOL
REMARK 922        TOTAL FREE ENERGY PREDICTED BY IDOCK:  -10.91 KCAL/MOL
REMARK 923 INTER-LIGAND FREE ENERGY PREDICTED BY IDOCK:  -10.32 KCAL/MOL
REMARK 924 INTRA-LIGAND FREE ENERGY PREDICTED BY IDOCK:   -0.59 KCAL/MOL
REMARK 927      BINDING AFFINITY PREDICTED BY RF-SCORE:    0.00 PKD
ROOT
HETATM    1  C   UNL     1     -11.027  14.533  66.355  1.00  0.00    -0.324 C  
HETATM    2  C   UNL     1     -12.176  14.205  67.202  1.00  0.00    -0.348 C  
HETATM    3  C   UNL     1     -11.349  15.012  68.207  1.00  0.00    -0.318 C  
HETATM    4  C   UNL     1      -7.675  11.201  68.439  1.00  0.00    -0.125 C  
HETATM    5  C   UNL     1      -9.457  15.321  67.425  1.00  0.00    -0.199 C  
HETATM    6  C   UNL     1     -10.556  15.990  67.328  1.00  0.00    -0.313 C  
HETATM    7  C   UNL     1      -9.225  11.131  68.267  1.00  0.00    -0.169 C  
HETATM    8  C   UNL     1      -9.815  10.495  69.687  1.00  0.00    -0.117 C  
HETATM    9  C   UNL     1     -10.807   9.306  69.558  1.00  0.00    -0.195 C  
HETATM   10  C   UNL     1     -10.171   8.332  68.542  1.00  0.00    -0.208 C  
HETATM   11  C   UNL     1     -10.519   9.040  67.224  1.00  0.00    -0.343 C  
HETATM   12  C   UNL     1     -10.885  17.413  66.888  1.00  0.00    -0.005 C  
HETATM   13  C   UNL     1      -9.534  15.501  68.959  1.00  0.00    -0.242 C  
HETATM   14  C   UNL     1      -9.455  10.171  67.024  1.00  0.00    -0.197 C  
HETATM   15  C   UNL     1      -9.567  10.830  65.652  1.00  0.00    -0.263 C  
HETATM   16  C   UNL     1      -8.954  13.773  68.934  1.00  0.00     0.146 C  
HETATM   17  C   UNL     1     -10.519  12.002  65.603  1.00  0.00    -0.293 C  
HETATM   18  C   UNL     1      -9.758  12.646  68.036  1.00  0.00    -0.215 C  
HETATM   19  C   UNL     1     -10.008  13.121  66.512  1.00  0.00    -0.268 C  
ENDROOT
BRANCH   3  20
HETATM   20  N   UNL     1     -12.050  14.844  69.892  1.00  0.00    -0.321 N  
HETATM   21  C   UNL     1     -13.619  15.309  70.251  1.00  0.00     0.310 C  
HETATM   22  C   UNL     1     -13.948  15.099  71.721  1.00  0.00    -0.627 C  
HETATM   23  C   UNL     1     -11.153  15.513  70.873  1.00  0.00    -0.348 C  
HETATM   24  C   UNL     1     -12.948  15.850  72.585  1.00  0.00    -0.553 C  
HETATM   25  C   UNL     1     -12.148  13.272  70.118  1.00  0.00    -0.333 C  
HETATM   26  C   UNL     1     -11.551  15.329  72.321  1.00  0.00    -0.530 C  
ENDBRANCH   3  20
BRANCH   5  27
HETATM   27  O   UNL     1      -8.643  16.768  67.330  1.00  0.00    -0.189 OA 
BRANCH  27  28
HETATM   28  C   UNL     1      -7.534  17.083  66.615  1.00  0.00    -0.265 C  
HETATM   29  C   UNL     1      -6.380  16.247  67.106  1.00  0.00    -0.195 C  
HETATM   30  O   UNL     1      -7.546  17.751  65.594  1.00  0.00    -0.541 OA 
ENDBRANCH  27  28
ENDBRANCH   5  27
BRANCH  10  31
HETATM   31  O   UNL     1      -8.769   8.016  68.416  1.00  0.00    -0.130 OA 
BRANCH  31  32
HETATM   32  C   UNL     1      -8.392   6.954  69.249  1.00  0.00    -0.129 C  
HETATM   33  C   UNL     1      -7.323   7.416  70.177  1.00  0.00    -0.078 C  
HETATM   34  O   UNL     1      -8.920   5.849  69.255  1.00  0.00    -0.117 OA 
ENDBRANCH  31  32
ENDBRANCH  10  31
BRANCH   9  35
HETATM   35  N   UNL     1     -11.322   8.491  70.972  1.00  0.00    -0.265 N  
HETATM   36  C   UNL     1     -12.551   9.262  71.610  1.00  0.00    -0.365 C  
HETATM   37  C   UNL     1     -11.892   6.141  71.854  1.00  0.00    -0.316 C  
HETATM   38  C   UNL     1     -11.769   7.057  70.637  1.00  0.00    -0.338 C  
HETATM   39  C   UNL     1     -10.628   6.152  72.689  1.00  0.00    -0.246 C  
HETATM   40  C   UNL     1     -10.422   7.557  73.215  1.00  0.00    -0.426 C  
HETATM   41  C   UNL     1     -10.224   8.535  72.052  1.00  0.00    -0.321 C  
ENDBRANCH   9  35
TORSDOF 6
ENDMDL
MODEL        5
REMARK 921   NORMALIZED FREE ENERGY PREDICTED BY IDOCK:   -6.54 KCAL/MOL
REMARK 922        TOTAL FREE ENERGY PREDICTED BY IDOCK:  -10.43 KCAL/MOL
REMARK 923 INTER-LIGAND FREE ENERGY PREDICTED BY IDOCK:   -8.66 KCAL/MOL
REMARK 924 INTRA-LIGAND FREE ENERGY PREDICTED BY IDOCK:   -1.77 KCAL/MOL
REMARK 927      BINDING AFFINITY PREDICTED BY RF-SCORE:    0.00 PKD
ROOT
HETATM    1  C   UNL     1     -10.687   9.980  66.951  1.00  0.00    -0.211 C  
HETATM    2  C   UNL     1      -9.273  10.184  66.632  1.00  0.00    -0.181 C  
HETATM    3  C   UNL     1      -9.154   9.933  68.138  1.00  0.00    -0.121 C  
HETATM    4  C   UNL     1     -11.538  14.539  69.226  1.00  0.00    -0.339 C  
HETATM    5  C   UNL     1     -11.047   9.969  68.976  1.00  0.00    -0.180 C  
HETATM    6  C   UNL     1     -10.347   9.020  68.453  1.00  0.00    -0.242 C  
HETATM    7  C   UNL     1     -10.565  14.126  68.076  1.00  0.00    -0.241 C  
HETATM    8  C   UNL     1      -9.136  14.922  68.379  1.00  0.00    -0.185 C  
HETATM    9  C   UNL     1      -8.513  15.710  67.193  1.00  0.00    -0.207 C  
HETATM   10  C   UNL     1      -9.671  16.521  66.569  1.00  0.00    -0.272 C  
HETATM   11  C   UNL     1     -10.367  15.423  65.750  1.00  0.00    -0.381 C  
HETATM   12  C   UNL     1     -10.444   7.498  68.494  1.00  0.00    -0.211 C  
HETATM   13  C   UNL     1      -9.907  10.184  70.000  1.00  0.00    -0.179 C  
HETATM   14  C   UNL     1     -11.272  14.623  66.745  1.00  0.00    -0.344 C  
HETATM   15  C   UNL     1     -12.173  13.623  66.025  1.00  0.00    -0.492 C  
HETATM   16  C   UNL     1     -10.315  11.936  69.700  1.00  0.00     0.617 C  
HETATM   17  C   UNL     1     -11.550  12.262  65.822  1.00  0.00    -0.443 C  
HETATM   18  C   UNL     1     -10.370  12.517  68.157  1.00  0.00    -0.236 C  
HETATM   19  C   UNL     1     -11.279  11.609  67.178  1.00  0.00    -0.371 C  
ENDROOT
BRANCH   3  20
HETATM   20  N   UNL     1      -7.464  10.335  68.720  1.00  0.00    -0.084 N  
HETATM   21  C   UNL     1      -7.055  10.316  70.345  1.00  0.00    -0.040 C  
HETATM   22  C   UNL     1      -5.605  10.718  70.568  1.00  0.00    -0.106 C  
HETATM   23  C   UNL     1      -7.052  11.658  68.174  1.00  0.00    -0.078 C  
HETATM   24  C   UNL     1      -5.352  12.089  69.961  1.00  0.00    -0.097 C  
HETATM   25  C   UNL     1      -6.568   9.138  68.175  1.00  0.00    -0.060 C  
HETATM   26  C   UNL     1      -5.619  12.046  68.471  1.00  0.00    -0.052 C  
ENDBRANCH   3  20
BRANCH   5  27
HETATM   27  O   UNL     1     -11.705   8.835  69.998  1.00  0.00     0.040 OA 
BRANCH  27  28
HETATM   28  C   UNL     1     -12.326   9.014  71.191  1.00  0.00    -0.251 C  
HETATM   29  C   UNL     1     -11.639   8.169  72.233  1.00  0.00    -0.436 C  
HETATM   30  O   UNL     1     -13.142   9.893  71.412  1.00  0.00    -0.359 OA 
ENDBRANCH  27  28
ENDBRANCH   5  27
BRANCH  10  31
HETATM   31  O   UNL     1     -10.745  17.170  67.279  1.00  0.00    -0.302 OA 
BRANCH  31  32
HETATM   32  C   UNL     1     -10.318  18.336  67.929  1.00  0.00    -0.399 C  
HETATM   33  C   UNL     1     -10.117  19.413  66.921  1.00  0.00    -0.491 C  
HETATM   34  O   UNL     1     -10.207  18.458  69.143  1.00  0.00    -0.326 OA 
ENDBRANCH  31  32
ENDBRANCH  10  31
BRANCH   9  35
HETATM   35  N   UNL     1      -7.138  16.691  67.472  1.00  0.00    -0.135 N  
HETATM   36  C   UNL     1      -5.835  15.789  67.469  1.00  0.00    -0.097 C  
HETATM   37  C   UNL     1      -6.039  18.891  66.712  1.00  0.00    -0.182 C  
HETATM   38  C   UNL     1      -6.998  17.752  66.366  1.00  0.00    -0.253 C  
HETATM   39  C   UNL     1      -6.379  19.518  68.050  1.00  0.00    -0.246 C  
HETATM   40  C   UNL     1      -6.212  18.461  69.121  1.00  0.00    -0.245 C  
HETATM   41  C   UNL     1      -7.189  17.305  68.884  1.00  0.00    -0.243 C  
ENDBRANCH   9  35
TORSDOF 6
ENDMDL
MODEL        6
REMARK 921   NORMALIZED FREE ENERGY PREDICTED BY IDOCK:   -6.40 KCAL/MOL
REMARK 922        TOTAL FREE ENERGY PREDICTED BY IDOCK:  -10.24 KCAL/MOL
REMARK 923 INTER-LIGAND FREE ENERGY PREDICTED BY IDOCK:   -8.71 KCAL/MOL
REMARK 924 INTRA-LIGAND FREE ENERGY PREDICTED BY IDOCK:   -1.52 KCAL/MOL
REMARK 927      BINDING AFFINITY PREDICTED BY RF-SCORE:    0.00 PKD
ROOT
HETATM    1  C   UNL     1     -11.155  15.155  69.104  1.00  0.00    -0.263 C  
HETATM    2  C   UNL     1      -9.951  15.095  69.936  1.00  0.00    -0.107 C  
HETATM    3  C   UNL     1      -9.296  15.100  68.551  1.00  0.00    -0.192 C  
HETATM    4  C   UNL     1     -11.134  10.237  67.523  1.00  0.00    -0.302 C  
HETATM    5  C   UNL     1     -10.759  14.806  67.116  1.00  0.00    -0.299 C  
HETATM    6  C   UNL     1     -10.294  15.871  67.676  1.00  0.00    -0.281 C  
HETATM    7  C   UNL     1     -10.641  10.895  68.851  1.00  0.00    -0.241 C  
HETATM    8  C   UNL     1      -9.201  10.151  69.222  1.00  0.00    -0.220 C  
HETATM    9  C   UNL     1      -9.049   9.612  70.671  1.00  0.00    -0.063 C  
HETATM   10  C   UNL     1     -10.355   8.845  70.976  1.00  0.00    -0.253 C  
HETATM   11  C   UNL     1     -11.298  10.017  71.286  1.00  0.00    -0.336 C  
HETATM   12  C   UNL     1     -10.367  17.356  67.334  1.00  0.00    -0.343 C  
HETATM   13  C   UNL     1      -9.327  14.496  66.620  1.00  0.00    -0.301 C  
HETATM   14  C   UNL     1     -11.782  10.583  69.908  1.00  0.00    -0.372 C  
HETATM   15  C   UNL     1     -12.881  11.630  70.072  1.00  0.00     0.236 C  
HETATM   16  C   UNL     1      -9.818  12.797  67.060  1.00  0.00    -0.231 C  
HETATM   17  C   UNL     1     -12.370  13.042  70.239  1.00  0.00    -0.311 C  
HETATM   18  C   UNL     1     -10.428  12.477  68.560  1.00  0.00    -0.246 C  
HETATM   19  C   UNL     1     -11.628  13.477  68.974  1.00  0.00    -0.356 C  
ENDROOT
BRANCH   3  20
HETATM   20  N   UNL     1      -7.510  14.713  68.689  1.00  0.00    -0.118 N  
HETATM   21  C   UNL     1      -6.790  13.505  67.779  1.00  0.00    -0.168 C  
HETATM   22  C   UNL     1      -5.310  13.360  68.102  1.00  0.00    -0.105 C  
HETATM   23  C   UNL     1      -7.166  14.459  70.115  1.00  0.00     0.284 C  
HETATM   24  C   UNL     1      -5.132  13.099  69.589  1.00  0.00    -0.084 C  
HETATM   25  C   UNL     1      -6.785  16.001  68.100  1.00  0.00    -0.124 C  
HETATM   26  C   UNL     1      -5.690  14.261  70.383  1.00  0.00    -0.144 C  
ENDBRANCH   3  20
BRANCH   5  27
HETATM   27  O   UNL     1     -11.002  15.712  65.743  1.00  0.00    -0.314 OA 
BRANCH  27  28
HETATM   28  C   UNL     1     -11.775  15.440  64.662  1.00  0.00    -0.267 C  
HETATM   29  C   UNL     1     -12.408  14.083  64.840  1.00  0.00    -0.447 C  
HETATM   30  O   UNL     1     -12.085  16.264  63.817  1.00  0.00    -0.959 OA 
ENDBRANCH  27  28
ENDBRANCH   5  27
BRANCH  10  31
HETATM   31  O   UNL     1     -11.102   8.021  70.058  1.00  0.00    -0.238 OA 
BRANCH  31  32
HETATM   32  C   UNL     1     -11.045   6.663  70.403  1.00  0.00    -0.322 C  
HETATM   33  C   UNL     1     -11.018   6.536  71.887  1.00  0.00    -0.288 C  
HETATM   34  O   UNL     1     -11.090   5.736  69.603  1.00  0.00    -0.372 OA 
ENDBRANCH  31  32
ENDBRANCH  10  31
BRANCH   9  35
HETATM   35  N   UNL     1      -7.668   8.686  71.078  1.00  0.00    -0.096 N  
HETATM   36  C   UNL     1      -6.364   9.566  70.883  1.00  0.00    -0.089 C  
HETATM   37  C   UNL     1      -6.755   7.113  72.900  1.00  0.00    -0.064 C  
HETATM   38  C   UNL     1      -7.733   8.233  72.548  1.00  0.00    -0.118 C  
HETATM   39  C   UNL     1      -6.882   5.942  71.948  1.00  0.00    -0.068 C  
HETATM   40  C   UNL     1      -6.520   6.422  70.558  1.00  0.00    -0.044 C  
HETATM   41  C   UNL     1      -7.499   7.508  70.099  1.00  0.00    -0.086 C  
ENDBRANCH   9  35
TORSDOF 6
ENDMDL
MODEL        7
REMARK 921   NORMALIZED FREE ENERGY PREDICTED BY IDOCK:   -6.38 KCAL/MOL
REMARK 922        TOTAL FREE ENERGY PREDICTED BY IDOCK:  -10.21 KCAL/MOL
REMARK 923 INTER-LIGAND FREE ENERGY PREDICTED BY IDOCK:   -9.88 KCAL/MOL
REMARK 924 INTRA-LIGAND FREE ENERGY PREDICTED BY IDOCK:   -0.33 KCAL/MOL
REMARK 927      BINDING AFFINITY PREDICTED BY RF-SCORE:    0.00 PKD
ROOT
HETATM    1  C   UNL     1     -11.081  14.435  65.403  1.00  0.00    -0.331 C  
HETATM    2  C   UNL     1     -12.102  14.112  66.401  1.00  0.00    -0.475 C  
HETATM    3  C   UNL     1     -11.183  14.986  67.260  1.00  0.00    -0.338 C  
HETATM    4  C   UNL     1      -7.380  11.297  67.175  1.00  0.00    -0.130 C  
HETATM    5  C   UNL     1      -9.416  15.315  66.231  1.00  0.00    -0.309 C  
HETATM    6  C   UNL     1     -10.541  15.947  66.249  1.00  0.00    -0.301 C  
HETATM    7  C   UNL     1      -8.937  11.174  67.204  1.00  0.00    -0.145 C  
HETATM    8  C   UNL     1      -9.321  10.584  68.711  1.00  0.00    -0.181 C  
HETATM    9  C   UNL     1     -10.280   9.363  68.757  1.00  0.00    -0.203 C  
HETATM   10  C   UNL     1      -9.744   8.364  67.708  1.00  0.00    -0.162 C  
HETATM   11  C   UNL     1     -10.279   9.003  66.418  1.00  0.00    -0.297 C  
HETATM   12  C   UNL     1     -10.971  17.338  65.797  1.00  0.00     0.133 C  
HETATM   13  C   UNL     1      -9.306  15.560  67.754  1.00  0.00    -0.195 C  
HETATM   14  C   UNL     1      -9.288  10.155  66.040  1.00  0.00    -0.216 C  
HETATM   15  C   UNL     1      -9.594  10.748  64.668  1.00  0.00    -0.320 C  
HETATM   16  C   UNL     1      -8.675  13.850  67.724  1.00  0.00    -0.187 C  
HETATM   17  C   UNL     1     -10.584  11.889  64.694  1.00  0.00    -0.353 C  
HETATM   18  C   UNL     1      -9.546  12.662  66.982  1.00  0.00    -0.219 C  
HETATM   19  C   UNL     1     -10.002  13.062  65.485  1.00  0.00    -0.226 C  
ENDROOT
BRANCH   3  20
HETATM   20  N   UNL     1     -11.661  14.871  69.025  1.00  0.00    -0.289 N  
HETATM   21  C   UNL     1     -13.129  15.452  69.587  1.00  0.00     0.532 C  
HETATM   22  C   UNL     1     -13.270  15.268  71.091  1.00  0.00    -0.567 C  
HETATM   23  C   UNL     1     -10.592  15.473  69.869  1.00  0.00    -0.313 C  
HETATM   24  C   UNL     1     -12.110  15.944  71.803  1.00  0.00    -0.567 C  
HETATM   25  C   UNL     1     -11.842  13.311  69.280  1.00  0.00    -0.331 C  
HETATM   26  C   UNL     1     -10.804  15.320  71.360  1.00  0.00    -0.035 C  
ENDBRANCH   3  20
BRANCH   5  27
HETATM   27  O   UNL     1      -8.671  16.779  65.976  1.00  0.00    -0.454 OA 
BRANCH  27  28
HETATM   28  C   UNL     1      -7.379  17.131  66.191  1.00  0.00    -0.246 C  
HETATM   29  C   UNL     1      -7.266  18.634  66.150  1.00  0.00    -0.296 C  
HETATM   30  O   UNL     1      -6.517  16.364  66.588  1.00  0.00    -0.277 OA 
ENDBRANCH  27  28
ENDBRANCH   5  27
BRANCH  10  31
HETATM   31  O   UNL     1      -8.359   8.083  67.418  1.00  0.00    -0.120 OA 
BRANCH  31  32
HETATM   32  C   UNL     1      -7.980   6.804  67.847  1.00  0.00    -0.114 C  
HETATM   33  C   UNL     1      -6.708   6.903  68.616  1.00  0.00    -0.060 C  
HETATM   34  O   UNL     1      -8.639   5.786  67.678  1.00  0.00    -0.104 OA 
ENDBRANCH  31  32
ENDBRANCH  10  31
BRANCH   9  35
HETATM   35  N   UNL     1     -10.585   8.596  70.257  1.00  0.00    -0.217 N  
HETATM   36  C   UNL     1      -9.269   8.619  71.140  1.00  0.00    -0.213 C  
HETATM   37  C   UNL     1     -12.293   8.529  72.182  1.00  0.00    -0.444 C  
HETATM   38  C   UNL     1     -11.698   9.331  71.025  1.00  0.00    -0.311 C  
HETATM   39  C   UNL     1     -12.737   7.151  71.734  1.00  0.00    -0.374 C  
HETATM   40  C   UNL     1     -11.516   6.394  71.255  1.00  0.00    -0.371 C  
HETATM   41  C   UNL     1     -10.893   7.101  70.047  1.00  0.00    -0.254 C  
ENDBRANCH   9  35
TORSDOF 6
ENDMDL
MODEL        8
REMARK 921   NORMALIZED FREE ENERGY PREDICTED BY IDOCK:   -6.13 KCAL/MOL
REMARK 922        TOTAL FREE ENERGY PREDICTED BY IDOCK:   -9.87 KCAL/MOL
REMARK 923 INTER-LIGAND FREE ENERGY PREDICTED BY IDOCK:   -8.30 KCAL/MOL
REMARK 924 INTRA-LIGAND FREE ENERGY PREDICTED BY IDOCK:   -1.58 KCAL/MOL
REMARK 927      BINDING AFFINITY PREDICTED BY RF-SCORE:    0.00 PKD
ROOT
HETATM    1  C   UNL     1     -10.700  14.179  65.816  1.00  0.00    -0.301 C  
HETATM    2  C   UNL     1     -11.877  13.986  66.666  1.00  0.00    -0.443 C  
HETATM    3  C   UNL     1     -11.017  14.823  67.618  1.00  0.00    -0.291 C  
HETATM    4  C   UNL     1      -7.571  10.842  68.214  1.00  0.00    -0.100 C  
HETATM    5  C   UNL     1      -9.100  14.962  66.845  1.00  0.00    -0.250 C  
HETATM    6  C   UNL     1     -10.158  15.681  66.678  1.00  0.00    -0.280 C  
HETATM    7  C   UNL     1      -9.121  10.845  68.021  1.00  0.00    -0.152 C  
HETATM    8  C   UNL     1      -9.763  10.360  69.476  1.00  0.00    -0.196 C  
HETATM    9  C   UNL     1     -10.821   9.222  69.425  1.00  0.00    -0.169 C  
HETATM   10  C   UNL     1     -10.229   8.135  68.500  1.00  0.00    -0.208 C  
HETATM   11  C   UNL     1     -10.519   8.755  67.125  1.00  0.00    -0.354 C  
HETATM   12  C   UNL     1     -10.399  17.080  66.121  1.00  0.00    -0.326 C  
HETATM   13  C   UNL     1      -9.187  15.268  68.359  1.00  0.00    -0.194 C  
HETATM   14  C   UNL     1      -9.389   9.804  66.854  1.00  0.00    -0.184 C  
HETATM   15  C   UNL     1      -9.446  10.356  65.432  1.00  0.00    -0.285 C  
HETATM   16  C   UNL     1      -8.706  13.513  68.481  1.00  0.00    -0.082 C  
HETATM   17  C   UNL     1     -10.328  11.572  65.275  1.00  0.00    -0.322 C  
HETATM   18  C   UNL     1      -9.562  12.365  67.662  1.00  0.00    -0.193 C  
HETATM   19  C   UNL     1      -9.766  12.730  66.101  1.00  0.00    -0.246 C  
ENDROOT
BRANCH   3  20
HETATM   20  N   UNL     1     -11.748  14.830  69.298  1.00  0.00    -0.299 N  
HETATM   21  C   UNL     1     -10.884  15.338  70.641  1.00  0.00    -0.278 C  
HETATM   22  C   UNL     1     -11.701  15.215  71.918  1.00  0.00    -0.490 C  
HETATM   23  C   UNL     1     -12.295  13.480  69.607  1.00  0.00    -0.165 C  
HETATM   24  C   UNL     1     -12.177  13.781  72.089  1.00  0.00     0.210 C  
HETATM   25  C   UNL     1     -12.875  15.951  69.229  1.00  0.00     0.996 C  
HETATM   26  C   UNL     1     -13.049  13.388  70.916  1.00  0.00    -0.111 C  
ENDBRANCH   3  20
BRANCH   5  27
HETATM   27  O   UNL     1      -8.204  16.348  66.651  1.00  0.00    -0.218 OA 
BRANCH  27  28
HETATM   28  C   UNL     1      -6.995  16.667  67.176  1.00  0.00    -0.191 C  
HETATM   29  C   UNL     1      -7.149  17.873  68.067  1.00  0.00    -0.215 C  
HETATM   30  O   UNL     1      -6.012  15.946  67.119  1.00  0.00    -0.324 OA 
ENDBRANCH  27  28
ENDBRANCH   5  27
BRANCH  10  31
HETATM   31  O   UNL     1      -8.846   7.732  68.423  1.00  0.00    -0.131 OA 
BRANCH  31  32
HETATM   32  C   UNL     1      -8.711   6.362  68.159  1.00  0.00    -0.116 C  
HETATM   33  C   UNL     1      -7.514   6.145  67.301  1.00  0.00    -0.081 C  
HETATM   34  O   UNL     1      -9.425   5.486  68.631  1.00  0.00    -0.121 OA 
ENDBRANCH  31  32
ENDBRANCH  10  31
BRANCH   9  35
HETATM   35  N   UNL     1     -11.399   8.553  70.890  1.00  0.00    -0.266 N  
HETATM   36  C   UNL     1     -12.469   9.530  71.533  1.00  0.00    -0.376 C  
HETATM   37  C   UNL     1     -12.290   6.356  71.895  1.00  0.00    -0.279 C  
HETATM   38  C   UNL     1     -12.075   7.194  70.634  1.00  0.00    -0.237 C  
HETATM   39  C   UNL     1     -11.006   6.203  72.687  1.00  0.00    -0.291 C  
HETATM   40  C   UNL     1     -10.566   7.579  73.142  1.00  0.00    -0.442 C  
HETATM   41  C   UNL     1     -10.266   8.468  71.931  1.00  0.00    -0.299 C  
ENDBRANCH   9  35
TORSDOF 6
ENDMDL
MODEL        9
REMARK 921   NORMALIZED FREE ENERGY PREDICTED BY IDOCK:   -6.10 KCAL/MOL
REMARK 922        TOTAL FREE ENERGY PREDICTED BY IDOCK:   -9.83 KCAL/MOL
REMARK 923 INTER-LIGAND FREE ENERGY PREDICTED BY IDOCK:   -7.99 KCAL/MOL
REMARK 924 INTRA-LIGAND FREE ENERGY PREDICTED BY IDOCK:   -1.84 KCAL/MOL
REMARK 927      BINDING AFFINITY PREDICTED BY RF-SCORE:    0.00 PKD
ROOT
HETATM    1  C   UNL     1      -8.947  15.124  68.243  1.00  0.00    -0.175 C  
HETATM    2  C   UNL     1      -8.896  15.000  66.785  1.00  0.00    -0.299 C  
HETATM    3  C   UNL     1     -10.351  14.581  67.019  1.00  0.00    -0.263 C  
HETATM    4  C   UNL     1      -8.816  10.082  69.361  1.00  0.00    -0.200 C  
HETATM    5  C   UNL     1     -10.648  14.292  69.048  1.00  0.00    -0.232 C  
HETATM    6  C   UNL     1     -10.749  15.336  68.295  1.00  0.00    -0.254 C  
HETATM    7  C   UNL     1      -8.199  10.892  68.176  1.00  0.00    -0.121 C  
HETATM    8  C   UNL     1      -8.445   9.969  66.815  1.00  0.00    -0.125 C  
HETATM    9  C   UNL     1      -7.208   9.727  65.905  1.00  0.00    -0.103 C  
HETATM   10  C   UNL     1      -6.058   9.320  66.853  1.00  0.00    -0.064 C  
HETATM   11  C   UNL     1      -5.651  10.696  67.401  1.00  0.00    -0.044 C  
HETATM   12  C   UNL     1     -11.411  16.698  68.472  1.00  0.00    -0.152 C  
HETATM   13  C   UNL     1     -11.709  13.603  68.157  1.00  0.00    -0.392 C  
HETATM   14  C   UNL     1      -6.663  11.045  68.543  1.00  0.00    -0.061 C  
HETATM   15  C   UNL     1      -6.255  12.303  69.307  1.00  0.00    -0.098 C  
HETATM   16  C   UNL     1     -10.611  12.169  68.402  1.00  0.00    -0.243 C  
HETATM   17  C   UNL     1      -6.794  13.586  68.720  1.00  0.00    -0.108 C  
HETATM   18  C   UNL     1      -8.998  12.301  68.083  1.00  0.00    -0.192 C  
HETATM   19  C   UNL     1      -8.322  13.586  68.792  1.00  0.00     0.067 C  
ENDROOT
BRANCH   3  20
HETATM   20  N   UNL     1     -11.067  13.881  65.484  1.00  0.00    -0.300 N  
HETATM   21  C   UNL     1     -12.530  13.064  65.479  1.00  0.00    -0.496 C  
HETATM   22  C   UNL     1     -12.887  12.553  64.091  1.00  0.00    -0.333 C  
HETATM   23  C   UNL     1     -10.064  13.000  64.825  1.00  0.00    -0.218 C  
HETATM   24  C   UNL     1     -11.769  11.667  63.566  1.00  0.00    -0.384 C  
HETATM   25  C   UNL     1     -11.436  15.157  64.608  1.00  0.00    -0.362 C  
HETATM   26  C   UNL     1     -10.485  12.465  63.473  1.00  0.00    -0.430 C  
ENDBRANCH   3  20
BRANCH   5  27
HETATM   27  O   UNL     1     -11.881  14.919  69.971  1.00  0.00    -0.270 OA 
BRANCH  27  28
HETATM   28  C   UNL     1     -12.643  14.307  70.912  1.00  0.00    -0.356 C  
HETATM   29  C   UNL     1     -13.746  15.242  71.335  1.00  0.00    -0.602 C  
HETATM   30  O   UNL     1     -12.577  13.118  71.178  1.00  0.00    -0.370 OA 
ENDBRANCH  27  28
ENDBRANCH   5  27
BRANCH  10  31
HETATM   31  O   UNL     1      -6.165   8.489  68.027  1.00  0.00    -0.050 OA 
BRANCH  31  32
HETATM   32  C   UNL     1      -6.067   7.125  67.717  1.00  0.00    -0.034 C  
HETATM   33  C   UNL     1      -7.165   6.388  68.402  1.00  0.00    -0.085 C  
HETATM   34  O   UNL     1      -5.251   6.642  66.942  1.00  0.00    -0.011 OA 
ENDBRANCH  31  32
ENDBRANCH  10  31
BRANCH   9  35
HETATM   35  N   UNL     1      -7.342   8.649  64.582  1.00  0.00    -0.092 N  
HETATM   36  C   UNL     1      -8.197   9.326  63.432  1.00  0.00    -0.176 C  
HETATM   37  C   UNL     1      -5.933   7.091  63.095  1.00  0.00    -0.040 C  
HETATM   38  C   UNL     1      -5.951   8.309  64.018  1.00  0.00    -0.066 C  
HETATM   39  C   UNL     1      -6.582   5.887  63.748  1.00  0.00    -0.036 C  
HETATM   40  C   UNL     1      -8.036   6.219  64.009  1.00  0.00    -0.099 C  
HETATM   41  C   UNL     1      -8.145   7.396  64.984  1.00  0.00    -0.122 C  
ENDBRANCH   9  35
TORSDOF 6
ENDMDL
MODEL       10
REMARK 921   NORMALIZED FREE ENERGY PREDICTED BY IDOCK:   -5.96 KCAL/MOL
REMARK 922        TOTAL FREE ENERGY PREDICTED BY IDOCK:   -9.64 KCAL/MOL
REMARK 923 INTER-LIGAND FREE ENERGY PREDICTED BY IDOCK:   -7.90 KCAL/MOL
REMARK 924 INTRA-LIGAND FREE ENERGY PREDICTED BY IDOCK:   -1.74 KCAL/MOL
REMARK 927      BINDING AFFINITY PREDICTED BY RF-SCORE:    0.00 PKD
ROOT
HETATM    1  C   UNL     1     -10.350   8.605  67.578  1.00  0.00    -0.336 C  
HETATM    2  C   UNL     1      -8.911   8.794  67.382  1.00  0.00    -0.143 C  
HETATM    3  C   UNL     1      -8.943   8.695  68.910  1.00  0.00    -0.142 C  
HETATM    4  C   UNL     1     -11.432  13.358  69.288  1.00  0.00    -0.345 C  
HETATM    5  C   UNL     1     -10.911   8.793  69.548  1.00  0.00    -0.142 C  
HETATM    6  C   UNL     1     -10.160   7.804  69.195  1.00  0.00    -0.196 C  
HETATM    7  C   UNL     1     -10.349  12.845  68.287  1.00  0.00    -0.248 C  
HETATM    8  C   UNL     1      -8.959  13.683  68.649  1.00  0.00    -0.025 C  
HETATM    9  C   UNL     1      -8.222  14.356  67.458  1.00  0.00    -0.188 C  
HETATM   10  C   UNL     1      -9.313  15.087  66.644  1.00  0.00    -0.266 C  
HETATM   11  C   UNL     1      -9.922  13.905  65.874  1.00  0.00    -0.317 C  
HETATM   12  C   UNL     1     -10.258   6.293  69.379  1.00  0.00    -0.238 C  
HETATM   13  C   UNL     1      -9.879   9.122  70.653  1.00  0.00    -0.308 C  
HETATM   14  C   UNL     1     -10.921  13.197  66.850  1.00  0.00    -0.295 C  
HETATM   15  C   UNL     1     -11.743  12.120  66.148  1.00  0.00    -0.384 C  
HETATM   16  C   UNL     1     -10.258  10.830  70.140  1.00  0.00     0.383 C  
HETATM   17  C   UNL     1     -11.100  10.753  66.145  1.00  0.00     0.066 C  
HETATM   18  C   UNL     1     -10.160  11.254  68.549  1.00  0.00    -0.210 C  
HETATM   19  C   UNL     1     -10.965  10.242  67.580  1.00  0.00    -0.356 C  
ENDROOT
BRANCH   3  20
HETATM   20  N   UNL     1      -7.320   9.173  69.614  1.00  0.00    -0.062 N  
HETATM   21  C   UNL     1      -7.054   9.242  71.267  1.00  0.00    -0.015 C  
HETATM   22  C   UNL     1      -5.639   9.696  71.592  1.00  0.00    -0.056 C  
HETATM   23  C   UNL     1      -6.896  10.481  69.041  1.00  0.00    -0.068 C  
HETATM   24  C   UNL     1      -5.369  11.044  70.943  1.00  0.00    -0.118 C  
HETATM   25  C   UNL     1      -6.351   7.979  69.206  1.00  0.00    -0.035 C  
HETATM   26  C   UNL     1      -5.505  10.924  69.440  1.00  0.00    -0.041 C  
ENDBRANCH   3  20
BRANCH   5  27
HETATM   27  O   UNL     1     -11.665   7.758  70.609  1.00  0.00    -0.266 OA 
BRANCH  27  28
HETATM   28  C   UNL     1     -12.779   7.960  71.357  1.00  0.00    -0.292 C  
HETATM   29  C   UNL     1     -13.175   9.411  71.267  1.00  0.00    -0.364 C  
HETATM   30  O   UNL     1     -13.465   7.062  71.818  1.00  0.00    -0.349 OA 
ENDBRANCH  27  28
ENDBRANCH   5  27
BRANCH  10  31
HETATM   31  O   UNL     1     -10.454  15.791  67.175  1.00  0.00    -0.296 OA 
BRANCH  31  32
HETATM   32  C   UNL     1     -10.336  17.179  67.019  1.00  0.00    -0.308 C  
HETATM   33  C   UNL     1     -10.175  17.810  68.358  1.00  0.00    -0.384 C  
HETATM   34  O   UNL     1     -10.295  17.760  65.941  1.00  0.00    -0.517 OA 
ENDBRANCH  31  32
ENDBRANCH  10  31
BRANCH   9  35
HETATM   35  N   UNL     1      -6.884  15.376  67.772  1.00  0.00    -0.150 N  
HETATM   36  C   UNL     1      -5.549  14.521  67.748  1.00  0.00    -0.041 C  
HETATM   37  C   UNL     1      -5.860  17.636  67.083  1.00  0.00    -0.163 C  
HETATM   38  C   UNL     1      -6.777  16.474  66.699  1.00  0.00    -0.082 C  
HETATM   39  C   UNL     1      -6.227  18.210  68.437  1.00  0.00    -0.191 C  
HETATM   40  C   UNL     1      -6.027  17.128  69.477  1.00  0.00    -0.235 C  
HETATM   41  C   UNL     1      -6.962  15.946  69.202  1.00  0.00    -0.176 C  
ENDBRANCH   9  35
TORSDOF 6
ENDMDL
MODEL       11
REMARK 921   NORMALIZED FREE ENERGY PREDICTED BY IDOCK:   -5.82 KCAL/MOL
REMARK 922        TOTAL FREE ENERGY PREDICTED BY IDOCK:   -9.45 KCAL/MOL
REMARK 923 INTER-LIGAND FREE ENERGY PREDICTED BY IDOCK:   -7.64 KCAL/MOL
REMARK 924 INTRA-LIGAND FREE ENERGY PREDICTED BY IDOCK:   -1.81 KCAL/MOL
REMARK 927      BINDING AFFINITY PREDICTED BY RF-SCORE:    0.00 PKD
ROOT
HETATM    1  C   UNL     1      -7.323   6.437  70.390  1.00  0.00    -0.089 C  
HETATM    2  C   UNL     1      -7.877   7.641  71.013  1.00  0.00    -0.090 C  
HETATM    3  C   UNL     1      -9.129   6.757  71.023  1.00  0.00    -0.156 C  
HETATM    4  C   UNL     1      -9.509   7.009  65.744  1.00  0.00     0.250 C  
HETATM    5  C   UNL     1      -8.777   5.082  69.859  1.00  0.00    -0.101 C  
HETATM    6  C   UNL     1      -8.569   5.330  71.108  1.00  0.00    -0.128 C  
HETATM    7  C   UNL     1      -9.033   8.061  66.796  1.00  0.00    -0.169 C  
HETATM    8  C   UNL     1     -10.206   9.240  66.825  1.00  0.00    -0.325 C  
HETATM    9  C   UNL     1      -9.719  10.710  66.699  1.00  0.00    -0.184 C  
HETATM   10  C   UNL     1      -8.714  10.723  65.525  1.00  0.00    -0.187 C  
HETATM   11  C   UNL     1      -7.470  10.148  66.220  1.00  0.00    -0.112 C  
HETATM   12  C   UNL     1      -8.284   4.451  72.321  1.00  0.00    -0.108 C  
HETATM   13  C   UNL     1     -10.278   5.373  70.097  1.00  0.00    -0.342 C  
HETATM   14  C   UNL     1      -7.644   8.592  66.243  1.00  0.00    -0.094 C  
HETATM   15  C   UNL     1      -6.386   7.881  66.732  1.00  0.00    -0.054 C  
HETATM   16  C   UNL     1     -10.114   6.186  68.474  1.00  0.00    -0.193 C  
HETATM   17  C   UNL     1      -6.325   7.689  68.229  1.00  0.00    -0.041 C  
HETATM   18  C   UNL     1      -8.926   7.303  68.227  1.00  0.00    -0.125 C  
HETATM   19  C   UNL     1      -7.467   6.777  68.681  1.00  0.00    -0.099 C  
ENDROOT
BRANCH   3  20
HETATM   20  N   UNL     1     -10.604   7.748  71.469  1.00  0.00    -0.212 N  
HETATM   21  C   UNL     1     -12.162   7.202  71.179  1.00  0.00    -0.405 C  
HETATM   22  C   UNL     1     -13.207   8.220  71.608  1.00  0.00    -0.349 C  
HETATM   23  C   UNL     1     -10.491   9.106  70.870  1.00  0.00    -0.278 C  
HETATM   24  C   UNL     1     -12.956   9.544  70.904  1.00  0.00    -0.187 C  
HETATM   25  C   UNL     1     -10.591   7.773  73.060  1.00  0.00    -0.379 C  
HETATM   26  C   UNL     1     -11.585  10.069  71.277  1.00  0.00    -0.430 C  
ENDBRANCH   3  20
BRANCH   5  27
HETATM   27  O   UNL     1      -9.051   3.499  70.285  1.00  0.00    -0.104 OA 
BRANCH  27  28
HETATM   28  C   UNL     1      -9.342   2.436  69.494  1.00  0.00    -0.094 C  
HETATM   29  C   UNL     1      -8.325   2.356  68.385  1.00  0.00    -0.078 C  
HETATM   30  O   UNL     1     -10.147   1.566  69.785  1.00  0.00     0.218 OA 
ENDBRANCH  27  28
ENDBRANCH   5  27
BRANCH  10  31
HETATM   31  O   UNL     1      -8.815   9.971  64.299  1.00  0.00    -0.183 OA 
BRANCH  31  32
HETATM   32  C   UNL     1      -8.678  10.788  63.168  1.00  0.00    -0.169 C  
HETATM   33  C   UNL     1      -7.500  10.334  62.377  1.00  0.00    -0.154 C  
HETATM   34  O   UNL     1      -9.456  11.679  62.851  1.00  0.00    -0.377 OA 
ENDBRANCH  31  32
ENDBRANCH  10  31
BRANCH   9  35
HETATM   35  N   UNL     1     -10.874  11.964  66.549  1.00  0.00    -0.266 N  
HETATM   36  C   UNL     1     -11.857  11.930  67.793  1.00  0.00    -0.219 C  
HETATM   37  C   UNL     1     -11.074  14.475  66.019  1.00  0.00    -0.329 C  
HETATM   38  C   UNL     1     -10.181  13.338  66.515  1.00  0.00    -0.283 C  
HETATM   39  C   UNL     1     -11.717  14.139  64.688  1.00  0.00    -0.427 C  
HETATM   40  C   UNL     1     -12.610  12.933  64.888  1.00  0.00    -0.525 C  
HETATM   41  C   UNL     1     -11.779  11.722  65.325  1.00  0.00    -0.065 C  
ENDBRANCH   9  35
TORSDOF 6
ENDMDL
MODEL       12
REMARK 921   NORMALIZED FREE ENERGY PREDICTED BY IDOCK:   -5.79 KCAL/MOL
REMARK 922        TOTAL FREE ENERGY PREDICTED BY IDOCK:   -9.41 KCAL/MOL
REMARK 923 INTER-LIGAND FREE ENERGY PREDICTED BY IDOCK:   -7.92 KCAL/MOL
REMARK 924 INTRA-LIGAND FREE ENERGY PREDICTED BY IDOCK:   -1.49 KCAL/MOL
REMARK 927      BINDING AFFINITY PREDICTED BY RF-SCORE:    0.00 PKD
ROOT
HETATM    1  C   UNL     1     -11.409  13.423  68.540  1.00  0.00    -0.324 C  
HETATM    2  C   UNL     1     -10.184  13.736  69.279  1.00  0.00     0.167 C  
HETATM    3  C   UNL     1      -9.577  13.443  67.903  1.00  0.00    -0.216 C  
HETATM    4  C   UNL     1     -10.782   8.300  68.321  1.00  0.00    -0.076 C  
HETATM    5  C   UNL     1     -11.030  12.598  66.694  1.00  0.00    -0.258 C  
HETATM    6  C   UNL     1     -10.694  13.823  66.921  1.00  0.00    -0.280 C  
HETATM    7  C   UNL     1     -10.342   9.347  69.393  1.00  0.00    -0.222 C  
HETATM    8  C   UNL     1      -8.805   8.910  69.854  1.00  0.00    -0.154 C  
HETATM    9  C   UNL     1      -8.540   8.807  71.382  1.00  0.00    -0.194 C  
HETATM   10  C   UNL     1      -9.723   8.000  71.963  1.00  0.00    -0.203 C  
HETATM   11  C   UNL     1     -10.804   9.090  72.010  1.00  0.00    -0.342 C  
HETATM   12  C   UNL     1     -10.973  15.139  66.203  1.00  0.00    -0.331 C  
HETATM   13  C   UNL     1      -9.585  12.339  66.207  1.00  0.00    -0.248 C  
HETATM   14  C   UNL     1     -11.399   9.200  70.566  1.00  0.00    -0.300 C  
HETATM   15  C   UNL     1     -12.622  10.112  70.517  1.00  0.00    -0.289 C  
HETATM   16  C   UNL     1      -9.832  10.777  67.113  1.00  0.00    -0.216 C  
HETATM   17  C   UNL     1     -12.299  11.567  70.270  1.00  0.00    -0.355 C  
HETATM   18  C   UNL     1     -10.349  10.805  68.680  1.00  0.00    -0.208 C  
HETATM   19  C   UNL     1     -11.658  11.728  68.891  1.00  0.00    -0.370 C  
ENDROOT
BRANCH   3  20
HETATM   20  N   UNL     1      -7.752  13.326  68.024  1.00  0.00    -0.131 N  
HETATM   21  C   UNL     1      -6.867  12.258  67.084  1.00  0.00    -0.101 C  
HETATM   22  C   UNL     1      -5.380  12.329  67.396  1.00  0.00    -0.116 C  
HETATM   23  C   UNL     1      -7.362  13.097  69.442  1.00  0.00     0.337 C  
HETATM   24  C   UNL     1      -5.151  12.068  68.876  1.00  0.00    -0.050 C  
HETATM   25  C   UNL     1      -7.233  14.719  67.458  1.00  0.00    -0.197 C  
HETATM   26  C   UNL     1      -5.870  13.117  69.698  1.00  0.00    -0.109 C  
ENDBRANCH   3  20
BRANCH   5  27
HETATM   27  O   UNL     1     -11.431  13.062  65.149  1.00  0.00    -0.295 OA 
BRANCH  27  28
HETATM   28  C   UNL     1     -12.144  12.390  64.210  1.00  0.00    -0.433 C  
HETATM   29  C   UNL     1     -11.190  11.694  63.274  1.00  0.00    -0.305 C  
HETATM   30  O   UNL     1     -13.347  12.195  64.275  1.00  0.00    -0.761 OA 
ENDBRANCH  27  28
ENDBRANCH   5  27
BRANCH  10  31
HETATM   31  O   UNL     1     -10.381   6.875  71.346  1.00  0.00    -0.202 OA 
BRANCH  31  32
HETATM   32  C   UNL     1     -10.948   6.012  72.294  1.00  0.00    -0.265 C  
HETATM   33  C   UNL     1      -9.864   5.415  73.123  1.00  0.00    -0.179 C  
HETATM   34  O   UNL     1     -12.151   5.846  72.456  1.00  0.00    -0.241 OA 
ENDBRANCH  31  32
ENDBRANCH  10  31
BRANCH   9  35
HETATM   35  N   UNL     1      -7.037   8.198  71.930  1.00  0.00    -0.074 N  
HETATM   36  C   UNL     1      -5.860   9.081  71.337  1.00  0.00    -0.059 C  
HETATM   37  C   UNL     1      -5.834   7.407  74.064  1.00  0.00    -0.060 C  
HETATM   38  C   UNL     1      -6.958   8.253  73.466  1.00  0.00    -0.118 C  
HETATM   39  C   UNL     1      -5.879   5.980  73.556  1.00  0.00    -0.053 C  
HETATM   40  C   UNL     1      -5.662   6.006  72.057  1.00  0.00    -0.031 C  
HETATM   41  C   UNL     1      -6.789   6.784  71.370  1.00  0.00    -0.062 C  
ENDBRANCH   9  35
TORSDOF 6
ENDMDL
MODEL       13
REMARK 921   NORMALIZED FREE ENERGY PREDICTED BY IDOCK:   -5.59 KCAL/MOL
REMARK 922        TOTAL FREE ENERGY PREDICTED BY IDOCK:   -9.14 KCAL/MOL
REMARK 923 INTER-LIGAND FREE ENERGY PREDICTED BY IDOCK:   -8.77 KCAL/MOL
REMARK 924 INTRA-LIGAND FREE ENERGY PREDICTED BY IDOCK:   -0.37 KCAL/MOL
REMARK 927      BINDING AFFINITY PREDICTED BY RF-SCORE:    0.00 PKD
ROOT
HETATM    1  C   UNL     1      -7.202   7.304  68.268  1.00  0.00    -0.094 C  
HETATM    2  C   UNL     1      -7.583   7.864  69.566  1.00  0.00    -0.099 C  
HETATM    3  C   UNL     1      -8.853   7.064  69.258  1.00  0.00    -0.139 C  
HETATM    4  C   UNL     1     -10.133  10.368  65.317  1.00  0.00    -0.370 C  
HETATM    5  C   UNL     1      -8.786   6.432  67.287  1.00  0.00    -0.108 C  
HETATM    6  C   UNL     1      -8.353   5.906  68.383  1.00  0.00    -0.112 C  
HETATM    7  C   UNL     1      -9.434  10.621  66.691  1.00  0.00    -0.195 C  
HETATM    8  C   UNL     1     -10.528  11.472  67.610  1.00  0.00    -0.218 C  
HETATM    9  C   UNL     1     -10.002  12.760  68.303  1.00  0.00    -0.230 C  
HETATM   10  C   UNL     1      -9.217  13.533  67.220  1.00  0.00    -0.233 C  
HETATM   11  C   UNL     1      -7.900  12.743  67.217  1.00  0.00    -0.148 C  
HETATM   12  C   UNL     1      -7.903   4.500  68.767  1.00  0.00    -0.071 C  
HETATM   13  C   UNL     1     -10.208   6.424  67.898  1.00  0.00    -0.200 C  
HETATM   14  C   UNL     1      -8.139  11.468  66.339  1.00  0.00    -0.069 C  
HETATM   15  C   UNL     1      -6.848  10.692  66.091  1.00  0.00    -0.135 C  
HETATM   16  C   UNL     1     -10.292   8.049  67.077  1.00  0.00    -0.414 C  
HETATM   17  C   UNL     1      -6.538   9.655  67.145  1.00  0.00    -0.071 C  
HETATM   18  C   UNL     1      -9.114   9.172  67.348  1.00  0.00    -0.142 C  
HETATM   19  C   UNL     1      -7.625   8.578  67.149  1.00  0.00    -0.096 C  
ENDROOT
BRANCH   3  20
HETATM   20  N   UNL     1     -10.181   7.496  70.444  1.00  0.00    -0.201 N  
HETATM   21  C   UNL     1      -9.951   7.422  72.102  1.00  0.00    -0.203 C  
HETATM   22  C   UNL     1     -11.212   7.796  72.865  1.00  0.00    -0.434 C  
HETATM   23  C   UNL     1     -11.404   6.707  70.129  1.00  0.00    -0.382 C  
HETATM   24  C   UNL     1     -12.360   6.896  72.435  1.00  0.00    -0.012 C  
HETATM   25  C   UNL     1     -10.389   9.061  70.243  1.00  0.00    -0.209 C  
HETATM   26  C   UNL     1     -12.620   7.071  70.954  1.00  0.00    -0.273 C  
ENDBRANCH   3  20
BRANCH   5  27
HETATM   27  O   UNL     1      -9.055   4.890  66.728  1.00  0.00    -0.116 OA 
BRANCH  27  28
HETATM   28  C   UNL     1      -9.084   4.435  65.450  1.00  0.00    -0.143 C  
HETATM   29  C   UNL     1      -8.397   5.435  64.556  1.00  0.00    -0.138 C  
HETATM   30  O   UNL     1      -9.399   3.299  65.135  1.00  0.00    -0.146 OA 
ENDBRANCH  27  28
ENDBRANCH   5  27
BRANCH  10  31
HETATM   31  O   UNL     1      -9.565  13.648  65.825  1.00  0.00    -0.191 OA 
BRANCH  31  32
HETATM   32  C   UNL     1     -10.040  14.928  65.505  1.00  0.00    -0.370 C  
HETATM   33  C   UNL     1      -9.140  15.949  66.109  1.00  0.00    -0.385 C  
HETATM   34  O   UNL     1     -11.000  15.155  64.778  1.00  0.00    -0.399 OA 
ENDBRANCH  31  32
ENDBRANCH  10  31
BRANCH   9  35
HETATM   35  N   UNL     1     -11.107  13.778  69.123  1.00  0.00    -0.254 N  
HETATM   36  C   UNL     1     -12.266  14.210  68.131  1.00  0.00    -0.144 C  
HETATM   37  C   UNL     1     -12.445  13.956  71.316  1.00  0.00    -0.440 C  
HETATM   38  C   UNL     1     -11.740  13.039  70.316  1.00  0.00    -0.114 C  
HETATM   39  C   UNL     1     -11.540  15.084  71.771  1.00  0.00    -0.425 C  
HETATM   40  C   UNL     1     -11.197  15.930  70.562  1.00  0.00    -0.395 C  
HETATM   41  C   UNL     1     -10.426  15.098  69.532  1.00  0.00    -0.260 C  
ENDBRANCH   9  35
TORSDOF 6
ENDMDL
MODEL       14
REMARK 921   NORMALIZED FREE ENERGY PREDICTED BY IDOCK:   -5.51 KCAL/MOL
REMARK 922        TOTAL FREE ENERGY PREDICTED BY IDOCK:   -9.04 KCAL/MOL
REMARK 923 INTER-LIGAND FREE ENERGY PREDICTED BY IDOCK:   -7.38 KCAL/MOL
REMARK 924 INTRA-LIGAND FREE ENERGY PREDICTED BY IDOCK:   -1.66 KCAL/MOL
REMARK 927      BINDING AFFINITY PREDICTED BY RF-SCORE:    0.00 PKD
ROOT
HETATM    1  C   UNL     1     -10.198   5.206  69.438  1.00  0.00    -0.293 C  
HETATM    2  C   UNL     1     -10.538   5.385  68.025  1.00  0.00    -0.157 C  
HETATM    3  C   UNL     1      -9.010   5.399  67.917  1.00  0.00    -0.108 C  
HETATM    4  C   UNL     1      -8.746  10.067  70.409  1.00  0.00     0.207 C  
HETATM    5  C   UNL     1      -8.203   5.535  69.819  1.00  0.00    -0.101 C  
HETATM    6  C   UNL     1      -8.551   4.526  69.094  1.00  0.00    -0.103 C  
HETATM    7  C   UNL     1      -9.801   9.486  69.416  1.00  0.00    -0.194 C  
HETATM    8  C   UNL     1      -9.630  10.354  68.007  1.00  0.00    -0.156 C  
HETATM    9  C   UNL     1     -10.930  10.940  67.389  1.00  0.00    -0.293 C  
HETATM   10  C   UNL     1     -11.692  11.606  68.557  1.00  0.00    -0.315 C  
HETATM   11  C   UNL     1     -12.314  10.368  69.221  1.00  0.00     0.217 C  
HETATM   12  C   UNL     1      -8.249   3.033  69.158  1.00  0.00    -0.077 C  
HETATM   13  C   UNL     1      -7.224   5.949  68.695  1.00  0.00    -0.083 C  
HETATM   14  C   UNL     1     -11.202   9.730  70.119  1.00  0.00    -0.324 C  
HETATM   15  C   UNL     1     -11.746   8.601  70.991  1.00  0.00    -0.319 C  
HETATM   16  C   UNL     1      -7.823   7.613  69.136  1.00  0.00    -0.118 C  
HETATM   17  C   UNL     1     -11.708   7.240  70.337  1.00  0.00    -0.219 C  
HETATM   18  C   UNL     1      -9.443   7.920  69.188  1.00  0.00    -0.155 C  
HETATM   19  C   UNL     1     -10.258   6.836  70.067  1.00  0.00    -0.211 C  
ENDROOT
BRANCH   3  20
HETATM   20  N   UNL     1      -8.494   5.933  66.242  1.00  0.00    -0.123 N  
HETATM   21  C   UNL     1      -6.921   5.747  65.694  1.00  0.00    -0.068 C  
HETATM   22  C   UNL     1      -6.743   6.299  64.288  1.00  0.00    -0.038 C  
HETATM   23  C   UNL     1      -8.869   7.359  66.038  1.00  0.00    -0.146 C  
HETATM   24  C   UNL     1      -7.161   7.760  64.252  1.00  0.00    -0.079 C  
HETATM   25  C   UNL     1      -9.268   4.946  65.262  1.00  0.00    -0.139 C  
HETATM   26  C   UNL     1      -8.620   7.885  64.641  1.00  0.00     0.122 C  
ENDBRANCH   3  20
BRANCH   5  27
HETATM   27  O   UNL     1      -7.006   4.578  70.463  1.00  0.00    -0.036 OA 
BRANCH  27  28
HETATM   28  C   UNL     1      -6.308   4.739  71.615  1.00  0.00    -0.022 C  
HETATM   29  C   UNL     1      -6.974   5.803  72.449  1.00  0.00    -0.083 C  
HETATM   30  O   UNL     1      -5.437   3.976  71.999  1.00  0.00     0.000 OA 
ENDBRANCH  27  28
ENDBRANCH   5  27
BRANCH  10  31
HETATM   31  O   UNL     1     -11.111  12.342  69.652  1.00  0.00    -0.094 OA 
BRANCH  31  32
HETATM   32  C   UNL     1     -11.674  13.619  69.785  1.00  0.00    -0.297 C  
HETATM   33  C   UNL     1     -12.476  13.673  71.039  1.00  0.00    -0.456 C  
HETATM   34  O   UNL     1     -11.467  14.557  69.024  1.00  0.00    -0.258 OA 
ENDBRANCH  31  32
ENDBRANCH  10  31
BRANCH   9  35
HETATM   35  N   UNL     1     -10.814  11.986  66.038  1.00  0.00    -0.278 N  
HETATM   36  C   UNL     1      -9.678  13.061  66.297  1.00  0.00    -0.263 C  
HETATM   37  C   UNL     1     -10.686  11.958  63.467  1.00  0.00    -0.504 C  
HETATM   38  C   UNL     1     -10.453  11.192  64.770  1.00  0.00    -0.323 C  
HETATM   39  C   UNL     1     -12.092  12.519  63.395  1.00  0.00    -0.621 C  
HETATM   40  C   UNL     1     -12.262  13.512  64.527  1.00  0.00    -0.445 C  
HETATM   41  C   UNL     1     -12.107  12.808  65.879  1.00  0.00    -0.426 C  
ENDBRANCH   9  35
TORSDOF 6
ENDMDL
MODEL       15
REMARK 921   NORMALIZED FREE ENERGY PREDICTED BY IDOCK:   -5.42 KCAL/MOL
REMARK 922        TOTAL FREE ENERGY PREDICTED BY IDOCK:   -8.91 KCAL/MOL
REMARK 923 INTER-LIGAND FREE ENERGY PREDICTED BY IDOCK:   -7.18 KCAL/MOL
REMARK 924 INTRA-LIGAND FREE ENERGY PREDICTED BY IDOCK:   -1.73 KCAL/MOL
REMARK 927      BINDING AFFINITY PREDICTED BY RF-SCORE:    0.00 PKD
ROOT
HETATM    1  C   UNL     1     -10.175   4.895  69.032  1.00  0.00    -0.164 C  
HETATM    2  C   UNL     1     -10.378   5.373  67.662  1.00  0.00    -0.235 C  
HETATM    3  C   UNL     1      -8.851   5.469  67.736  1.00  0.00    -0.105 C  
HETATM    4  C   UNL     1      -9.139   9.466  71.202  1.00  0.00    -0.060 C  
HETATM    5  C   UNL     1      -8.255   5.206  69.702  1.00  0.00    -0.093 C  
HETATM    6  C   UNL     1      -8.462   4.373  68.738  1.00  0.00    -0.095 C  
HETATM    7  C   UNL     1     -10.047   9.083  69.991  1.00  0.00    -0.215 C  
HETATM    8  C   UNL     1      -9.786  10.250  68.836  1.00  0.00    -0.200 C  
HETATM    9  C   UNL     1     -11.049  10.911  68.216  1.00  0.00    -0.266 C  
HETATM   10  C   UNL     1     -11.967  11.268  69.406  1.00  0.00    -0.341 C  
HETATM   11  C   UNL     1     -12.577   9.890  69.708  1.00  0.00     0.515 C  
HETATM   12  C   UNL     1      -8.076   2.915  68.509  1.00  0.00    -0.071 C  
HETATM   13  C   UNL     1      -7.193   5.898  68.815  1.00  0.00    -0.083 C  
HETATM   14  C   UNL     1     -11.526   9.109  70.566  1.00  0.00    -0.271 C  
HETATM   15  C   UNL     1     -12.085   7.794  71.102  1.00  0.00    -0.306 C  
HETATM   16  C   UNL     1      -7.938   7.397  69.538  1.00  0.00    -0.127 C  
HETATM   17  C   UNL     1     -11.895   6.617  70.174  1.00  0.00    -0.347 C  
HETATM   18  C   UNL     1      -9.570   7.622  69.469  1.00  0.00    -0.163 C  
HETATM   19  C   UNL     1     -10.402   6.339  69.991  1.00  0.00    -0.252 C  
ENDROOT
BRANCH   3  20
HETATM   20  N   UNL     1      -8.200   6.384  66.288  1.00  0.00    -0.114 N  
HETATM   21  C   UNL     1      -6.560   6.650  66.070  1.00  0.00    -0.044 C  
HETATM   22  C   UNL     1      -6.281   7.461  64.813  1.00  0.00    -0.038 C  
HETATM   23  C   UNL     1      -8.880   7.705  66.188  1.00  0.00    -0.164 C  
HETATM   24  C   UNL     1      -7.041   8.776  64.871  1.00  0.00    -0.077 C  
HETATM   25  C   UNL     1      -8.514   5.434  65.051  1.00  0.00    -0.150 C  
HETATM   26  C   UNL     1      -8.528   8.505  64.953  1.00  0.00    -0.166 C  
ENDBRANCH   3  20
BRANCH   5  27
HETATM   27  O   UNL     1      -7.074   4.175  70.254  1.00  0.00    -0.040 OA 
BRANCH  27  28
HETATM   28  C   UNL     1      -6.757   3.839  71.529  1.00  0.00    -0.026 C  
HETATM   29  C   UNL     1      -7.827   4.361  72.454  1.00  0.00    -0.092 C  
HETATM   30  O   UNL     1      -5.883   3.044  71.830  1.00  0.00    -0.008 OA 
ENDBRANCH  27  28
ENDBRANCH   5  27
BRANCH  10  31
HETATM   31  O   UNL     1     -11.550  11.761  70.695  1.00  0.00    -0.087 OA 
BRANCH  31  32
HETATM   32  C   UNL     1     -12.507  12.612  71.267  1.00  0.00    -0.175 C  
HETATM   33  C   UNL     1     -12.447  13.939  70.593  1.00  0.00    -0.436 C  
HETATM   34  O   UNL     1     -13.310  12.280  72.130  1.00  0.00    -0.526 OA 
ENDBRANCH  31  32
ENDBRANCH  10  31
BRANCH   9  35
HETATM   35  N   UNL     1     -10.860  12.236  67.149  1.00  0.00    -0.236 N  
HETATM   36  C   UNL     1      -9.786  13.242  67.739  1.00  0.00    -0.224 C  
HETATM   37  C   UNL     1     -10.524  12.792  64.658  1.00  0.00    -0.373 C  
HETATM   38  C   UNL     1     -10.371  11.755  65.771  1.00  0.00    -0.253 C  
HETATM   39  C   UNL     1     -11.938  13.334  64.592  1.00  0.00    -0.440 C  
HETATM   40  C   UNL     1     -12.232  14.042  65.898  1.00  0.00    -0.481 C  
HETATM   41  C   UNL     1     -12.163  13.054  67.066  1.00  0.00    -0.153 C  
ENDBRANCH   9  35
TORSDOF 6
ENDMDL
MODEL       16
REMARK 921   NORMALIZED FREE ENERGY PREDICTED BY IDOCK:   -5.37 KCAL/MOL
REMARK 922        TOTAL FREE ENERGY PREDICTED BY IDOCK:   -8.84 KCAL/MOL
REMARK 923 INTER-LIGAND FREE ENERGY PREDICTED BY IDOCK:   -7.17 KCAL/MOL
REMARK 924 INTRA-LIGAND FREE ENERGY PREDICTED BY IDOCK:   -1.67 KCAL/MOL
REMARK 927      BINDING AFFINITY PREDICTED BY RF-SCORE:    0.00 PKD
ROOT
HETATM    1  C   UNL     1     -11.385   7.056  71.079  1.00  0.00    -0.325 C  
HETATM    2  C   UNL     1     -11.497   6.350  69.801  1.00  0.00    -0.468 C  
HETATM    3  C   UNL     1     -10.118   5.849  70.242  1.00  0.00    -0.202 C  
HETATM    4  C   UNL     1      -8.010  10.664  69.572  1.00  0.00    -0.079 C  
HETATM    5  C   UNL     1      -9.488   6.962  71.871  1.00  0.00    -0.141 C  
HETATM    6  C   UNL     1     -10.189   5.882  71.775  1.00  0.00    -0.248 C  
HETATM    7  C   UNL     1      -9.131   9.911  68.789  1.00  0.00    -0.147 C  
HETATM    8  C   UNL     1      -8.481   9.541  67.303  1.00  0.00    -0.128 C  
HETATM    9  C   UNL     1      -9.332   9.918  66.058  1.00  0.00    -0.188 C  
HETATM   10  C   UNL     1      -9.809  11.368  66.295  1.00  0.00    -0.218 C  
HETATM   11  C   UNL     1     -10.967  11.121  67.275  1.00  0.00    -0.354 C  
HETATM   12  C   UNL     1     -10.587   4.797  72.770  1.00  0.00    -0.272 C  
HETATM   13  C   UNL     1      -8.342   6.230  71.135  1.00  0.00    -0.124 C  
HETATM   14  C   UNL     1     -10.329  10.946  68.693  1.00  0.00    -0.206 C  
HETATM   15  C   UNL     1     -11.384  10.889  69.795  1.00  0.00    -0.374 C  
HETATM   16  C   UNL     1      -8.173   7.852  70.321  1.00  0.00    -0.124 C  
HETATM   17  C   UNL     1     -11.902   9.499  70.084  1.00  0.00    -0.036 C  
HETATM   18  C   UNL     1      -9.488   8.566  69.625  1.00  0.00    -0.165 C  
HETATM   19  C   UNL     1     -10.766   8.623  70.612  1.00  0.00    -0.259 C  
ENDROOT
BRANCH   3  20
HETATM   20  N   UNL     1      -9.288   4.973  68.863  1.00  0.00    -0.119 N  
HETATM   21  C   UNL     1      -7.631   5.061  68.624  1.00  0.00    -0.078 C  
HETATM   22  C   UNL     1      -7.195   4.276  67.397  1.00  0.00    -0.068 C  
HETATM   23  C   UNL     1      -9.941   5.339  67.577  1.00  0.00    -0.171 C  
HETATM   24  C   UNL     1      -7.947   4.774  66.173  1.00  0.00    -0.103 C  
HETATM   25  C   UNL     1      -9.454   3.432  69.223  1.00  0.00    -0.142 C  
HETATM   26  C   UNL     1      -9.435   4.576  66.372  1.00  0.00    -0.177 C  
ENDBRANCH   3  20
BRANCH   5  27
HETATM   27  O   UNL     1      -8.895   6.373  73.308  1.00  0.00    -0.125 OA 
BRANCH  27  28
HETATM   28  C   UNL     1      -7.755   6.703  73.964  1.00  0.00    -0.095 C  
HETATM   29  C   UNL     1      -7.899   8.092  74.532  1.00  0.00    -0.301 C  
HETATM   30  O   UNL     1      -6.871   5.909  74.243  1.00  0.00    -0.079 OA 
ENDBRANCH  27  28
ENDBRANCH   5  27
BRANCH  10  31
HETATM   31  O   UNL     1      -9.052  12.434  66.903  1.00  0.00    -0.200 OA 
BRANCH  31  32
HETATM   32  C   UNL     1      -9.590  13.695  66.612  1.00  0.00    -0.283 C  
HETATM   33  C   UNL     1      -9.616  14.515  67.855  1.00  0.00    -0.217 C  
HETATM   34  O   UNL     1      -9.911  14.077  65.493  1.00  0.00    -0.279 OA 
ENDBRANCH  31  32
ENDBRANCH  10  31
BRANCH   9  35
HETATM   35  N   UNL     1      -8.657   9.726  64.497  1.00  0.00    -0.169 N  
HETATM   36  C   UNL     1      -9.594  10.427  63.426  1.00  0.00    -0.312 C  
HETATM   37  C   UNL     1      -6.437   9.950  63.214  1.00  0.00    -0.125 C  
HETATM   38  C   UNL     1      -7.265  10.378  64.425  1.00  0.00     0.002 C  
HETATM   39  C   UNL     1      -6.355   8.441  63.100  1.00  0.00    -0.086 C  
HETATM   40  C   UNL     1      -7.756   7.908  62.887  1.00  0.00    -0.132 C  
HETATM   41  C   UNL     1      -8.641   8.239  64.093  1.00  0.00     0.144 C  
ENDBRANCH   9  35
TORSDOF 6
ENDMDL
MODEL       17
REMARK 921   NORMALIZED FREE ENERGY PREDICTED BY IDOCK:   -5.16 KCAL/MOL
REMARK 922        TOTAL FREE ENERGY PREDICTED BY IDOCK:   -8.57 KCAL/MOL
REMARK 923 INTER-LIGAND FREE ENERGY PREDICTED BY IDOCK:   -7.26 KCAL/MOL
REMARK 924 INTRA-LIGAND FREE ENERGY PREDICTED BY IDOCK:   -1.30 KCAL/MOL
REMARK 927      BINDING AFFINITY PREDICTED BY RF-SCORE:    0.00 PKD
ROOT
HETATM    1  C   UNL     1      -8.655   7.950  66.403  1.00  0.00    -0.156 C  
HETATM    2  C   UNL     1      -7.382   8.665  66.517  1.00  0.00    -0.081 C  
HETATM    3  C   UNL     1      -7.631   8.363  67.998  1.00  0.00    -0.098 C  
HETATM    4  C   UNL     1     -11.719  11.731  68.133  1.00  0.00    -0.377 C  
HETATM    5  C   UNL     1      -9.567   7.664  68.225  1.00  0.00    -0.153 C  
HETATM    6  C   UNL     1      -8.451   7.066  67.975  1.00  0.00    -0.125 C  
HETATM    7  C   UNL     1     -10.370  11.776  67.347  1.00  0.00    -0.228 C  
HETATM    8  C   UNL     1      -9.481  13.002  68.034  1.00  0.00    -0.217 C  
HETATM    9  C   UNL     1      -8.863  14.044  67.060  1.00  0.00    -0.219 C  
HETATM   10  C   UNL     1      -9.996  14.435  66.084  1.00  0.00    -0.311 C  
HETATM   11  C   UNL     1      -9.976  13.225  65.138  1.00  0.00    -0.174 C  
HETATM   12  C   UNL     1      -8.001   5.610  68.046  1.00  0.00    -0.097 C  
HETATM   13  C   UNL     1      -8.937   8.194  69.535  1.00  0.00    -0.151 C  
HETATM   14  C   UNL     1     -10.783  12.085  65.846  1.00  0.00    -0.314 C  
HETATM   15  C   UNL     1     -11.008  10.886  64.928  1.00  0.00    -0.038 C  
HETATM   16  C   UNL     1      -9.839   9.704  69.057  1.00  0.00    -0.183 C  
HETATM   17  C   UNL     1      -9.907   9.854  64.977  1.00  0.00    -0.323 C  
HETATM   18  C   UNL     1      -9.643  10.339  67.547  1.00  0.00    -0.180 C  
HETATM   19  C   UNL     1      -9.832   9.241  66.376  1.00  0.00    -0.347 C  
ENDROOT
BRANCH   3  20
HETATM   20  N   UNL     1      -6.451   9.295  69.046  1.00  0.00    -0.046 N  
HETATM   21  C   UNL     1      -6.676   9.471  70.697  1.00  0.00    -0.110 C  
HETATM   22  C   UNL     1      -5.578  10.313  71.330  1.00  0.00    -0.027 C  
HETATM   23  C   UNL     1      -6.250  10.656  68.477  1.00  0.00    -0.049 C  
HETATM   24  C   UNL     1      -5.509  11.668  70.644  1.00  0.00    -0.149 C  
HETATM   25  C   UNL     1      -5.125   8.414  69.019  1.00  0.00    -0.031 C  
HETATM   26  C   UNL     1      -5.191  11.482  69.175  1.00  0.00    -0.043 C  
ENDBRANCH   3  20
BRANCH   5  27
HETATM   27  O   UNL     1     -10.042   6.299  69.046  1.00  0.00    -0.155 OA 
BRANCH  27  28
HETATM   28  C   UNL     1     -11.069   6.137  69.918  1.00  0.00    -0.410 C  
HETATM   29  C   UNL     1     -10.581   5.356  71.111  1.00  0.00    -0.276 C  
HETATM   30  O   UNL     1     -12.129   6.735  69.844  1.00  0.00    -0.184 OA 
ENDBRANCH  27  28
ENDBRANCH   5  27
BRANCH  10  31
HETATM   31  O   UNL     1     -11.390  14.607  66.411  1.00  0.00    -0.340 OA 
BRANCH  31  32
HETATM   32  C   UNL     1     -12.145  15.015  65.302  1.00  0.00    -0.018 C  
HETATM   33  C   UNL     1     -11.505  16.213  64.690  1.00  0.00    -0.225 C  
HETATM   34  O   UNL     1     -13.127  14.425  64.869  1.00  0.00    -0.593 OA 
ENDBRANCH  31  32
ENDBRANCH  10  31
BRANCH   9  35
HETATM   35  N   UNL     1      -8.082  15.425  67.700  1.00  0.00    -0.140 N  
HETATM   36  C   UNL     1      -9.080  16.657  67.676  1.00  0.00    -0.207 C  
HETATM   37  C   UNL     1      -6.638  16.189  69.690  1.00  0.00    -0.182 C  
HETATM   38  C   UNL     1      -7.652  15.177  69.157  1.00  0.00    -0.188 C  
HETATM   39  C   UNL     1      -5.442  16.318  68.768  1.00  0.00    -0.109 C  
HETATM   40  C   UNL     1      -5.930  16.843  67.434  1.00  0.00    -0.181 C  
HETATM   41  C   UNL     1      -6.908  15.851  66.797  1.00  0.00     0.173 C  
ENDBRANCH   9  35
TORSDOF 6
ENDMDL
MODEL       18
REMARK 921   NORMALIZED FREE ENERGY PREDICTED BY IDOCK:   -5.16 KCAL/MOL
REMARK 922        TOTAL FREE ENERGY PREDICTED BY IDOCK:   -8.56 KCAL/MOL
REMARK 923 INTER-LIGAND FREE ENERGY PREDICTED BY IDOCK:   -6.61 KCAL/MOL
REMARK 924 INTRA-LIGAND FREE ENERGY PREDICTED BY IDOCK:   -1.95 KCAL/MOL
REMARK 927      BINDING AFFINITY PREDICTED BY RF-SCORE:    0.00 PKD
ROOT
HETATM    1  C   UNL     1     -10.221   4.838  69.126  1.00  0.00    -0.124 C  
HETATM    2  C   UNL     1     -10.306   5.355  67.758  1.00  0.00    -0.226 C  
HETATM    3  C   UNL     1      -8.789   5.426  67.956  1.00  0.00    -0.105 C  
HETATM    4  C   UNL     1      -9.302   9.335  71.496  1.00  0.00    -0.052 C  
HETATM    5  C   UNL     1      -8.357   5.102  69.955  1.00  0.00    -0.089 C  
HETATM    6  C   UNL     1      -8.496   4.298  68.956  1.00  0.00    -0.099 C  
HETATM    7  C   UNL     1     -10.115   8.997  70.207  1.00  0.00    -0.232 C  
HETATM    8  C   UNL     1      -9.747  10.190  69.109  1.00  0.00    -0.225 C  
HETATM    9  C   UNL     1     -10.947  10.886  68.408  1.00  0.00    -0.237 C  
HETATM   10  C   UNL     1     -11.953  11.225  69.530  1.00  0.00    -0.351 C  
HETATM   11  C   UNL     1     -12.603   9.850  69.744  1.00  0.00     0.515 C  
HETATM   12  C   UNL     1      -8.112   2.841  68.718  1.00  0.00    -0.069 C  
HETATM   13  C   UNL     1      -7.218   5.801  69.175  1.00  0.00    -0.074 C  
HETATM   14  C   UNL     1     -11.635   9.031  70.662  1.00  0.00    -0.265 C  
HETATM   15  C   UNL     1     -12.253   7.711  71.115  1.00  0.00    -0.310 C  
HETATM   16  C   UNL     1      -7.998   7.291  69.877  1.00  0.00    -0.122 C  
HETATM   17  C   UNL     1     -12.004   6.556  70.174  1.00  0.00    -0.200 C  
HETATM   18  C   UNL     1      -9.617   7.543  69.685  1.00  0.00    -0.159 C  
HETATM   19  C   UNL     1     -10.505   6.260  70.103  1.00  0.00    -0.278 C  
ENDROOT
BRANCH   3  20
HETATM   20  N   UNL     1      -8.012   6.369  66.591  1.00  0.00    -0.107 N  
HETATM   21  C   UNL     1      -6.418   6.883  66.661  1.00  0.00    -0.047 C  
HETATM   22  C   UNL     1      -6.024   7.672  65.421  1.00  0.00    -0.038 C  
HETATM   23  C   UNL     1      -8.848   7.558  66.269  1.00  0.00    -0.160 C  
HETATM   24  C   UNL     1      -6.967   8.851  65.240  1.00  0.00    -0.076 C  
HETATM   25  C   UNL     1      -7.935   5.327  65.391  1.00  0.00    -0.108 C  
HETATM   26  C   UNL     1      -8.385   8.349  65.065  1.00  0.00    -0.169 C  
ENDBRANCH   3  20
BRANCH   5  27
HETATM   27  O   UNL     1      -7.237   4.040  70.571  1.00  0.00    -0.040 OA 
BRANCH  27  28
HETATM   28  C   UNL     1      -7.061   3.627  71.852  1.00  0.00    -0.045 C  
HETATM   29  C   UNL     1      -8.155   4.209  72.710  1.00  0.00    -0.092 C  
HETATM   30  O   UNL     1      -6.290   2.742  72.185  1.00  0.00    -0.013 OA 
ENDBRANCH  27  28
ENDBRANCH   5  27
BRANCH  10  31
HETATM   31  O   UNL     1     -11.635  11.679  70.862  1.00  0.00     0.122 OA 
BRANCH  31  32
HETATM   32  C   UNL     1     -12.574  12.603  71.342  1.00  0.00    -0.202 C  
HETATM   33  C   UNL     1     -12.452  13.870  70.569  1.00  0.00    -0.422 C  
HETATM   34  O   UNL     1     -13.408  12.366  72.207  1.00  0.00    -0.522 OA 
ENDBRANCH  31  32
ENDBRANCH  10  31
BRANCH   9  35
HETATM   35  N   UNL     1     -10.656  12.236  67.396  1.00  0.00    -0.219 N  
HETATM   36  C   UNL     1      -9.852  11.771  66.112  1.00  0.00    -0.229 C  
HETATM   37  C   UNL     1     -11.840  14.267  66.348  1.00  0.00    -0.427 C  
HETATM   38  C   UNL     1     -11.984  12.864  66.937  1.00  0.00    -0.335 C  
HETATM   39  C   UNL     1     -11.077  15.187  67.280  1.00  0.00    -0.332 C  
HETATM   40  C   UNL     1      -9.678  14.634  67.448  1.00  0.00    -0.218 C  
HETATM   41  C   UNL     1      -9.729  13.247  68.097  1.00  0.00    -0.227 C  
ENDBRANCH   9  35
TORSDOF 6
ENDMDL
MODEL       19
REMARK 921   NORMALIZED FREE ENERGY PREDICTED BY IDOCK:   -5.10 KCAL/MOL
REMARK 922        TOTAL FREE ENERGY PREDICTED BY IDOCK:   -8.48 KCAL/MOL
REMARK 923 INTER-LIGAND FREE ENERGY PREDICTED BY IDOCK:   -6.58 KCAL/MOL
REMARK 924 INTRA-LIGAND FREE ENERGY PREDICTED BY IDOCK:   -1.91 KCAL/MOL
REMARK 927      BINDING AFFINITY PREDICTED BY RF-SCORE:    0.00 PKD
ROOT
HETATM    1  C   UNL     1      -7.968  10.588  69.696  1.00  0.00    -0.076 C  
HETATM    2  C   UNL     1      -6.976   9.908  68.860  1.00  0.00    -0.062 C  
HETATM    3  C   UNL     1      -8.045  10.190  67.799  1.00  0.00    -0.109 C  
HETATM    4  C   UNL     1     -11.361   6.708  70.026  1.00  0.00    -0.440 C  
HETATM    5  C   UNL     1      -9.773  10.832  68.741  1.00  0.00    -0.192 C  
HETATM    6  C   UNL     1      -8.736  11.464  68.305  1.00  0.00    -0.160 C  
HETATM    7  C   UNL     1      -9.805   6.708  69.886  1.00  0.00    -0.180 C  
HETATM    8  C   UNL     1      -9.444   5.501  68.800  1.00  0.00    -0.163 C  
HETATM    9  C   UNL     1      -8.348   4.485  69.227  1.00  0.00    -0.078 C  
HETATM   10  C   UNL     1      -8.696   4.071  70.675  1.00  0.00    -0.076 C  
HETATM   11  C   UNL     1      -8.166   5.290  71.446  1.00  0.00    -0.116 C  
HETATM   12  C   UNL     1      -8.451  12.931  67.999  1.00  0.00    -0.178 C  
HETATM   13  C   UNL     1     -10.003  10.309  67.304  1.00  0.00    -0.233 C  
HETATM   14  C   UNL     1      -9.264   6.400  71.346  1.00  0.00    -0.150 C  
HETATM   15  C   UNL     1      -8.950   7.601  72.235  1.00  0.00    -0.177 C  
HETATM   16  C   UNL     1     -10.420   8.778  68.203  1.00  0.00    -0.243 C  
HETATM   17  C   UNL     1      -8.109   8.663  71.567  1.00  0.00    -0.188 C  
HETATM   18  C   UNL     1      -9.369   8.162  69.315  1.00  0.00    -0.151 C  
HETATM   19  C   UNL     1      -8.875   9.265  70.388  1.00  0.00    -0.271 C  
ENDROOT
BRANCH   3  20
HETATM   20  N   UNL     1      -7.663   9.282  66.254  1.00  0.00    -0.096 N  
HETATM   21  C   UNL     1      -8.738   9.225  64.969  1.00  0.00    -0.221 C  
HETATM   22  C   UNL     1      -8.201   8.382  63.822  1.00  0.00    -0.106 C  
HETATM   23  C   UNL     1      -7.288   7.879  66.582  1.00  0.00    -0.088 C  
HETATM   24  C   UNL     1      -7.875   6.983  64.319  1.00  0.00    -0.111 C  
HETATM   25  C   UNL     1      -6.466  10.104  65.604  1.00  0.00    -0.107 C  
HETATM   26  C   UNL     1      -6.818   7.058  65.400  1.00  0.00    -0.052 C  
ENDBRANCH   3  20
BRANCH   5  27
HETATM   27  O   UNL     1     -10.673  12.176  68.359  1.00  0.00    -0.211 OA 
BRANCH  27  28
HETATM   28  C   UNL     1     -11.766  12.682  68.984  1.00  0.00    -0.318 C  
HETATM   29  C   UNL     1     -12.047  11.866  70.220  1.00  0.00    -0.409 C  
HETATM   30  O   UNL     1     -12.274  13.757  68.712  1.00  0.00    -0.350 OA 
ENDBRANCH  27  28
ENDBRANCH   5  27
BRANCH  10  31
HETATM   31  O   UNL     1     -10.016   3.857  71.214  1.00  0.00    -0.179 OA 
BRANCH  31  32
HETATM   32  C   UNL     1      -9.986   3.114  72.402  1.00  0.00    -0.164 C  
HETATM   33  C   UNL     1     -11.003   3.656  73.345  1.00  0.00    -0.312 C  
HETATM   34  O   UNL     1      -9.285   2.127  72.591  1.00  0.00    -0.076 OA 
ENDBRANCH  31  32
ENDBRANCH  10  31
BRANCH   9  35
HETATM   35  N   UNL     1      -8.044   3.120  68.240  1.00  0.00    -0.068 N  
HETATM   36  C   UNL     1      -7.726   1.865  69.155  1.00  0.00    -0.042 C  
HETATM   37  C   UNL     1      -8.986   1.842  66.214  1.00  0.00    -0.099 C  
HETATM   38  C   UNL     1      -9.274   2.793  67.376  1.00  0.00    -0.174 C  
HETATM   39  C   UNL     1      -7.823   2.328  65.372  1.00  0.00    -0.077 C  
HETATM   40  C   UNL     1      -6.585   2.347  66.244  1.00  0.00    -0.031 C  
HETATM   41  C   UNL     1      -6.767   3.331  67.404  1.00  0.00    -0.045 C  
ENDBRANCH   9  35
TORSDOF 6
ENDMDL
MODEL       20
REMARK 921   NORMALIZED FREE ENERGY PREDICTED BY IDOCK:   -4.98 KCAL/MOL
REMARK 922        TOTAL FREE ENERGY PREDICTED BY IDOCK:   -8.32 KCAL/MOL
REMARK 923 INTER-LIGAND FREE ENERGY PREDICTED BY IDOCK:   -6.56 KCAL/MOL
REMARK 924 INTRA-LIGAND FREE ENERGY PREDICTED BY IDOCK:   -1.75 KCAL/MOL
REMARK 927      BINDING AFFINITY PREDICTED BY RF-SCORE:    0.00 PKD
ROOT
HETATM    1  C   UNL     1      -8.163  10.916  68.923  1.00  0.00    -0.141 C  
HETATM    2  C   UNL     1      -7.129  10.221  68.154  1.00  0.00    -0.082 C  
HETATM    3  C   UNL     1      -8.201  10.353  67.067  1.00  0.00    -0.123 C  
HETATM    4  C   UNL     1     -11.346   6.899  69.568  1.00  0.00    -0.218 C  
HETATM    5  C   UNL     1      -9.970  10.978  67.942  1.00  0.00    -0.174 C  
HETATM    6  C   UNL     1      -8.964  11.626  67.458  1.00  0.00    -0.165 C  
HETATM    7  C   UNL     1      -9.791   6.971  69.437  1.00  0.00    -0.160 C  
HETATM    8  C   UNL     1      -9.355   5.697  68.460  1.00  0.00    -0.139 C  
HETATM    9  C   UNL     1      -8.211   4.783  68.979  1.00  0.00    -0.081 C  
HETATM   10  C   UNL     1      -8.549   4.476  70.455  1.00  0.00    -0.078 C  
HETATM   11  C   UNL     1      -8.093   5.783  71.120  1.00  0.00    -0.117 C  
HETATM   12  C   UNL     1      -8.756  13.074  67.029  1.00  0.00    -0.195 C  
HETATM   13  C   UNL     1     -10.158  10.322  66.554  1.00  0.00    -0.290 C  
HETATM   14  C   UNL     1      -9.249   6.820  70.920  1.00  0.00    -0.157 C  
HETATM   15  C   UNL     1      -9.008   8.107  71.705  1.00  0.00    -0.212 C  
HETATM   16  C   UNL     1     -10.501   8.854  67.579  1.00  0.00    -0.337 C  
HETATM   17  C   UNL     1      -8.219   9.153  70.952  1.00  0.00    -0.220 C  
HETATM   18  C   UNL     1      -9.428   8.393  68.744  1.00  0.00    -0.147 C  
HETATM   19  C   UNL     1      -9.005   9.609  69.722  1.00  0.00    -0.226 C  
ENDROOT
BRANCH   3  20
HETATM   20  N   UNL     1      -7.756   9.338  65.607  1.00  0.00    -0.094 N  
HETATM   21  C   UNL     1      -8.720   9.282  64.238  1.00  0.00    -0.204 C  
HETATM   22  C   UNL     1      -8.150   8.344  63.184  1.00  0.00    -0.159 C  
HETATM   23  C   UNL     1      -7.511   7.933  66.035  1.00  0.00    -0.078 C  
HETATM   24  C   UNL     1      -7.967   6.956  63.776  1.00  0.00    -0.064 C  
HETATM   25  C   UNL     1      -6.453  10.041  65.025  1.00  0.00    -0.117 C  
HETATM   26  C   UNL     1      -7.002   7.020  64.941  1.00  0.00    -0.051 C  
ENDBRANCH   3  20
BRANCH   5  27
HETATM   27  O   UNL     1     -10.938  12.234  67.441  1.00  0.00    -0.233 OA 
BRANCH  27  28
HETATM   28  C   UNL     1     -11.821  12.974  68.157  1.00  0.00    -0.340 C  
HETATM   29  C   UNL     1     -11.896  12.427  69.560  1.00  0.00    -0.368 C  
HETATM   30  O   UNL     1     -12.282  14.040  67.784  1.00  0.00    -0.334 OA 
ENDBRANCH  27  28
ENDBRANCH   5  27
BRANCH  10  31
HETATM   31  O   UNL     1      -9.862   4.238  71.003  1.00  0.00    -0.178 OA 
BRANCH  31  32
HETATM   32  C   UNL     1      -9.837   3.284  72.031  1.00  0.00    -0.170 C  
HETATM   33  C   UNL     1      -9.642   1.932  71.438  1.00  0.00    -0.213 C  
HETATM   34  O   UNL     1      -9.890   3.543  73.227  1.00  0.00    -0.111 OA 
ENDBRANCH  31  32
ENDBRANCH  10  31
BRANCH   9  35
HETATM   35  N   UNL     1      -7.824   3.357  68.114  1.00  0.00    -0.063 N  
HETATM   36  C   UNL     1      -6.893   2.434  69.005  1.00  0.00    -0.033 C  
HETATM   37  C   UNL     1      -8.903   1.498  66.698  1.00  0.00    -0.123 C  
HETATM   38  C   UNL     1      -9.101   2.571  67.768  1.00  0.00    -0.187 C  
HETATM   39  C   UNL     1      -8.241   2.064  65.458  1.00  0.00    -0.087 C  
HETATM   40  C   UNL     1      -6.864   2.561  65.844  1.00  0.00    -0.040 C  
HETATM   41  C   UNL     1      -6.975   3.691  66.872  1.00  0.00    -0.055 C  
ENDBRANCH   9  35
TORSDOF 6
ENDMDL
MODEL       21
REMARK 921   NORMALIZED FREE ENERGY PREDICTED BY IDOCK:   -4.86 KCAL/MOL
REMARK 922        TOTAL FREE ENERGY PREDICTED BY IDOCK:   -8.15 KCAL/MOL
REMARK 923 INTER-LIGAND FREE ENERGY PREDICTED BY IDOCK:   -6.31 KCAL/MOL
REMARK 924 INTRA-LIGAND FREE ENERGY PREDICTED BY IDOCK:   -1.84 KCAL/MOL
REMARK 927      BINDING AFFINITY PREDICTED BY RF-SCORE:    0.00 PKD
ROOT
HETATM    1  C   UNL     1     -10.553   5.489  71.013  1.00  0.00    -0.300 C  
HETATM    2  C   UNL     1     -10.680   5.132  69.598  1.00  0.00    -0.005 C  
HETATM    3  C   UNL     1      -9.232   4.693  69.837  1.00  0.00    -0.125 C  
HETATM    4  C   UNL     1      -7.661   9.723  70.388  1.00  0.00    -0.159 C  
HETATM    5  C   UNL     1      -8.608   5.408  71.677  1.00  0.00    -0.131 C  
HETATM    6  C   UNL     1      -9.202   4.318  71.325  1.00  0.00    -0.197 C  
HETATM    7  C   UNL     1      -8.752   9.077  69.477  1.00  0.00    -0.144 C  
HETATM    8  C   UNL     1      -8.170   9.182  67.922  1.00  0.00    -0.112 C  
HETATM    9  C   UNL     1      -9.136   9.770  66.856  1.00  0.00    -0.142 C  
HETATM   10  C   UNL     1      -9.738  11.045  67.488  1.00  0.00    -0.172 C  
HETATM   11  C   UNL     1     -10.797  10.423  68.410  1.00  0.00    -0.289 C  
HETATM   12  C   UNL     1      -9.423   2.974  72.011  1.00  0.00    -0.204 C  
HETATM   13  C   UNL     1      -7.446   5.027  70.729  1.00  0.00    -0.069 C  
HETATM   14  C   UNL     1     -10.051   9.959  69.706  1.00  0.00    -0.274 C  
HETATM   15  C   UNL     1     -11.019   9.498  70.792  1.00  0.00    -0.389 C  
HETATM   16  C   UNL     1      -7.495   6.814  70.369  1.00  0.00    -0.087 C  
HETATM   17  C   UNL     1     -11.376   8.032  70.722  1.00  0.00    -0.282 C  
HETATM   18  C   UNL     1      -8.917   7.530  69.939  1.00  0.00    -0.141 C  
HETATM   19  C   UNL     1     -10.125   7.183  70.954  1.00  0.00    -0.200 C  
ENDROOT
BRANCH   3  20
HETATM   20  N   UNL     1      -8.413   4.305  68.244  1.00  0.00    -0.092 N  
HETATM   21  C   UNL     1      -6.761   4.043  68.135  1.00  0.00    -0.047 C  
HETATM   22  C   UNL     1      -6.326   3.774  66.702  1.00  0.00    -0.036 C  
HETATM   23  C   UNL     1      -8.766   5.344  67.238  1.00  0.00    -0.107 C  
HETATM   24  C   UNL     1      -6.753   4.927  65.809  1.00  0.00    -0.056 C  
HETATM   25  C   UNL     1      -8.968   2.864  67.861  1.00  0.00    -0.155 C  
HETATM   26  C   UNL     1      -8.261   5.066  65.839  1.00  0.00    -0.114 C  
ENDBRANCH   3  20
BRANCH   5  27
HETATM   27  O   UNL     1      -7.864   4.537  72.883  1.00  0.00    -0.085 OA 
BRANCH  27  28
HETATM   28  C   UNL     1      -6.912   4.935  73.764  1.00  0.00    -0.076 C  
HETATM   29  C   UNL     1      -5.962   3.791  74.009  1.00  0.00    -0.011 C  
HETATM   30  O   UNL     1      -6.733   6.093  74.101  1.00  0.00    -0.074 OA 
ENDBRANCH  27  28
ENDBRANCH   5  27
BRANCH  10  31
HETATM   31  O   UNL     1      -9.051  11.996  68.327  1.00  0.00    -0.188 OA 
BRANCH  31  32
HETATM   32  C   UNL     1      -9.118  13.298  67.812  1.00  0.00    -0.202 C  
HETATM   33  C   UNL     1     -10.127  14.077  68.582  1.00  0.00    -0.217 C  
HETATM   34  O   UNL     1      -8.399  13.736  66.922  1.00  0.00    -0.139 OA 
ENDBRANCH  31  32
ENDBRANCH  10  31
BRANCH   9  35
HETATM   35  N   UNL     1      -8.552  10.069  65.275  1.00  0.00    -0.146 N  
HETATM   36  C   UNL     1      -7.101  10.702  65.357  1.00  0.00    -0.011 C  
HETATM   37  C   UNL     1      -8.315   8.956  62.966  1.00  0.00    -0.190 C  
HETATM   38  C   UNL     1      -8.466   8.757  64.474  1.00  0.00    -0.140 C  
HETATM   39  C   UNL     1      -9.384   9.878  62.415  1.00  0.00    -0.270 C  
HETATM   40  C   UNL     1      -9.210  11.238  63.059  1.00  0.00    -0.310 C  
HETATM   41  C   UNL     1      -9.411  11.139  64.574  1.00  0.00    -0.223 C  
ENDBRANCH   9  35
TORSDOF 6
ENDMDL
MODEL       22
REMARK 921   NORMALIZED FREE ENERGY PREDICTED BY IDOCK:   -4.82 KCAL/MOL
REMARK 922        TOTAL FREE ENERGY PREDICTED BY IDOCK:   -8.10 KCAL/MOL
REMARK 923 INTER-LIGAND FREE ENERGY PREDICTED BY IDOCK:   -6.98 KCAL/MOL
REMARK 924 INTRA-LIGAND FREE ENERGY PREDICTED BY IDOCK:   -1.12 KCAL/MOL
REMARK 927      BINDING AFFINITY PREDICTED BY RF-SCORE:    0.00 PKD
ROOT
HETATM    1  C   UNL     1      -6.548  10.672  67.094  1.00  0.00    -0.076 C  
HETATM    2  C   UNL     1      -6.847  10.372  68.496  1.00  0.00    -0.061 C  
HETATM    3  C   UNL     1      -7.824   9.405  67.821  1.00  0.00    -0.095 C  
HETATM    4  C   UNL     1     -10.797  13.425  66.066  1.00  0.00    -0.281 C  
HETATM    5  C   UNL     1      -7.917   9.845  65.800  1.00  0.00    -0.120 C  
HETATM    6  C   UNL     1      -7.145   9.070  66.485  1.00  0.00    -0.081 C  
HETATM    7  C   UNL     1      -9.980  13.244  67.385  1.00  0.00    -0.233 C  
HETATM    8  C   UNL     1     -11.104  13.090  68.601  1.00  0.00    -0.305 C  
HETATM    9  C   UNL     1     -10.906  13.993  69.850  1.00  0.00     0.199 C  
HETATM   10  C   UNL     1     -10.624  15.412  69.306  1.00  0.00    -0.252 C  
HETATM   11  C   UNL     1      -9.145  15.268  68.914  1.00  0.00    -0.209 C  
HETATM   12  C   UNL     1      -6.203   7.931  66.114  1.00  0.00    -0.045 C  
HETATM   13  C   UNL     1      -9.123   9.026  66.316  1.00  0.00    -0.224 C  
HETATM   14  C   UNL     1      -9.115  14.568  67.514  1.00  0.00    -0.193 C  
HETATM   15  C   UNL     1      -7.711  14.540  66.916  1.00  0.00     0.223 C  
HETATM   16  C   UNL     1      -9.876  10.683  66.422  1.00  0.00    -0.259 C  
HETATM   17  C   UNL     1      -6.896  13.330  67.308  1.00  0.00     0.034 C  
HETATM   18  C   UNL     1      -9.096  11.893  67.227  1.00  0.00    -0.178 C  
HETATM   19  C   UNL     1      -7.557  12.062  66.765  1.00  0.00     0.008 C  
ENDROOT
BRANCH   3  20
HETATM   20  N   UNL     1      -8.982   8.703  69.056  1.00  0.00    -0.141 N  
HETATM   21  C   UNL     1     -10.235   7.681  68.618  1.00  0.00    -0.214 C  
HETATM   22  C   UNL     1     -11.070   7.264  69.820  1.00  0.00    -0.203 C  
HETATM   23  C   UNL     1      -9.570   9.805  69.867  1.00  0.00    -0.235 C  
HETATM   24  C   UNL     1     -11.601   8.499  70.531  1.00  0.00    -0.145 C  
HETATM   25  C   UNL     1      -8.081   7.716  69.919  1.00  0.00    -0.124 C  
HETATM   26  C   UNL     1     -10.443   9.347  71.015  1.00  0.00    -0.392 C  
ENDBRANCH   3  20
BRANCH   5  27
HETATM   27  O   UNL     1      -7.769   8.771  64.540  1.00  0.00    -0.109 OA 
BRANCH  27  28
HETATM   28  C   UNL     1      -7.797   9.007  63.204  1.00  0.00    -0.133 C  
HETATM   29  C   UNL     1      -7.126  10.328  62.925  1.00  0.00    -0.127 C  
HETATM   30  O   UNL     1      -8.099   8.172  62.368  1.00  0.00    -0.152 OA 
ENDBRANCH  27  28
ENDBRANCH   5  27
BRANCH  10  31
HETATM   31  O   UNL     1     -11.238  16.029  68.156  1.00  0.00    -0.343 OA 
BRANCH  31  32
HETATM   32  C   UNL     1     -10.823  17.358  67.988  1.00  0.00    -0.281 C  
HETATM   33  C   UNL     1     -10.644  17.987  69.326  1.00  0.00     0.336 C  
HETATM   34  O   UNL     1     -10.576  17.881  66.909  1.00  0.00    -0.338 OA 
ENDBRANCH  31  32
ENDBRANCH  10  31
BRANCH   9  35
HETATM   35  N   UNL     1     -12.112  14.016  71.064  1.00  0.00    -0.335 N  
HETATM   36  C   UNL     1     -12.565  12.532  71.389  1.00  0.00    -0.194 C  
HETATM   37  C   UNL     1     -12.650  15.051  73.359  1.00  0.00    -0.641 C  
HETATM   38  C   UNL     1     -11.568  14.651  72.356  1.00  0.00     0.217 C  
HETATM   39  C   UNL     1     -13.714  15.917  72.715  1.00  0.00    -0.571 C  
HETATM   40  C   UNL     1     -14.394  15.102  71.635  1.00  0.00    -0.685 C  
HETATM   41  C   UNL     1     -13.387  14.713  70.549  1.00  0.00    -0.021 C  
ENDBRANCH   9  35
TORSDOF 6
ENDMDL
MODEL       23
REMARK 921   NORMALIZED FREE ENERGY PREDICTED BY IDOCK:   -4.60 KCAL/MOL
REMARK 922        TOTAL FREE ENERGY PREDICTED BY IDOCK:   -7.80 KCAL/MOL
REMARK 923 INTER-LIGAND FREE ENERGY PREDICTED BY IDOCK:   -6.30 KCAL/MOL
REMARK 924 INTRA-LIGAND FREE ENERGY PREDICTED BY IDOCK:   -1.50 KCAL/MOL
REMARK 927      BINDING AFFINITY PREDICTED BY RF-SCORE:    0.00 PKD
ROOT
HETATM    1  C   UNL     1      -6.630  10.381  65.638  1.00  0.00    -0.129 C  
HETATM    2  C   UNL     1      -6.094   9.020  65.693  1.00  0.00    -0.055 C  
HETATM    3  C   UNL     1      -7.408   8.740  64.958  1.00  0.00    -0.089 C  
HETATM    4  C   UNL     1     -10.226   9.843  69.307  1.00  0.00    -0.222 C  
HETATM    5  C   UNL     1      -8.599  10.432  65.043  1.00  0.00    -0.181 C  
HETATM    6  C   UNL     1      -7.694  10.048  64.206  1.00  0.00    -0.141 C  
HETATM    7  C   UNL     1      -8.830   9.168  69.126  1.00  0.00    -0.146 C  
HETATM    8  C   UNL     1      -9.039   7.568  69.531  1.00  0.00    -0.143 C  
HETATM    9  C   UNL     1      -8.022   6.966  70.539  1.00  0.00    -0.114 C  
HETATM   10  C   UNL     1      -7.909   7.992  71.689  1.00  0.00    -0.103 C  
HETATM   11  C   UNL     1      -6.977   9.029  71.044  1.00  0.00    -0.097 C  
HETATM   12  C   UNL     1      -7.323  10.476  62.790  1.00  0.00    -0.090 C  
HETATM   13  C   UNL     1      -9.379   9.135  64.725  1.00  0.00     0.021 C  
HETATM   14  C   UNL     1      -7.872   9.934  70.132  1.00  0.00    -0.186 C  
HETATM   15  C   UNL     1      -7.103  11.132  69.582  1.00  0.00    -0.050 C  
HETATM   16  C   UNL     1      -9.679   9.179  66.522  1.00  0.00    -0.306 C  
HETATM   17  C   UNL     1      -6.398  10.867  68.272  1.00  0.00    -0.056 C  
HETATM   18  C   UNL     1      -8.411   9.329  67.567  1.00  0.00    -0.119 C  
HETATM   19  C   UNL     1      -7.427  10.553  67.185  1.00  0.00    -0.097 C  
ENDROOT
BRANCH   3  20
HETATM   20  N   UNL     1      -7.713   6.935  64.863  1.00  0.00    -0.106 N  
HETATM   21  C   UNL     1      -9.089   6.232  65.510  1.00  0.00     0.084 C  
HETATM   22  C   UNL     1      -9.089   4.721  65.331  1.00  0.00    -0.154 C  
HETATM   23  C   UNL     1      -6.540   6.203  65.413  1.00  0.00    -0.043 C  
HETATM   24  C   UNL     1      -7.834   4.129  65.951  1.00  0.00    -0.094 C  
HETATM   25  C   UNL     1      -7.940   6.659  63.312  1.00  0.00    -0.076 C  
HETATM   26  C   UNL     1      -6.609   4.699  65.267  1.00  0.00    -0.047 C  
ENDBRANCH   3  20
BRANCH   5  27
HETATM   27  O   UNL     1      -9.372  11.169  63.769  1.00  0.00    -0.214 OA 
BRANCH  27  28
HETATM   28  C   UNL     1     -10.259  12.196  63.784  1.00  0.00    -0.424 C  
HETATM   29  C   UNL     1     -11.650  11.646  63.598  1.00  0.00    -0.435 C  
HETATM   30  O   UNL     1      -9.984  13.332  64.131  1.00  0.00    -0.294 OA 
ENDBRANCH  27  28
ENDBRANCH   5  27
BRANCH  10  31
HETATM   31  O   UNL     1      -8.981   8.777  72.249  1.00  0.00    -0.360 OA 
BRANCH  31  32
HETATM   32  C   UNL     1      -9.791   8.023  73.111  1.00  0.00    -0.262 C  
HETATM   33  C   UNL     1     -11.197   8.063  72.619  1.00  0.00    -0.462 C  
HETATM   34  O   UNL     1      -9.382   7.376  74.067  1.00  0.00    -0.250 OA 
ENDBRANCH  31  32
ENDBRANCH  10  31
BRANCH   9  35
HETATM   35  N   UNL     1      -8.273   5.381  71.134  1.00  0.00    -0.117 N  
HETATM   36  C   UNL     1      -7.715   4.328  70.088  1.00  0.00    -0.052 C  
HETATM   37  C   UNL     1      -7.984   3.949  73.254  1.00  0.00    -0.088 C  
HETATM   38  C   UNL     1      -7.532   5.180  72.468  1.00  0.00    -0.095 C  
HETATM   39  C   UNL     1      -9.488   3.928  73.439  1.00  0.00    -0.127 C  
HETATM   40  C   UNL     1     -10.131   3.838  72.071  1.00  0.00    -0.209 C  
HETATM   41  C   UNL     1      -9.779   5.074  71.236  1.00  0.00    -0.173 C  
ENDBRANCH   9  35
TORSDOF 6
ENDMDL
MODEL       24
REMARK 921   NORMALIZED FREE ENERGY PREDICTED BY IDOCK:   -4.58 KCAL/MOL
REMARK 922        TOTAL FREE ENERGY PREDICTED BY IDOCK:   -7.78 KCAL/MOL
REMARK 923 INTER-LIGAND FREE ENERGY PREDICTED BY IDOCK:   -5.98 KCAL/MOL
REMARK 924 INTRA-LIGAND FREE ENERGY PREDICTED BY IDOCK:   -1.80 KCAL/MOL
REMARK 927      BINDING AFFINITY PREDICTED BY RF-SCORE:    0.00 PKD
ROOT
HETATM    1  C   UNL     1      -9.923  10.805  66.645  1.00  0.00    -0.251 C  
HETATM    2  C   UNL     1     -10.885   9.894  67.269  1.00  0.00    -0.268 C  
HETATM    3  C   UNL     1     -10.132  10.358  68.520  1.00  0.00    -0.171 C  
HETATM    4  C   UNL     1      -5.764   7.765  67.013  1.00  0.00    -0.032 C  
HETATM    5  C   UNL     1      -8.437  11.395  67.939  1.00  0.00    -0.139 C  
HETATM    6  C   UNL     1      -9.652  11.770  68.158  1.00  0.00    -0.193 C  
HETATM    7  C   UNL     1      -7.278   7.423  66.840  1.00  0.00    -0.088 C  
HETATM    8  C   UNL     1      -7.571   6.125  67.837  1.00  0.00    -0.101 C  
HETATM    9  C   UNL     1      -8.312   4.914  67.205  1.00  0.00    -0.106 C  
HETATM   10  C   UNL     1      -7.607   4.643  65.857  1.00  0.00    -0.090 C  
HETATM   11  C   UNL     1      -8.230   5.748  64.991  1.00  0.00    -0.137 C  
HETATM   12  C   UNL     1     -10.306  13.127  68.394  1.00  0.00    -0.257 C  
HETATM   13  C   UNL     1      -8.383  10.877  69.395  1.00  0.00     0.051 C  
HETATM   14  C   UNL     1      -7.443   7.065  65.303  1.00  0.00    -0.092 C  
HETATM   15  C   UNL     1      -7.833   8.203  64.364  1.00  0.00    -0.136 C  
HETATM   16  C   UNL     1      -7.473   9.509  68.604  1.00  0.00    -0.079 C  
HETATM   17  C   UNL     1      -9.001   9.032  64.847  1.00  0.00    -0.170 C  
HETATM   18  C   UNL     1      -8.126   8.726  67.307  1.00  0.00    -0.101 C  
HETATM   19  C   UNL     1      -8.630   9.737  66.153  1.00  0.00    -0.138 C  
ENDROOT
BRANCH   3  20
HETATM   20  N   UNL     1     -10.599   9.328  69.962  1.00  0.00    -0.216 N  
HETATM   21  C   UNL     1      -9.630   9.215  71.324  1.00  0.00    -0.331 C  
HETATM   22  C   UNL     1     -10.222   8.274  72.363  1.00  0.00    -0.397 C  
HETATM   23  C   UNL     1     -10.891   7.940  69.509  1.00  0.00    -0.136 C  
HETATM   24  C   UNL     1     -10.451   6.904  71.745  1.00  0.00    -0.224 C  
HETATM   25  C   UNL     1     -11.876  10.060  70.567  1.00  0.00    -0.303 C  
HETATM   26  C   UNL     1     -11.421   7.021  70.588  1.00  0.00    -0.367 C  
ENDBRANCH   3  20
BRANCH   5  27
HETATM   27  O   UNL     1      -7.946  12.885  68.487  1.00  0.00    -0.144 OA 
BRANCH  27  28
HETATM   28  C   UNL     1      -6.785  13.546  68.250  1.00  0.00    -0.107 C  
HETATM   29  C   UNL     1      -6.391  14.307  69.489  1.00  0.00    -0.127 C  
HETATM   30  O   UNL     1      -6.074  13.351  67.278  1.00  0.00    -0.330 OA 
ENDBRANCH  27  28
ENDBRANCH   5  27
BRANCH  10  31
HETATM   31  O   UNL     1      -6.192   4.741  65.593  1.00  0.00    -0.032 OA 
BRANCH  31  32
HETATM   32  C   UNL     1      -5.777   3.837  64.604  1.00  0.00    -0.014 C  
HETATM   33  C   UNL     1      -6.191   2.461  64.996  1.00  0.00    -0.019 C  
HETATM   34  O   UNL     1      -5.232   4.152  63.554  1.00  0.00    -0.008 OA 
ENDBRANCH  31  32
ENDBRANCH  10  31
BRANCH   9  35
HETATM   35  N   UNL     1      -8.496   3.478  68.117  1.00  0.00    -0.086 N  
HETATM   36  C   UNL     1      -9.226   2.381  67.235  1.00  0.00    -0.117 C  
HETATM   37  C   UNL     1      -7.187   1.876  69.649  1.00  0.00    -0.036 C  
HETATM   38  C   UNL     1      -7.123   2.926  68.541  1.00  0.00    -0.049 C  
HETATM   39  C   UNL     1      -7.984   2.371  70.840  1.00  0.00    -0.055 C  
HETATM   40  C   UNL     1      -9.407   2.620  70.385  1.00  0.00    -0.212 C  
HETATM   41  C   UNL     1      -9.439   3.713  69.313  1.00  0.00    -0.174 C  
ENDBRANCH   9  35
TORSDOF 6
ENDMDL
MODEL       25
REMARK 921   NORMALIZED FREE ENERGY PREDICTED BY IDOCK:   -4.56 KCAL/MOL
REMARK 922        TOTAL FREE ENERGY PREDICTED BY IDOCK:   -7.75 KCAL/MOL
REMARK 923 INTER-LIGAND FREE ENERGY PREDICTED BY IDOCK:   -7.49 KCAL/MOL
REMARK 924 INTRA-LIGAND FREE ENERGY PREDICTED BY IDOCK:   -0.25 KCAL/MOL
REMARK 927      BINDING AFFINITY PREDICTED BY RF-SCORE:    0.00 PKD
ROOT
HETATM    1  C   UNL     1      -8.036   6.819  71.143  1.00  0.00    -0.111 C  
HETATM    2  C   UNL     1      -8.634   8.134  71.387  1.00  0.00    -0.168 C  
HETATM    3  C   UNL     1      -9.912   7.311  71.194  1.00  0.00    -0.186 C  
HETATM    4  C   UNL     1      -8.855   6.637  66.046  1.00  0.00    -0.151 C  
HETATM    5  C   UNL     1      -9.404   5.444  70.457  1.00  0.00    -0.157 C  
HETATM    6  C   UNL     1      -9.516   5.903  71.658  1.00  0.00    -0.166 C  
HETATM    7  C   UNL     1      -8.590   7.841  67.004  1.00  0.00    -0.129 C  
HETATM    8  C   UNL     1      -9.626   9.048  66.519  1.00  0.00    -0.286 C  
HETATM    9  C   UNL     1      -9.002  10.454  66.298  1.00  0.00    -0.155 C  
HETATM   10  C   UNL     1      -7.725  10.222  65.460  1.00  0.00    -0.149 C  
HETATM   11  C   UNL     1      -6.762   9.734  66.554  1.00  0.00    -0.079 C  
HETATM   12  C   UNL     1      -9.637   5.242  73.027  1.00  0.00    -0.156 C  
HETATM   13  C   UNL     1     -10.885   5.827  70.222  1.00  0.00    -0.373 C  
HETATM   14  C   UNL     1      -7.065   8.215  66.778  1.00  0.00    -0.077 C  
HETATM   15  C   UNL     1      -6.045   7.556  67.703  1.00  0.00    -0.047 C  
HETATM   16  C   UNL     1     -10.230   6.333  68.598  1.00  0.00    -0.211 C  
HETATM   17  C   UNL     1      -6.400   7.631  69.169  1.00  0.00    -0.036 C  
HETATM   18  C   UNL     1      -8.930   7.345  68.512  1.00  0.00    -0.128 C  
HETATM   19  C   UNL     1      -7.693   6.855  69.429  1.00  0.00    -0.105 C  
ENDROOT
BRANCH   3  20
HETATM   20  N   UNL     1     -11.366   8.418  71.050  1.00  0.00    -0.262 N  
HETATM   21  C   UNL     1     -11.361   9.766  70.055  1.00  0.00    -0.269 C  
HETATM   22  C   UNL     1     -12.671  10.535  70.140  1.00  0.00    -0.191 C  
HETATM   23  C   UNL     1     -11.783   8.869  72.407  1.00  0.00    -0.196 C  
HETATM   24  C   UNL     1     -12.946  10.926  71.582  1.00  0.00    -0.569 C  
HETATM   25  C   UNL     1     -12.468   7.523  70.332  1.00  0.00     0.328 C  
HETATM   26  C   UNL     1     -13.059   9.682  72.437  1.00  0.00    -0.389 C  
ENDBRANCH   3  20
BRANCH   5  27
HETATM   27  O   UNL     1      -9.912   3.973  71.040  1.00  0.00    -0.179 OA 
BRANCH  27  28
HETATM   28  C   UNL     1      -9.638   2.727  70.578  1.00  0.00    -0.088 C  
HETATM   29  C   UNL     1      -8.809   2.839  69.325  1.00  0.00    -0.152 C  
HETATM   30  O   UNL     1      -9.832   1.704  71.214  1.00  0.00    -0.138 OA 
ENDBRANCH  27  28
ENDBRANCH   5  27
BRANCH  10  31
HETATM   31  O   UNL     1      -7.559   9.268  64.391  1.00  0.00    -0.108 OA 
BRANCH  31  32
HETATM   32  C   UNL     1      -6.657   9.720  63.417  1.00  0.00    -0.116 C  
HETATM   33  C   UNL     1      -5.622   8.675  63.186  1.00  0.00    -0.073 C  
HETATM   34  O   UNL     1      -6.761  10.776  62.805  1.00  0.00    -0.071 OA 
ENDBRANCH  31  32
ENDBRANCH  10  31
BRANCH   9  35
HETATM   35  N   UNL     1      -9.969  11.701  65.635  1.00  0.00    -0.231 N  
HETATM   36  C   UNL     1      -9.288  13.105  65.918  1.00  0.00     0.081 C  
HETATM   37  C   UNL     1     -11.232  12.355  63.490  1.00  0.00    -0.540 C  
HETATM   38  C   UNL     1     -10.109  11.527  64.112  1.00  0.00    -0.307 C  
HETATM   39  C   UNL     1     -12.551  12.131  64.203  1.00  0.00    -0.466 C  
HETATM   40  C   UNL     1     -12.399  12.600  65.635  1.00  0.00    -0.390 C  
HETATM   41  C   UNL     1     -11.330  11.771  66.355  1.00  0.00    -0.297 C  
ENDBRANCH   9  35
TORSDOF 6
ENDMDL
MODEL       26
REMARK 921   NORMALIZED FREE ENERGY PREDICTED BY IDOCK:   -4.31 KCAL/MOL
REMARK 922        TOTAL FREE ENERGY PREDICTED BY IDOCK:   -7.42 KCAL/MOL
REMARK 923 INTER-LIGAND FREE ENERGY PREDICTED BY IDOCK:   -5.49 KCAL/MOL
REMARK 924 INTRA-LIGAND FREE ENERGY PREDICTED BY IDOCK:   -1.93 KCAL/MOL
REMARK 927      BINDING AFFINITY PREDICTED BY RF-SCORE:    0.00 PKD
ROOT
HETATM    1  C   UNL     1      -9.043   5.501  71.780  1.00  0.00    -0.151 C  
HETATM    2  C   UNL     1      -7.683   5.933  71.449  1.00  0.00    -0.107 C  
HETATM    3  C   UNL     1      -8.380   7.297  71.465  1.00  0.00    -0.109 C  
HETATM    4  C   UNL     1     -11.107   6.099  67.083  1.00  0.00    -0.335 C  
HETATM    5  C   UNL     1     -10.428   7.003  71.544  1.00  0.00    -0.204 C  
HETATM    6  C   UNL     1      -9.530   7.110  72.464  1.00  0.00    -0.167 C  
HETATM    7  C   UNL     1      -9.659   5.724  67.532  1.00  0.00    -0.118 C  
HETATM    8  C   UNL     1      -8.636   6.571  66.530  1.00  0.00    -0.123 C  
HETATM    9  C   UNL     1      -7.499   5.759  65.850  1.00  0.00    -0.078 C  
HETATM   10  C   UNL     1      -8.167   4.485  65.286  1.00  0.00    -0.112 C  
HETATM   11  C   UNL     1      -8.287   3.646  66.568  1.00  0.00    -0.104 C  
HETATM   12  C   UNL     1      -9.591   7.380  73.964  1.00  0.00    -0.244 C  
HETATM   13  C   UNL     1     -10.018   8.409  71.044  1.00  0.00    -0.235 C  
HETATM   14  C   UNL     1      -9.560   4.155  67.323  1.00  0.00    -0.228 C  
HETATM   15  C   UNL     1      -9.908   3.273  68.520  1.00  0.00     0.192 C  
HETATM   16  C   UNL     1     -10.253   7.619  69.418  1.00  0.00    -0.206 C  
HETATM   17  C   UNL     1      -9.233   3.684  69.808  1.00  0.00    -0.217 C  
HETATM   18  C   UNL     1      -9.492   6.195  69.076  1.00  0.00    -0.138 C  
HETATM   19  C   UNL     1      -9.711   5.077  70.221  1.00  0.00    -0.285 C  
ENDROOT
BRANCH   3  20
HETATM   20  N   UNL     1      -7.274   8.586  70.777  1.00  0.00    -0.054 N  
HETATM   21  C   UNL     1      -7.862  10.046  70.201  1.00  0.00    -0.141 C  
HETATM   22  C   UNL     1      -6.749  10.927  69.654  1.00  0.00    -0.131 C  
HETATM   23  C   UNL     1      -6.429   7.994  69.704  1.00  0.00    -0.037 C  
HETATM   24  C   UNL     1      -5.990  10.181  68.568  1.00  0.00    -0.041 C  
HETATM   25  C   UNL     1      -6.425   9.081  72.028  1.00  0.00     0.029 C  
HETATM   26  C   UNL     1      -5.374   8.924  69.145  1.00  0.00    -0.036 C  
ENDBRANCH   3  20
BRANCH   5  27
HETATM   27  O   UNL     1     -11.497   7.725  72.592  1.00  0.00    -0.354 OA 
BRANCH  27  28
HETATM   28  C   UNL     1     -12.790   8.084  72.387  1.00  0.00    -0.104 C  
HETATM   29  C   UNL     1     -13.441   7.071  71.480  1.00  0.00    -0.363 C  
HETATM   30  O   UNL     1     -13.371   8.943  73.028  1.00  0.00    -0.308 OA 
ENDBRANCH  27  28
ENDBRANCH   5  27
BRANCH  10  31
HETATM   31  O   UNL     1      -9.473   4.395  64.681  1.00  0.00    -0.158 OA 
BRANCH  31  32
HETATM   32  C   UNL     1      -9.449   3.663  63.486  1.00  0.00    -0.127 C  
HETATM   33  C   UNL     1     -10.650   2.782  63.428  1.00  0.00    -0.224 C  
HETATM   34  O   UNL     1      -8.611   3.793  62.602  1.00  0.00    -0.080 OA 
ENDBRANCH  31  32
ENDBRANCH  10  31
BRANCH   9  35
HETATM   35  N   UNL     1      -6.515   6.523  64.676  1.00  0.00    -0.040 N  
HETATM   36  C   UNL     1      -5.366   5.530  64.220  1.00  0.00    -0.013 C  
HETATM   37  C   UNL     1      -6.659   7.904  62.508  1.00  0.00    -0.085 C  
HETATM   38  C   UNL     1      -7.346   6.905  63.438  1.00  0.00    -0.080 C  
HETATM   39  C   UNL     1      -6.181   9.129  63.261  1.00  0.00    -0.090 C  
HETATM   40  C   UNL     1      -5.146   8.686  64.274  1.00  0.00    -0.043 C  
HETATM   41  C   UNL     1      -5.774   7.726  65.290  1.00  0.00    -0.037 C  
ENDBRANCH   9  35
TORSDOF 6
ENDMDL
MODEL       27
REMARK 921   NORMALIZED FREE ENERGY PREDICTED BY IDOCK:   -4.31 KCAL/MOL
REMARK 922        TOTAL FREE ENERGY PREDICTED BY IDOCK:   -7.41 KCAL/MOL
REMARK 923 INTER-LIGAND FREE ENERGY PREDICTED BY IDOCK:   -5.73 KCAL/MOL
REMARK 924 INTRA-LIGAND FREE ENERGY PREDICTED BY IDOCK:   -1.68 KCAL/MOL
REMARK 927      BINDING AFFINITY PREDICTED BY RF-SCORE:    0.00 PKD
ROOT
HETATM    1  C   UNL     1      -6.523  11.324  68.987  1.00  0.00    -0.069 C  
HETATM    2  C   UNL     1      -5.881  10.432  68.019  1.00  0.00    -0.040 C  
HETATM    3  C   UNL     1      -6.912  11.095  67.100  1.00  0.00    -0.112 C  
HETATM    4  C   UNL     1     -10.896   8.641  69.588  1.00  0.00    -0.163 C  
HETATM    5  C   UNL     1      -8.253  12.167  68.260  1.00  0.00    -0.168 C  
HETATM    6  C   UNL     1      -7.121  12.482  67.725  1.00  0.00    -0.126 C  
HETATM    7  C   UNL     1      -9.439   8.179  69.266  1.00  0.00    -0.159 C  
HETATM    8  C   UNL     1      -9.581   6.995  68.107  1.00  0.00    -0.131 C  
HETATM    9  C   UNL     1      -8.814   5.668  68.369  1.00  0.00    -0.108 C  
HETATM   10  C   UNL     1      -9.123   5.284  69.833  1.00  0.00    -0.130 C  
HETATM   11  C   UNL     1      -8.167   6.230  70.575  1.00  0.00    -0.118 C  
HETATM   12  C   UNL     1      -6.430  13.810  67.435  1.00  0.00     0.063 C  
HETATM   13  C   UNL     1      -8.779  11.835  66.843  1.00  0.00    -0.189 C  
HETATM   14  C   UNL     1      -8.873   7.625  70.641  1.00  0.00    -0.145 C  
HETATM   15  C   UNL     1      -8.115   8.611  71.526  1.00  0.00    -0.188 C  
HETATM   16  C   UNL     1      -9.553  10.446  67.735  1.00  0.00    -0.169 C  
HETATM   17  C   UNL     1      -7.060   9.411  70.798  1.00  0.00    -0.119 C  
HETATM   18  C   UNL     1      -8.635   9.467  68.695  1.00  0.00    -0.119 C  
HETATM   19  C   UNL     1      -7.719  10.294  69.738  1.00  0.00    -0.159 C  
ENDROOT
BRANCH   3  20
HETATM   20  N   UNL     1      -6.990  10.220  65.493  1.00  0.00    -0.134 N  
HETATM   21  C   UNL     1      -8.170  10.559  64.352  1.00  0.00    -0.068 C  
HETATM   22  C   UNL     1      -8.037   9.675  63.121  1.00  0.00    -0.146 C  
HETATM   23  C   UNL     1      -7.009   8.750  65.727  1.00  0.00    -0.076 C  
HETATM   24  C   UNL     1      -8.082   8.212  63.531  1.00  0.00    -0.113 C  
HETATM   25  C   UNL     1      -5.685  10.704  64.722  1.00  0.00    -0.066 C  
HETATM   26  C   UNL     1      -6.935   7.908  64.472  1.00  0.00    -0.071 C  
ENDBRANCH   3  20
BRANCH   5  27
HETATM   27  O   UNL     1      -8.728  13.743  68.030  1.00  0.00    -0.163 OA 
BRANCH  27  28
HETATM   28  C   UNL     1      -9.851  14.370  68.459  1.00  0.00    -0.233 C  
HETATM   29  C   UNL     1      -9.463  15.488  69.393  1.00  0.00    -0.278 C  
HETATM   30  O   UNL     1     -10.958  14.201  67.974  1.00  0.00    -0.246 OA 
ENDBRANCH  27  28
ENDBRANCH   5  27
BRANCH  10  31
HETATM   31  O   UNL     1     -10.383   5.444  70.517  1.00  0.00    -0.243 OA 
BRANCH  31  32
HETATM   32  C   UNL     1     -10.420   4.737  71.727  1.00  0.00    -0.112 C  
HETATM   33  C   UNL     1     -11.124   5.557  72.751  1.00  0.00    -0.340 C  
HETATM   34  O   UNL     1     -10.005   3.595  71.881  1.00  0.00    -0.171 OA 
ENDBRANCH  31  32
ENDBRANCH  10  31
BRANCH   9  35
HETATM   35  N   UNL     1      -9.049   4.345  67.310  1.00  0.00    -0.124 N  
HETATM   36  C   UNL     1      -9.505   3.075  68.141  1.00  0.00    -0.159 C  
HETATM   37  C   UNL     1     -10.167   3.717  65.078  1.00  0.00    -0.084 C  
HETATM   38  C   UNL     1     -10.142   4.667  66.275  1.00  0.00    -0.265 C  
HETATM   39  C   UNL     1      -8.802   3.599  64.431  1.00  0.00    -0.117 C  
HETATM   40  C   UNL     1      -7.849   3.003  65.446  1.00  0.00    -0.082 C  
HETATM   41  C   UNL     1      -7.715   3.931  66.658  1.00  0.00    -0.089 C  
ENDBRANCH   9  35
TORSDOF 6
ENDMDL
MODEL       28
REMARK 921   NORMALIZED FREE ENERGY PREDICTED BY IDOCK:   -3.91 KCAL/MOL
REMARK 922        TOTAL FREE ENERGY PREDICTED BY IDOCK:   -6.88 KCAL/MOL
REMARK 923 INTER-LIGAND FREE ENERGY PREDICTED BY IDOCK:   -6.77 KCAL/MOL
REMARK 924 INTRA-LIGAND FREE ENERGY PREDICTED BY IDOCK:   -0.11 KCAL/MOL
REMARK 927      BINDING AFFINITY PREDICTED BY RF-SCORE:    0.00 PKD
ROOT
HETATM    1  C   UNL     1      -8.583  14.113  68.009  1.00  0.00    -0.172 C  
HETATM    2  C   UNL     1      -8.495  13.529  66.669  1.00  0.00     0.138 C  
HETATM    3  C   UNL     1     -10.019  13.586  66.816  1.00  0.00    -0.269 C  
HETATM    4  C   UNL     1      -9.933   9.818  70.540  1.00  0.00    -0.258 C  
HETATM    5  C   UNL     1     -10.488  14.035  68.782  1.00  0.00    -0.233 C  
HETATM    6  C   UNL     1     -10.252  14.779  67.754  1.00  0.00    -0.232 C  
HETATM    7  C   UNL     1      -9.054  10.031  69.267  1.00  0.00    -0.208 C  
HETATM    8  C   UNL     1      -9.481   8.820  68.209  1.00  0.00    -0.150 C  
HETATM    9  C   UNL     1      -8.318   8.001  67.583  1.00  0.00    -0.128 C  
HETATM   10  C   UNL     1      -7.379   7.636  68.754  1.00  0.00    -0.091 C  
HETATM   11  C   UNL     1      -6.629   8.965  68.931  1.00  0.00    -0.052 C  
HETATM   12  C   UNL     1     -10.511  16.248  67.440  1.00  0.00    -0.304 C  
HETATM   13  C   UNL     1     -11.653  13.392  67.994  1.00  0.00    -0.369 C  
HETATM   14  C   UNL     1      -7.558   9.899  69.777  1.00  0.00    -0.151 C  
HETATM   15  C   UNL     1      -6.851  11.186  70.193  1.00  0.00     0.132 C  
HETATM   16  C   UNL     1     -11.017  11.879  68.788  1.00  0.00    -0.280 C  
HETATM   17  C   UNL     1      -6.977  12.312  69.194  1.00  0.00    -0.041 C  
HETATM   18  C   UNL     1      -9.418  11.493  68.664  1.00  0.00    -0.146 C  
HETATM   19  C   UNL     1      -8.444  12.721  69.057  1.00  0.00     0.462 C  
ENDROOT
BRANCH   3  20
HETATM   20  N   UNL     1     -10.825  12.644  65.467  1.00  0.00    -0.273 N  
HETATM   21  C   UNL     1     -10.213  12.627  63.907  1.00  0.00    -0.340 C  
HETATM   22  C   UNL     1     -11.080  11.801  62.968  1.00  0.00    -0.075 C  
HETATM   23  C   UNL     1     -12.259  13.033  65.377  1.00  0.00    -0.471 C  
HETATM   24  C   UNL     1     -12.506  12.330  62.987  1.00  0.00    -0.098 C  
HETATM   25  C   UNL     1     -10.624  11.121  65.880  1.00  0.00    -0.234 C  
HETATM   26  C   UNL     1     -13.072  12.226  64.387  1.00  0.00     0.005 C  
ENDBRANCH   3  20
BRANCH   5  27
HETATM   27  O   UNL     1     -11.538  15.209  69.311  1.00  0.00    -0.287 OA 
BRANCH  27  28
HETATM   28  C   UNL     1     -12.253  15.264  70.463  1.00  0.00    -0.371 C  
HETATM   29  C   UNL     1     -11.320  15.063  71.630  1.00  0.00    -0.320 C  
HETATM   30  O   UNL     1     -13.408  15.652  70.534  1.00  0.00    -0.426 OA 
ENDBRANCH  27  28
ENDBRANCH   5  27
BRANCH  10  31
HETATM   31  O   UNL     1      -7.775   7.271  70.092  1.00  0.00    -0.088 OA 
BRANCH  31  32
HETATM   32  C   UNL     1      -7.898   5.883  70.244  1.00  0.00    -0.101 C  
HETATM   33  C   UNL     1      -9.342   5.526  70.316  1.00  0.00    -0.194 C  
HETATM   34  O   UNL     1      -6.962   5.093  70.239  1.00  0.00    -0.049 OA 
ENDBRANCH  31  32
ENDBRANCH  10  31
BRANCH   9  35
HETATM   35  N   UNL     1      -8.684   6.633  66.622  1.00  0.00    -0.121 N  
HETATM   36  C   UNL     1      -8.516   7.002  65.089  1.00  0.00    -0.014 C  
HETATM   37  C   UNL     1      -8.195   4.112  66.426  1.00  0.00    -0.101 C  
HETATM   38  C   UNL     1      -7.729   5.471  66.949  1.00  0.00    -0.100 C  
HETATM   39  C   UNL     1      -9.616   3.808  66.857  1.00  0.00    -0.207 C  
HETATM   40  C   UNL     1     -10.528   4.852  66.248  1.00  0.00    -0.349 C  
HETATM   41  C   UNL     1     -10.167   6.245  66.773  1.00  0.00    -0.202 C  
ENDBRANCH   9  35
TORSDOF 6
ENDMDL
MODEL       29
REMARK 921   NORMALIZED FREE ENERGY PREDICTED BY IDOCK:   -3.88 KCAL/MOL
REMARK 922        TOTAL FREE ENERGY PREDICTED BY IDOCK:   -6.83 KCAL/MOL
REMARK 923 INTER-LIGAND FREE ENERGY PREDICTED BY IDOCK:   -5.96 KCAL/MOL
REMARK 924 INTRA-LIGAND FREE ENERGY PREDICTED BY IDOCK:   -0.87 KCAL/MOL
REMARK 927      BINDING AFFINITY PREDICTED BY RF-SCORE:    0.00 PKD
ROOT
HETATM    1  C   UNL     1      -7.840  10.638  69.281  1.00  0.00    -0.140 C  
HETATM    2  C   UNL     1      -6.959  10.172  68.208  1.00  0.00    -0.070 C  
HETATM    3  C   UNL     1      -8.172  10.590  67.371  1.00  0.00    -0.118 C  
HETATM    4  C   UNL     1     -11.057   6.598  69.325  1.00  0.00    -0.345 C  
HETATM    5  C   UNL     1      -9.767  10.962  68.638  1.00  0.00    -0.185 C  
HETATM    6  C   UNL     1      -8.817  11.714  68.194  1.00  0.00    -0.164 C  
HETATM    7  C   UNL     1      -9.537   6.701  68.982  1.00  0.00    -0.133 C  
HETATM    8  C   UNL     1      -9.303   5.732  67.650  1.00  0.00    -0.108 C  
HETATM    9  C   UNL     1      -8.133   4.712  67.729  1.00  0.00    -0.096 C  
HETATM   10  C   UNL     1      -8.264   4.024  69.106  1.00  0.00    -0.069 C  
HETATM   11  C   UNL     1      -7.661   5.106  70.014  1.00  0.00    -0.067 C  
HETATM   12  C   UNL     1      -8.614  13.224  68.135  1.00  0.00    -0.177 C  
HETATM   13  C   UNL     1     -10.183  10.699  67.172  1.00  0.00    -0.261 C  
HETATM   14  C   UNL     1      -8.790   6.160  70.272  1.00  0.00    -0.149 C  
HETATM   15  C   UNL     1      -8.383   7.191  71.322  1.00  0.00    -0.113 C  
HETATM   16  C   UNL     1     -10.433   9.011  67.815  1.00  0.00    -0.305 C  
HETATM   17  C   UNL     1      -7.671   8.399  70.759  1.00  0.00    -0.083 C  
HETATM   18  C   UNL     1      -9.221   8.256  68.641  1.00  0.00    -0.143 C  
HETATM   19  C   UNL     1      -8.609   9.166  69.827  1.00  0.00    -0.144 C  
ENDROOT
BRANCH   3  20
HETATM   20  N   UNL     1      -7.989  10.000  65.646  1.00  0.00    -0.133 N  
HETATM   21  C   UNL     1      -8.397   8.439  65.193  1.00  0.00    -0.177 C  
HETATM   22  C   UNL     1      -8.122   8.188  63.718  1.00  0.00    -0.112 C  
HETATM   23  C   UNL     1      -6.596  10.247  65.181  1.00  0.00    -0.121 C  
HETATM   24  C   UNL     1      -6.661   8.478  63.411  1.00  0.00    -0.089 C  
HETATM   25  C   UNL     1      -9.068  10.837  64.830  1.00  0.00    -0.198 C  
HETATM   26  C   UNL     1      -6.351   9.927  63.723  1.00  0.00    -0.126 C  
ENDBRANCH   3  20
BRANCH   5  27
HETATM   27  O   UNL     1     -10.744  12.306  68.639  1.00  0.00    -0.225 OA 
BRANCH  27  28
HETATM   28  C   UNL     1     -11.688  12.679  69.539  1.00  0.00    -0.308 C  
HETATM   29  C   UNL     1     -12.214  14.041  69.164  1.00  0.00    -0.299 C  
HETATM   30  O   UNL     1     -12.185  11.927  70.361  1.00  0.00    -0.342 OA 
ENDBRANCH  27  28
ENDBRANCH   5  27
BRANCH  10  31
HETATM   31  O   UNL     1      -9.491   3.649  69.766  1.00  0.00    -0.168 OA 
BRANCH  31  32
HETATM   32  C   UNL     1      -9.336   2.497  70.549  1.00  0.00    -0.139 C  
HETATM   33  C   UNL     1      -8.296   1.625  69.937  1.00  0.00    -0.069 C  
HETATM   34  O   UNL     1      -9.915   2.289  71.609  1.00  0.00    -0.158 OA 
ENDBRANCH  31  32
ENDBRANCH  10  31
BRANCH   9  35
HETATM   35  N   UNL     1      -7.937   3.568  66.472  1.00  0.00    -0.088 N  
HETATM   36  C   UNL     1      -9.118   2.512  66.527  1.00  0.00    -0.096 C  
HETATM   37  C   UNL     1      -7.442   3.401  63.951  1.00  0.00    -0.066 C  
HETATM   38  C   UNL     1      -7.970   4.262  65.098  1.00  0.00    -0.097 C  
HETATM   39  C   UNL     1      -6.069   2.839  64.261  1.00  0.00    -0.018 C  
HETATM   40  C   UNL     1      -6.192   1.936  65.470  1.00  0.00    -0.023 C  
HETATM   41  C   UNL     1      -6.656   2.738  66.689  1.00  0.00    -0.036 C  
ENDBRANCH   9  35
TORSDOF 6
ENDMDL
MODEL       30
REMARK 921   NORMALIZED FREE ENERGY PREDICTED BY IDOCK:   -3.65 KCAL/MOL
REMARK 922        TOTAL FREE ENERGY PREDICTED BY IDOCK:   -6.53 KCAL/MOL
REMARK 923 INTER-LIGAND FREE ENERGY PREDICTED BY IDOCK:   -4.93 KCAL/MOL
REMARK 924 INTRA-LIGAND FREE ENERGY PREDICTED BY IDOCK:   -1.59 KCAL/MOL
REMARK 927      BINDING AFFINITY PREDICTED BY RF-SCORE:    0.00 PKD
ROOT
HETATM    1  C   UNL     1      -8.454  12.886  65.857  1.00  0.00     1.118 C  
HETATM    2  C   UNL     1      -9.737  12.225  66.105  1.00  0.00    -0.256 C  
HETATM    3  C   UNL     1      -9.799  13.305  67.190  1.00  0.00    -0.237 C  
HETATM    4  C   UNL     1      -5.906  10.971  69.922  1.00  0.00    -0.086 C  
HETATM    5  C   UNL     1      -7.940  14.202  67.352  1.00  0.00    -0.184 C  
HETATM    6  C   UNL     1      -8.965  14.456  66.610  1.00  0.00    -0.232 C  
HETATM    7  C   UNL     1      -7.059  10.374  69.054  1.00  0.00    -0.076 C  
HETATM    8  C   UNL     1      -8.099   9.636  70.121  1.00  0.00    -0.205 C  
HETATM    9  C   UNL     1      -8.520   8.178  69.788  1.00  0.00    -0.125 C  
HETATM   10  C   UNL     1      -7.216   7.434  69.423  1.00  0.00    -0.083 C  
HETATM   11  C   UNL     1      -7.010   7.929  67.983  1.00  0.00    -0.073 C  
HETATM   12  C   UNL     1      -9.388  15.664  65.781  1.00  0.00    -0.303 C  
HETATM   13  C   UNL     1      -8.843  14.409  68.591  1.00  0.00    -0.167 C  
HETATM   14  C   UNL     1      -6.346   9.343  68.081  1.00  0.00    -0.054 C  
HETATM   15  C   UNL     1      -5.906   9.867  66.717  1.00  0.00    -0.054 C  
HETATM   16  C   UNL     1      -7.893  12.978  69.203  1.00  0.00     0.378 C  
HETATM   17  C   UNL     1      -6.971  10.646  65.981  1.00  0.00    -0.128 C  
HETATM   18  C   UNL     1      -7.780  11.610  68.289  1.00  0.00    -0.128 C  
HETATM   19  C   UNL     1      -7.325  11.909  66.767  1.00  0.00    -0.011 C  
ENDROOT
BRANCH   3  20
HETATM   20  N   UNL     1     -11.194  12.980  68.333  1.00  0.00    -0.251 N  
HETATM   21  C   UNL     1     -11.435  13.888  69.721  1.00  0.00    -0.281 C  
HETATM   22  C   UNL     1     -12.637  13.398  70.515  1.00  0.00    -0.281 C  
HETATM   23  C   UNL     1     -11.181  11.547  68.737  1.00  0.00    -0.249 C  
HETATM   24  C   UNL     1     -12.465  11.926  70.852  1.00  0.00    -0.397 C  
HETATM   25  C   UNL     1     -12.487  13.372  67.493  1.00  0.00     0.211 C  
HETATM   26  C   UNL     1     -12.364  11.117  69.576  1.00  0.00    -0.262 C  
ENDBRANCH   3  20
BRANCH   5  27
HETATM   27  O   UNL     1      -7.619  15.833  67.356  1.00  0.00    -0.154 OA 
BRANCH  27  28
HETATM   28  C   UNL     1      -6.512  16.487  67.788  1.00  0.00    -0.143 C  
HETATM   29  C   UNL     1      -5.351  15.526  67.811  1.00  0.00    -0.118 C  
HETATM   30  O   UNL     1      -6.434  17.700  67.900  1.00  0.00    -0.172 OA 
ENDBRANCH  27  28
ENDBRANCH   5  27
BRANCH  10  31
HETATM   31  O   UNL     1      -5.926   7.605  70.045  1.00  0.00    -0.024 OA 
BRANCH  31  32
HETATM   32  C   UNL     1      -5.914   7.140  71.367  1.00  0.00    -0.037 C  
HETATM   33  C   UNL     1      -5.632   5.677  71.368  1.00  0.00    -0.017 C  
HETATM   34  O   UNL     1      -6.037   7.849  72.359  1.00  0.00    -0.040 OA 
ENDBRANCH  31  32
ENDBRANCH  10  31
BRANCH   9  35
HETATM   35  N   UNL     1      -9.449   7.296  70.923  1.00  0.00    -0.160 N  
HETATM   36  C   UNL     1      -8.970   5.785  70.939  1.00  0.00    -0.145 C  
HETATM   37  C   UNL     1     -10.320   7.409  73.343  1.00  0.00    -0.411 C  
HETATM   38  C   UNL     1      -9.269   7.878  72.337  1.00  0.00    -0.181 C  
HETATM   39  C   UNL     1     -11.727   7.628  72.822  1.00  0.00    -0.276 C  
HETATM   40  C   UNL     1     -11.904   6.786  71.575  1.00  0.00    -0.378 C  
HETATM   41  C   UNL     1     -10.925   7.238  70.486  1.00  0.00    -0.260 C  
ENDBRANCH   9  35
TORSDOF 6
ENDMDL
MODEL       31
REMARK 921   NORMALIZED FREE ENERGY PREDICTED BY IDOCK:   -3.48 KCAL/MOL
REMARK 922        TOTAL FREE ENERGY PREDICTED BY IDOCK:   -6.29 KCAL/MOL
REMARK 923 INTER-LIGAND FREE ENERGY PREDICTED BY IDOCK:   -5.12 KCAL/MOL
REMARK 924 INTRA-LIGAND FREE ENERGY PREDICTED BY IDOCK:   -1.17 KCAL/MOL
REMARK 927      BINDING AFFINITY PREDICTED BY RF-SCORE:    0.00 PKD
ROOT
HETATM    1  C   UNL     1     -11.165  13.222  65.756  1.00  0.00    -0.313 C  
HETATM    2  C   UNL     1     -11.905  12.183  66.475  1.00  0.00    -0.322 C  
HETATM    3  C   UNL     1     -11.142  12.803  67.650  1.00  0.00    -0.258 C  
HETATM    4  C   UNL     1      -6.537  10.930  65.816  1.00  0.00    -0.005 C  
HETATM    5  C   UNL     1      -9.699  14.090  66.909  1.00  0.00    -0.271 C  
HETATM    6  C   UNL     1     -10.938  14.264  67.224  1.00  0.00    -0.302 C  
HETATM    7  C   UNL     1      -7.980  10.336  65.779  1.00  0.00    -0.144 C  
HETATM    8  C   UNL     1      -7.967   9.038  66.818  1.00  0.00    -0.107 C  
HETATM    9  C   UNL     1      -8.543   7.702  66.270  1.00  0.00    -0.144 C  
HETATM   10  C   UNL     1      -7.914   7.512  64.872  1.00  0.00    -0.132 C  
HETATM   11  C   UNL     1      -8.784   8.471  64.045  1.00  0.00     0.132 C  
HETATM   12  C   UNL     1     -11.790  15.500  67.494  1.00  0.00     0.124 C  
HETATM   13  C   UNL     1      -9.439  13.632  68.363  1.00  0.00    -0.190 C  
HETATM   14  C   UNL     1      -8.207   9.909  64.268  1.00  0.00    -0.161 C  
HETATM   15  C   UNL     1      -8.859  10.938  63.347  1.00  0.00    -0.123 C  
HETATM   16  C   UNL     1      -8.380  12.413  67.519  1.00  0.00    -0.173 C  
HETATM   17  C   UNL     1     -10.106  11.574  63.915  1.00  0.00    -0.388 C  
HETATM   18  C   UNL     1      -8.995  11.492  66.296  1.00  0.00    -0.199 C  
HETATM   19  C   UNL     1      -9.755  12.371  65.172  1.00  0.00    -0.070 C  
ENDROOT
BRANCH   3  20
HETATM   20  N   UNL     1     -11.309  11.754  69.143  1.00  0.00    -0.258 N  
HETATM   21  C   UNL     1     -10.062  10.775  69.685  1.00  0.00    -0.053 C  
HETATM   22  C   UNL     1     -10.462   9.982  70.920  1.00  0.00    -0.037 C  
HETATM   23  C   UNL     1     -12.521  10.899  69.016  1.00  0.00     0.335 C  
HETATM   24  C   UNL     1     -11.706   9.160  70.622  1.00  0.00    -0.256 C  
HETATM   25  C   UNL     1     -11.413  12.795  70.341  1.00  0.00     0.376 C  
HETATM   26  C   UNL     1     -12.849  10.080  70.246  1.00  0.00     0.008 C  
ENDBRANCH   3  20
BRANCH   5  27
HETATM   27  O   UNL     1      -9.424  15.658  67.389  1.00  0.00    -0.213 OA 
BRANCH  27  28
HETATM   28  C   UNL     1      -8.535  16.560  66.901  1.00  0.00    -0.212 C  
HETATM   29  C   UNL     1      -7.156  16.206  67.394  1.00  0.00    -0.209 C  
HETATM   30  O   UNL     1      -8.792  17.366  66.022  1.00  0.00    -0.498 OA 
ENDBRANCH  27  28
ENDBRANCH   5  27
BRANCH  10  31
HETATM   31  O   UNL     1      -6.563   7.836  64.486  1.00  0.00    -0.048 OA 
BRANCH  31  32
HETATM   32  C   UNL     1      -6.123   7.060  63.404  1.00  0.00    -0.044 C  
HETATM   33  C   UNL     1      -5.431   7.939  62.421  1.00  0.00    -0.064 C  
HETATM   34  O   UNL     1      -6.229   5.842  63.330  1.00  0.00    -0.024 OA 
ENDBRANCH  31  32
ENDBRANCH  10  31
BRANCH   9  35
HETATM   35  N   UNL     1      -8.407   6.283  67.218  1.00  0.00    -0.109 N  
HETATM   36  C   UNL     1      -7.192   6.433  68.225  1.00  0.00    -0.085 C  
HETATM   37  C   UNL     1      -9.817   4.646  68.617  1.00  0.00    -0.190 C  
HETATM   38  C   UNL     1      -9.691   6.053  68.035  1.00  0.00    -0.119 C  
HETATM   39  C   UNL     1      -9.635   3.584  67.551  1.00  0.00    -0.177 C  
HETATM   40  C   UNL     1      -8.230   3.708  66.998  1.00  0.00    -0.095 C  
HETATM   41  C   UNL     1      -8.039   5.075  66.334  1.00  0.00    -0.108 C  
ENDBRANCH   9  35
TORSDOF 6
ENDMDL
MODEL       32
REMARK 921   NORMALIZED FREE ENERGY PREDICTED BY IDOCK:   -3.34 KCAL/MOL
REMARK 922        TOTAL FREE ENERGY PREDICTED BY IDOCK:   -6.11 KCAL/MOL
REMARK 923 INTER-LIGAND FREE ENERGY PREDICTED BY IDOCK:   -4.81 KCAL/MOL
REMARK 924 INTRA-LIGAND FREE ENERGY PREDICTED BY IDOCK:   -1.30 KCAL/MOL
REMARK 927      BINDING AFFINITY PREDICTED BY RF-SCORE:    0.00 PKD
ROOT
HETATM    1  C   UNL     1      -8.568   4.743  66.482  1.00  0.00    -0.109 C  
HETATM    2  C   UNL     1      -8.851   5.608  65.334  1.00  0.00    -0.112 C  
HETATM    3  C   UNL     1      -7.353   5.888  65.493  1.00  0.00    -0.076 C  
HETATM    4  C   UNL     1      -8.186   8.457  70.052  1.00  0.00    -0.121 C  
HETATM    5  C   UNL     1      -6.707   5.086  67.290  1.00  0.00    -0.055 C  
HETATM    6  C   UNL     1      -6.800   4.591  66.101  1.00  0.00    -0.058 C  
HETATM    7  C   UNL     1      -9.041   8.365  68.748  1.00  0.00    -0.143 C  
HETATM    8  C   UNL     1      -8.963   9.869  68.043  1.00  0.00    -0.121 C  
HETATM    9  C   UNL     1     -10.314  10.511  67.622  1.00  0.00    -0.217 C  
HETATM   10  C   UNL     1     -11.263  10.329  68.827  1.00  0.00    -0.206 C  
HETATM   11  C   UNL     1     -11.663   8.857  68.643  1.00  0.00     1.424 C  
HETATM   12  C   UNL     1      -6.208   3.357  65.428  1.00  0.00    -0.028 C  
HETATM   13  C   UNL     1      -5.765   6.170  66.716  1.00  0.00    -0.016 C  
HETATM   14  C   UNL     1     -10.502   7.995  69.243  1.00  0.00    -0.221 C  
HETATM   15  C   UNL     1     -10.860   6.512  69.303  1.00  0.00    -0.361 C  
HETATM   16  C   UNL     1      -6.713   7.232  67.856  1.00  0.00    -0.061 C  
HETATM   17  C   UNL     1     -10.509   5.740  68.052  1.00  0.00    -0.286 C  
HETATM   18  C   UNL     1      -8.362   7.236  67.800  1.00  0.00    -0.118 C  
HETATM   19  C   UNL     1      -8.993   5.749  67.846  1.00  0.00    -0.111 C  
ENDROOT
BRANCH   3  20
HETATM   20  N   UNL     1      -6.855   7.306  64.446  1.00  0.00    -0.046 N  
HETATM   21  C   UNL     1      -5.809   8.494  64.998  1.00  0.00    -0.048 C  
HETATM   22  C   UNL     1      -5.582   9.576  63.953  1.00  0.00    -0.073 C  
HETATM   23  C   UNL     1      -8.070   7.991  63.926  1.00  0.00    -0.097 C  
HETATM   24  C   UNL     1      -6.915  10.177  63.536  1.00  0.00    -0.116 C  
HETATM   25  C   UNL     1      -5.977   6.651  63.292  1.00  0.00    -0.035 C  
HETATM   26  C   UNL     1      -7.795   9.102  62.936  1.00  0.00    -0.129 C  
ENDBRANCH   3  20
BRANCH   5  27
HETATM   27  O   UNL     1      -5.383   4.108  67.524  1.00  0.00    -0.011 OA 
BRANCH  27  28
HETATM   28  C   UNL     1      -5.195   3.126  68.441  1.00  0.00    -0.012 C  
HETATM   29  C   UNL     1      -5.351   3.708  69.823  1.00  0.00    -0.008 C  
HETATM   30  O   UNL     1      -5.149   1.937  68.171  1.00  0.00    -0.010 OA 
ENDBRANCH  27  28
ENDBRANCH   5  27
BRANCH  10  31
HETATM   31  O   UNL     1     -10.911  10.429  70.222  1.00  0.00    -0.292 OA 
BRANCH  31  32
HETATM   32  C   UNL     1     -11.960  10.946  70.994  1.00  0.00    -0.270 C  
HETATM   33  C   UNL     1     -12.405  12.242  70.410  1.00  0.00    -0.309 C  
HETATM   34  O   UNL     1     -12.473  10.375  71.949  1.00  0.00    -0.356 OA 
ENDBRANCH  31  32
ENDBRANCH  10  31
BRANCH   9  35
HETATM   35  N   UNL     1     -10.329  12.124  67.049  1.00  0.00    -0.210 N  
HETATM   36  C   UNL     1      -9.423  12.235  65.752  1.00  0.00    -0.121 C  
HETATM   37  C   UNL     1     -11.937  14.063  66.514  1.00  0.00    -0.470 C  
HETATM   38  C   UNL     1     -11.761  12.553  66.680  1.00  0.00    -0.387 C  
HETATM   39  C   UNL     1     -11.419  14.819  67.721  1.00  0.00    -0.363 C  
HETATM   40  C   UNL     1      -9.932  14.559  67.838  1.00  0.00    -0.226 C  
HETATM   41  C   UNL     1      -9.669  13.068  68.072  1.00  0.00    -0.224 C  
ENDBRANCH   9  35
TORSDOF 6
ENDMDL
MODEL       33
REMARK 921   NORMALIZED FREE ENERGY PREDICTED BY IDOCK:   -3.29 KCAL/MOL
REMARK 922        TOTAL FREE ENERGY PREDICTED BY IDOCK:   -6.04 KCAL/MOL
REMARK 923 INTER-LIGAND FREE ENERGY PREDICTED BY IDOCK:   -5.29 KCAL/MOL
REMARK 924 INTRA-LIGAND FREE ENERGY PREDICTED BY IDOCK:   -0.75 KCAL/MOL
REMARK 927      BINDING AFFINITY PREDICTED BY RF-SCORE:    0.00 PKD
ROOT
HETATM    1  C   UNL     1     -11.138  15.762  68.815  1.00  0.00    -0.321 C  
HETATM    2  C   UNL     1     -10.138  15.028  69.595  1.00  0.00    -0.139 C  
HETATM    3  C   UNL     1      -9.216  16.021  68.880  1.00  0.00    -0.233 C  
HETATM    4  C   UNL     1     -10.085  13.662  64.215  1.00  0.00     0.274 C  
HETATM    5  C   UNL     1     -10.290  16.984  67.394  1.00  0.00    -0.319 C  
HETATM    6  C   UNL     1     -10.109  17.247  68.644  1.00  0.00    -0.341 C  
HETATM    7  C   UNL     1      -9.980  13.082  65.660  1.00  0.00    -0.239 C  
HETATM    8  C   UNL     1      -8.557  12.221  65.705  1.00  0.00     0.580 C  
HETATM    9  C   UNL     1      -8.636  10.775  66.268  1.00  0.00    -0.162 C  
HETATM   10  C   UNL     1      -9.854  10.119  65.579  1.00  0.00    -0.298 C  
HETATM   11  C   UNL     1     -10.999  10.728  66.403  1.00  0.00    -0.108 C  
HETATM   12  C   UNL     1     -10.320  18.494  69.496  1.00  0.00     0.481 C  
HETATM   13  C   UNL     1      -8.756  17.057  67.203  1.00  0.00    -0.226 C  
HETATM   14  C   UNL     1     -11.260  12.159  65.824  1.00  0.00    -0.384 C  
HETATM   15  C   UNL     1     -12.506  12.803  66.425  1.00  0.00     0.171 C  
HETATM   16  C   UNL     1      -9.081  15.628  66.118  1.00  0.00    -0.378 C  
HETATM   17  C   UNL     1     -12.249  13.587  67.691  1.00  0.00    -0.215 C  
HETATM   18  C   UNL     1      -9.938  14.339  66.687  1.00  0.00    -0.279 C  
HETATM   19  C   UNL     1     -11.328  14.771  67.388  1.00  0.00    -0.361 C  
ENDROOT
BRANCH   3  20
HETATM   20  N   UNL     1      -7.462  15.549  69.122  1.00  0.00    -0.174 N  
HETATM   21  C   UNL     1      -6.539  14.894  67.886  1.00  0.00    -0.173 C  
HETATM   22  C   UNL     1      -5.130  14.558  68.351  1.00  0.00    -0.105 C  
HETATM   23  C   UNL     1      -7.351  14.634  70.292  1.00  0.00     0.407 C  
HETATM   24  C   UNL     1      -5.192  13.614  69.541  1.00  0.00    -0.084 C  
HETATM   25  C   UNL     1      -6.713  16.934  69.350  1.00  0.00    -0.220 C  
HETATM   26  C   UNL     1      -5.933  14.278  70.682  1.00  0.00    -0.196 C  
ENDBRANCH   3  20
BRANCH   5  27
HETATM   27  O   UNL     1     -10.367  18.622  67.126  1.00  0.00    -0.360 OA 
BRANCH  27  28
HETATM   28  C   UNL     1     -10.258  19.306  65.959  1.00  0.00    -0.435 C  
HETATM   29  C   UNL     1      -8.964  20.079  65.961  1.00  0.00    -0.267 C  
HETATM   30  O   UNL     1     -10.975  19.122  64.989  1.00  0.00    -0.404 OA 
ENDBRANCH  27  28
ENDBRANCH   5  27
BRANCH  10  31
HETATM   31  O   UNL     1     -10.267  10.300  64.210  1.00  0.00    -0.269 OA 
BRANCH  31  32
HETATM   32  C   UNL     1      -9.342   9.760  63.305  1.00  0.00    -0.079 C  
HETATM   33  C   UNL     1      -8.616  10.871  62.627  1.00  0.00    -0.272 C  
HETATM   34  O   UNL     1      -9.120   8.564  63.162  1.00  0.00     0.357 OA 
ENDBRANCH  31  32
ENDBRANCH  10  31
BRANCH   9  35
HETATM   35  N   UNL     1      -7.253   9.770  66.187  1.00  0.00    -0.097 N  
HETATM   36  C   UNL     1      -6.256  10.145  67.361  1.00  0.00    -0.058 C  
HETATM   37  C   UNL     1      -6.559   7.305  65.918  1.00  0.00    -0.052 C  
HETATM   38  C   UNL     1      -7.649   8.291  66.340  1.00  0.00    -0.091 C  
HETATM   39  C   UNL     1      -6.045   7.606  64.524  1.00  0.00    -0.041 C  
HETATM   40  C   UNL     1      -5.413   8.982  64.542  1.00  0.00    -0.055 C  
HETATM   41  C   UNL     1      -6.460  10.044  64.894  1.00  0.00    -0.125 C  
ENDBRANCH   9  35
TORSDOF 6
ENDMDL
MODEL       34
REMARK 921   NORMALIZED FREE ENERGY PREDICTED BY IDOCK:   -3.13 KCAL/MOL
REMARK 922        TOTAL FREE ENERGY PREDICTED BY IDOCK:   -5.82 KCAL/MOL
REMARK 923 INTER-LIGAND FREE ENERGY PREDICTED BY IDOCK:   -4.60 KCAL/MOL
REMARK 924 INTRA-LIGAND FREE ENERGY PREDICTED BY IDOCK:   -1.22 KCAL/MOL
REMARK 927      BINDING AFFINITY PREDICTED BY RF-SCORE:    0.00 PKD
ROOT
HETATM    1  C   UNL     1      -9.202   5.904  67.385  1.00  0.00    -0.108 C  
HETATM    2  C   UNL     1      -9.679   6.513  66.142  1.00  0.00     0.015 C  
HETATM    3  C   UNL     1      -8.198   6.895  66.052  1.00  0.00    -0.125 C  
HETATM    4  C   UNL     1      -8.684  10.255  70.120  1.00  0.00     0.252 C  
HETATM    5  C   UNL     1      -7.290   6.491  67.869  1.00  0.00    -0.093 C  
HETATM    6  C   UNL     1      -7.484   5.771  66.815  1.00  0.00    -0.084 C  
HETATM    7  C   UNL     1      -9.675   9.868  68.977  1.00  0.00    -0.195 C  
HETATM    8  C   UNL     1      -9.792  11.209  68.000  1.00  0.00    -0.185 C  
HETATM    9  C   UNL     1     -11.226  11.688  67.643  1.00  0.00    -0.281 C  
HETATM   10  C   UNL     1     -12.013  11.695  68.973  1.00  0.00    -0.305 C  
HETATM   11  C   UNL     1     -12.321  10.197  69.120  1.00  0.00     0.670 C  
HETATM   12  C   UNL     1      -6.884   4.461  66.314  1.00  0.00    -0.058 C  
HETATM   13  C   UNL     1      -6.505   7.489  66.986  1.00  0.00    -0.060 C  
HETATM   14  C   UNL     1     -11.037   9.528  69.716  1.00  0.00    -0.216 C  
HETATM   15  C   UNL     1     -11.274   8.069  70.097  1.00  0.00    -0.145 C  
HETATM   16  C   UNL     1      -7.389   8.703  68.020  1.00  0.00    -0.092 C  
HETATM   17  C   UNL     1     -11.015   7.088  68.978  1.00  0.00    -0.169 C  
HETATM   18  C   UNL     1      -9.029   8.613  68.178  1.00  0.00    -0.141 C  
HETATM   19  C   UNL     1      -9.539   7.133  68.581  1.00  0.00    -0.140 C  
ENDROOT
BRANCH   3  20
HETATM   20  N   UNL     1      -7.933   8.106  64.703  1.00  0.00    -0.142 N  
HETATM   21  C   UNL     1      -6.398   8.548  64.195  1.00  0.00    -0.071 C  
HETATM   22  C   UNL     1      -6.448   9.591  63.089  1.00  0.00    -0.103 C  
HETATM   23  C   UNL     1      -8.677   9.359  65.007  1.00  0.00    -0.186 C  
HETATM   24  C   UNL     1      -7.233  10.804  63.560  1.00  0.00     0.320 C  
HETATM   25  C   UNL     1      -8.475   7.367  63.403  1.00  0.00     0.313 C  
HETATM   26  C   UNL     1      -8.650  10.394  63.903  1.00  0.00    -0.178 C  
ENDBRANCH   3  20
BRANCH   5  27
HETATM   27  O   UNL     1      -5.879   5.646  68.109  1.00  0.00    -0.015 OA 
BRANCH  27  28
HETATM   28  C   UNL     1      -5.359   5.157  69.263  1.00  0.00    -0.004 C  
HETATM   29  C   UNL     1      -5.241   6.278  70.262  1.00  0.00    -0.013 C  
HETATM   30  O   UNL     1      -5.242   3.968  69.510  1.00  0.00    -0.007 OA 
ENDBRANCH  27  28
ENDBRANCH   5  27
BRANCH  10  31
HETATM   31  O   UNL     1     -11.509  12.083  70.268  1.00  0.00    -0.144 OA 
BRANCH  31  32
HETATM   32  C   UNL     1     -12.415  12.894  70.964  1.00  0.00    -0.283 C  
HETATM   33  C   UNL     1     -13.052  12.095  72.049  1.00  0.00    -0.462 C  
HETATM   34  O   UNL     1     -12.588  14.088  70.755  1.00  0.00    -0.329 OA 
ENDBRANCH  31  32
ENDBRANCH  10  31
BRANCH   9  35
HETATM   35  N   UNL     1     -11.429  13.156  66.786  1.00  0.00    -0.327 N  
HETATM   36  C   UNL     1     -12.358  14.132  67.621  1.00  0.00    -0.038 C  
HETATM   37  C   UNL     1     -10.094  14.951  65.513  1.00  0.00    -0.400 C  
HETATM   38  C   UNL     1     -10.070  13.846  66.568  1.00  0.00    -0.286 C  
HETATM   39  C   UNL     1     -10.690  14.463  64.208  1.00  0.00     0.172 C  
HETATM   40  C   UNL     1     -12.129  14.068  64.465  1.00  0.00    -0.484 C  
HETATM   41  C   UNL     1     -12.192  12.913  65.470  1.00  0.00    -0.474 C  
ENDBRANCH   9  35
TORSDOF 6
ENDMDL
MODEL       35
REMARK 921   NORMALIZED FREE ENERGY PREDICTED BY IDOCK:   -3.07 KCAL/MOL
REMARK 922        TOTAL FREE ENERGY PREDICTED BY IDOCK:   -5.74 KCAL/MOL
REMARK 923 INTER-LIGAND FREE ENERGY PREDICTED BY IDOCK:   -5.07 KCAL/MOL
REMARK 924 INTRA-LIGAND FREE ENERGY PREDICTED BY IDOCK:   -0.67 KCAL/MOL
REMARK 927      BINDING AFFINITY PREDICTED BY RF-SCORE:    0.00 PKD
ROOT
HETATM    1  C   UNL     1      -9.591  15.279  69.267  1.00  0.00    -0.249 C  
HETATM    2  C   UNL     1      -8.430  14.547  69.779  1.00  0.00     0.523 C  
HETATM    3  C   UNL     1      -8.265  14.259  68.283  1.00  0.00    -0.148 C  
HETATM    4  C   UNL     1     -12.585  11.190  68.266  1.00  0.00     1.516 C  
HETATM    5  C   UNL     1      -9.981  14.858  67.291  1.00  0.00    -0.230 C  
HETATM    6  C   UNL     1      -8.895  15.482  67.603  1.00  0.00    -0.185 C  
HETATM    7  C   UNL     1     -11.489  11.423  69.354  1.00  0.00    -0.378 C  
HETATM    8  C   UNL     1     -10.619  10.008  69.437  1.00  0.00    -0.256 C  
HETATM    9  C   UNL     1     -10.397   9.410  70.854  1.00  0.00    -0.310 C  
HETATM   10  C   UNL     1     -11.776   9.451  71.551  1.00  0.00    -0.394 C  
HETATM   11  C   UNL     1     -11.838  10.931  71.955  1.00  0.00     1.116 C  
HETATM   12  C   UNL     1      -8.262  16.787  67.132  1.00  0.00    -0.210 C  
HETATM   13  C   UNL     1      -9.119  13.850  66.495  1.00  0.00    -0.165 C  
HETATM   14  C   UNL     1     -12.294  11.727  70.686  1.00  0.00    -0.421 C  
HETATM   15  C   UNL     1     -12.586  13.192  71.002  1.00  0.00    -0.397 C  
HETATM   16  C   UNL     1     -10.295  12.662  67.223  1.00  0.00    -0.230 C  
HETATM   17  C   UNL     1     -11.386  14.101  70.885  1.00  0.00     0.255 C  
HETATM   18  C   UNL     1     -10.559  12.655  68.851  1.00  0.00    -0.157 C  
HETATM   19  C   UNL     1     -10.891  14.124  69.438  1.00  0.00    -0.169 C  
ENDROOT
BRANCH   3  20
HETATM   20  N   UNL     1      -6.990  12.970  68.020  1.00  0.00    -0.096 N  
HETATM   21  C   UNL     1      -6.884  12.105  66.588  1.00  0.00     0.252 C  
HETATM   22  C   UNL     1      -5.767  11.074  66.633  1.00  0.00    -0.104 C  
HETATM   23  C   UNL     1      -7.045  11.982  69.132  1.00  0.00    -0.032 C  
HETATM   24  C   UNL     1      -5.974  10.142  67.816  1.00  0.00    -0.049 C  
HETATM   25  C   UNL     1      -5.620  13.778  67.980  1.00  0.00    -0.127 C  
HETATM   26  C   UNL     1      -5.951  10.937  69.104  1.00  0.00    -0.042 C  
ENDBRANCH   3  20
BRANCH   5  27
HETATM   27  O   UNL     1     -10.063  15.811  65.931  1.00  0.00    -0.306 OA 
BRANCH  27  28
HETATM   28  C   UNL     1     -10.946  15.761  64.902  1.00  0.00    -0.427 C  
HETATM   29  C   UNL     1     -11.345  14.327  64.666  1.00  0.00    -0.375 C  
HETATM   30  O   UNL     1     -11.494  16.741  64.424  1.00  0.00    -1.024 OA 
ENDBRANCH  27  28
ENDBRANCH   5  27
BRANCH  10  31
HETATM   31  O   UNL     1     -13.056   9.196  70.938  1.00  0.00    -0.120 OA 
BRANCH  31  32
HETATM   32  C   UNL     1     -13.886   8.416  71.756  1.00  0.00    -0.408 C  
HETATM   33  C   UNL     1     -14.403   7.262  70.969  1.00  0.00     0.017 C  
HETATM   34  O   UNL     1     -14.082   8.618  72.948  1.00  0.00    -0.357 OA 
ENDBRANCH  31  32
ENDBRANCH  10  31
BRANCH   9  35
HETATM   35  N   UNL     1      -9.663   7.871  71.006  1.00  0.00    -0.160 N  
HETATM   36  C   UNL     1      -8.340   7.999  71.870  1.00  0.00    -0.131 C  
HETATM   37  C   UNL     1     -10.208   5.419  71.569  1.00  0.00    -0.280 C  
HETATM   38  C   UNL     1     -10.611   6.886  71.713  1.00  0.00    -0.212 C  
HETATM   39  C   UNL     1      -9.989   5.041  70.117  1.00  0.00    -0.328 C  
HETATM   40  C   UNL     1      -8.838   5.869  69.583  1.00  0.00    -0.131 C  
HETATM   41  C   UNL     1      -9.189   7.360  69.632  1.00  0.00    -0.146 C  
ENDBRANCH   9  35
TORSDOF 6
ENDMDL
MODEL       36
REMARK 921   NORMALIZED FREE ENERGY PREDICTED BY IDOCK:   -3.06 KCAL/MOL
REMARK 922        TOTAL FREE ENERGY PREDICTED BY IDOCK:   -5.73 KCAL/MOL
REMARK 923 INTER-LIGAND FREE ENERGY PREDICTED BY IDOCK:   -4.33 KCAL/MOL
REMARK 924 INTRA-LIGAND FREE ENERGY PREDICTED BY IDOCK:   -1.40 KCAL/MOL
REMARK 927      BINDING AFFINITY PREDICTED BY RF-SCORE:    0.00 PKD
ROOT
HETATM    1  C   UNL     1      -8.636  11.719  65.710  1.00  0.00     0.214 C  
HETATM    2  C   UNL     1      -9.946  11.159  66.051  1.00  0.00    -0.280 C  
HETATM    3  C   UNL     1      -9.751  12.086  67.254  1.00  0.00    -0.185 C  
HETATM    4  C   UNL     1      -5.840   9.044  69.132  1.00  0.00    -0.039 C  
HETATM    5  C   UNL     1      -7.796  12.769  67.267  1.00  0.00    -0.146 C  
HETATM    6  C   UNL     1      -8.869  13.217  66.707  1.00  0.00    -0.140 C  
HETATM    7  C   UNL     1      -7.152   8.682  68.365  1.00  0.00    -0.077 C  
HETATM    8  C   UNL     1      -8.130   7.914  69.469  1.00  0.00    -0.121 C  
HETATM    9  C   UNL     1      -8.751   6.560  69.025  1.00  0.00    -0.128 C  
HETATM   10  C   UNL     1      -7.595   5.749  68.400  1.00  0.00    -0.089 C  
HETATM   11  C   UNL     1      -7.513   6.407  67.014  1.00  0.00    -0.084 C  
HETATM   12  C   UNL     1      -9.251  14.560  66.094  1.00  0.00    -0.175 C  
HETATM   13  C   UNL     1      -8.511  12.896  68.633  1.00  0.00     0.046 C  
HETATM   14  C   UNL     1      -6.686   7.725  67.189  1.00  0.00    -0.068 C  
HETATM   15  C   UNL     1      -6.361   8.381  65.849  1.00  0.00    -0.052 C  
HETATM   16  C   UNL     1      -7.661  11.312  68.936  1.00  0.00    -0.126 C  
HETATM   17  C   UNL     1      -7.413   9.350  65.363  1.00  0.00    -0.099 C  
HETATM   18  C   UNL     1      -7.817  10.073  67.858  1.00  0.00    -0.090 C  
HETATM   19  C   UNL     1      -7.522  10.526  66.335  1.00  0.00    -0.133 C  
ENDROOT
BRANCH   3  20
HETATM   20  N   UNL     1     -11.022  11.749  68.531  1.00  0.00    -0.212 N  
HETATM   21  C   UNL     1     -11.437  12.882  69.693  1.00  0.00    -0.251 C  
HETATM   22  C   UNL     1     -12.489  12.348  70.653  1.00  0.00    -0.320 C  
HETATM   23  C   UNL     1     -10.687  10.485  69.243  1.00  0.00    -0.234 C  
HETATM   24  C   UNL     1     -11.991  11.065  71.300  1.00  0.00    -0.144 C  
HETATM   25  C   UNL     1     -12.382  11.651  67.711  1.00  0.00     0.880 C  
HETATM   26  C   UNL     1     -11.733  10.022  70.234  1.00  0.00    -0.327 C  
ENDBRANCH   3  20
BRANCH   5  27
HETATM   27  O   UNL     1      -7.295  14.347  67.421  1.00  0.00    -0.184 OA 
BRANCH  27  28
HETATM   28  C   UNL     1      -6.113  14.829  67.882  1.00  0.00    -0.154 C  
HETATM   29  C   UNL     1      -6.144  16.335  67.829  1.00  0.00    -0.153 C  
HETATM   30  O   UNL     1      -5.278  14.154  68.461  1.00  0.00    -0.086 OA 
ENDBRANCH  27  28
ENDBRANCH   5  27
BRANCH  10  31
HETATM   31  O   UNL     1      -6.227   5.710  68.856  1.00  0.00    -0.027 OA 
BRANCH  31  32
HETATM   32  C   UNL     1      -5.936   4.526  69.547  1.00  0.00    -0.018 C  
HETATM   33  C   UNL     1      -6.020   4.781  71.012  1.00  0.00    -0.017 C  
HETATM   34  O   UNL     1      -5.725   3.441  69.018  1.00  0.00    -0.020 OA 
ENDBRANCH  31  32
ENDBRANCH  10  31
BRANCH   9  35
HETATM   35  N   UNL     1      -9.626   5.630  70.164  1.00  0.00    -0.161 N  
HETATM   36  C   UNL     1     -11.180   5.877  69.968  1.00  0.00    -0.270 C  
HETATM   37  C   UNL     1      -9.775   3.254  71.145  1.00  0.00    -0.212 C  
HETATM   38  C   UNL     1      -9.344   4.129  69.968  1.00  0.00    -0.167 C  
HETATM   39  C   UNL     1      -9.208   3.763  72.455  1.00  0.00    -0.157 C  
HETATM   40  C   UNL     1      -9.771   5.147  72.705  1.00  0.00    -0.177 C  
HETATM   41  C   UNL     1      -9.329   6.109  71.598  1.00  0.00    -0.148 C  
ENDBRANCH   9  35
TORSDOF 6
ENDMDL
MODEL       37
REMARK 921   NORMALIZED FREE ENERGY PREDICTED BY IDOCK:   -3.04 KCAL/MOL
REMARK 922        TOTAL FREE ENERGY PREDICTED BY IDOCK:   -5.70 KCAL/MOL
REMARK 923 INTER-LIGAND FREE ENERGY PREDICTED BY IDOCK:   -6.41 KCAL/MOL
REMARK 924 INTRA-LIGAND FREE ENERGY PREDICTED BY IDOCK:    0.71 KCAL/MOL
REMARK 927      BINDING AFFINITY PREDICTED BY RF-SCORE:    0.00 PKD
ROOT
HETATM    1  C   UNL     1     -11.010  13.139  65.142  1.00  0.00    -0.317 C  
HETATM    2  C   UNL     1     -11.878  12.454  66.102  1.00  0.00    -0.442 C  
HETATM    3  C   UNL     1     -11.131  13.384  67.063  1.00  0.00    -0.292 C  
HETATM    4  C   UNL     1      -6.613  10.711  66.345  1.00  0.00    -0.120 C  
HETATM    5  C   UNL     1      -9.540  14.250  66.058  1.00  0.00    -0.243 C  
HETATM    6  C   UNL     1     -10.775  14.599  66.194  1.00  0.00    -0.314 C  
HETATM    7  C   UNL     1      -8.099  10.233  66.388  1.00  0.00    -0.123 C  
HETATM    8  C   UNL     1      -8.259   9.364  67.797  1.00  0.00    -0.114 C  
HETATM    9  C   UNL     1      -8.919   7.962  67.679  1.00  0.00    -0.131 C  
HETATM   10  C   UNL     1      -8.231   7.270  66.481  1.00  0.00    -0.117 C  
HETATM   11  C   UNL     1      -8.965   7.947  65.313  1.00  0.00     0.125 C  
HETATM   12  C   UNL     1     -11.529  15.905  65.966  1.00  0.00     0.360 C  
HETATM   13  C   UNL     1      -9.405  14.295  67.598  1.00  0.00    -0.201 C  
HETATM   14  C   UNL     1      -8.277   9.336  65.092  1.00  0.00    -0.143 C  
HETATM   15  C   UNL     1      -8.782  10.032  63.831  1.00  0.00    -0.219 C  
HETATM   16  C   UNL     1      -8.411  12.797  67.299  1.00  0.00    -0.194 C  
HETATM   17  C   UNL     1      -9.998  10.901  64.049  1.00  0.00    -0.403 C  
HETATM   18  C   UNL     1      -9.035  11.558  66.405  1.00  0.00    -0.200 C  
HETATM   19  C   UNL     1      -9.650  12.052  64.994  1.00  0.00    -0.066 C  
ENDROOT
BRANCH   3  20
HETATM   20  N   UNL     1     -11.474  12.915  68.800  1.00  0.00    -0.281 N  
HETATM   21  C   UNL     1     -12.228  11.472  69.198  1.00  0.00    -0.221 C  
HETATM   22  C   UNL     1     -12.428  11.335  70.700  1.00  0.00    -0.439 C  
HETATM   23  C   UNL     1     -12.229  14.009  69.471  1.00  0.00    -0.308 C  
HETATM   24  C   UNL     1     -13.218  12.522  71.225  1.00  0.00    -0.098 C  
HETATM   25  C   UNL     1     -10.034  12.682  69.434  1.00  0.00     0.824 C  
HETATM   26  C   UNL     1     -12.458  13.803  70.953  1.00  0.00    -0.451 C  
ENDBRANCH   3  20
BRANCH   5  27
HETATM   27  O   UNL     1      -9.155  15.866  66.011  1.00  0.00    -0.335 OA 
BRANCH  27  28
HETATM   28  C   UNL     1      -7.992  16.480  66.343  1.00  0.00    -0.317 C  
HETATM   29  C   UNL     1      -8.290  17.888  66.792  1.00  0.00    -0.273 C  
HETATM   30  O   UNL     1      -6.927  15.900  66.481  1.00  0.00    -0.135 OA 
ENDBRANCH  27  28
ENDBRANCH   5  27
BRANCH  10  31
HETATM   31  O   UNL     1      -6.837   7.357  66.123  1.00  0.00    -0.055 OA 
BRANCH  31  32
HETATM   32  C   UNL     1      -6.447   6.316  65.269  1.00  0.00    -0.039 C  
HETATM   33  C   UNL     1      -5.486   6.845  64.261  1.00  0.00    -0.032 C  
HETATM   34  O   UNL     1      -6.787   5.146  65.392  1.00  0.00    -0.057 OA 
ENDBRANCH  31  32
ENDBRANCH  10  31
BRANCH   9  35
HETATM   35  N   UNL     1      -8.963   6.941  69.053  1.00  0.00    -0.133 N  
HETATM   36  C   UNL     1      -8.912   5.426  68.588  1.00  0.00    -0.107 C  
HETATM   37  C   UNL     1      -7.890   6.628  71.372  1.00  0.00    -0.099 C  
HETATM   38  C   UNL     1      -7.753   7.210  69.965  1.00  0.00    -0.103 C  
HETATM   39  C   UNL     1      -9.190   7.053  72.026  1.00  0.00    -0.148 C  
HETATM   40  C   UNL     1     -10.335   6.496  71.205  1.00  0.00    -0.237 C  
HETATM   41  C   UNL     1     -10.308   7.083  69.790  1.00  0.00    -0.212 C  
ENDBRANCH   9  35
TORSDOF 6
ENDMDL
MODEL       38
REMARK 921   NORMALIZED FREE ENERGY PREDICTED BY IDOCK:   -2.85 KCAL/MOL
REMARK 922        TOTAL FREE ENERGY PREDICTED BY IDOCK:   -5.44 KCAL/MOL
REMARK 923 INTER-LIGAND FREE ENERGY PREDICTED BY IDOCK:   -3.93 KCAL/MOL
REMARK 924 INTRA-LIGAND FREE ENERGY PREDICTED BY IDOCK:   -1.51 KCAL/MOL
REMARK 927      BINDING AFFINITY PREDICTED BY RF-SCORE:    0.00 PKD
ROOT
HETATM    1  C   UNL     1     -11.555  12.881  66.442  1.00  0.00    -0.425 C  
HETATM    2  C   UNL     1     -12.145  11.605  66.854  1.00  0.00     0.529 C  
HETATM    3  C   UNL     1     -11.245  11.866  68.066  1.00  0.00    -0.257 C  
HETATM    4  C   UNL     1      -6.885  11.086  65.158  1.00  0.00     0.446 C  
HETATM    5  C   UNL     1      -9.972  13.440  67.630  1.00  0.00    -0.229 C  
HETATM    6  C   UNL     1     -11.158  13.397  68.135  1.00  0.00    -0.284 C  
HETATM    7  C   UNL     1      -8.296  10.420  65.101  1.00  0.00    -0.165 C  
HETATM    8  C   UNL     1      -8.086   8.858  65.633  1.00  0.00    -0.113 C  
HETATM    9  C   UNL     1      -8.685   7.734  64.743  1.00  0.00     0.254 C  
HETATM   10  C   UNL     1      -8.256   8.066  63.296  1.00  0.00    -0.048 C  
HETATM   11  C   UNL     1      -9.270   9.167  62.953  1.00  0.00     0.311 C  
HETATM   12  C   UNL     1     -12.008  14.401  68.908  1.00  0.00    -0.337 C  
HETATM   13  C   UNL     1      -9.490  12.553  68.802  1.00  0.00     0.099 C  
HETATM   14  C   UNL     1      -8.721  10.496  63.574  1.00  0.00    -0.187 C  
HETATM   15  C   UNL     1      -9.536  11.712  63.141  1.00  0.00    -0.286 C  
HETATM   16  C   UNL     1      -8.518  11.770  67.473  1.00  0.00    -0.154 C  
HETATM   17  C   UNL     1     -10.711  12.021  64.038  1.00  0.00    -0.426 C  
HETATM   18  C   UNL     1      -9.268  11.255  66.097  1.00  0.00    -0.222 C  
HETATM   19  C   UNL     1     -10.213  12.387  65.437  1.00  0.00    -0.302 C  
ENDROOT
BRANCH   3  20
HETATM   20  N   UNL     1     -11.158  10.375  69.127  1.00  0.00    -0.234 N  
HETATM   21  C   UNL     1     -10.153  10.295  70.466  1.00  0.00     0.219 C  
HETATM   22  C   UNL     1     -10.239   8.943  71.157  1.00  0.00    -0.336 C  
HETATM   23  C   UNL     1     -10.871   9.181  68.285  1.00  0.00    -0.051 C  
HETATM   24  C   UNL     1      -9.913   7.837  70.167  1.00  0.00    -0.186 C  
HETATM   25  C   UNL     1     -12.587  10.308  69.825  1.00  0.00     0.182 C  
HETATM   26  C   UNL     1     -10.908   7.862  69.026  1.00  0.00    -0.029 C  
ENDBRANCH   3  20
BRANCH   5  27
HETATM   27  O   UNL     1      -9.688  14.780  68.572  1.00  0.00    -0.206 OA 
BRANCH  27  28
HETATM   28  C   UNL     1      -8.783  15.775  68.395  1.00  0.00    -0.177 C  
HETATM   29  C   UNL     1      -8.575  15.994  66.919  1.00  0.00    -0.263 C  
HETATM   30  O   UNL     1      -8.400  16.517  69.285  1.00  0.00    -0.201 OA 
ENDBRANCH  27  28
ENDBRANCH   5  27
BRANCH  10  31
HETATM   31  O   UNL     1      -6.987   8.609  62.879  1.00  0.00    -0.091 OA 
BRANCH  31  32
HETATM   32  C   UNL     1      -5.911   7.811  63.291  1.00  0.00    -0.059 C  
HETATM   33  C   UNL     1      -5.818   6.618  62.404  1.00  0.00    -0.035 C  
HETATM   34  O   UNL     1      -5.132   8.099  64.191  1.00  0.00    -0.039 OA 
ENDBRANCH  31  32
ENDBRANCH  10  31
BRANCH   9  35
HETATM   35  N   UNL     1      -8.362   6.099  65.133  1.00  0.00    -0.143 N  
HETATM   36  C   UNL     1      -9.437   5.582  66.179  1.00  0.00    -0.151 C  
HETATM   37  C   UNL     1      -7.821   3.830  64.043  1.00  0.00    -0.084 C  
HETATM   38  C   UNL     1      -8.444   5.216  63.875  1.00  0.00    -0.119 C  
HETATM   39  C   UNL     1      -6.404   3.918  64.574  1.00  0.00    -0.030 C  
HETATM   40  C   UNL     1      -6.455   4.548  65.951  1.00  0.00    -0.037 C  
HETATM   41  C   UNL     1      -7.011   5.973  65.862  1.00  0.00    -0.062 C  
ENDBRANCH   9  35
TORSDOF 6
ENDMDL
MODEL       39
REMARK 921   NORMALIZED FREE ENERGY PREDICTED BY IDOCK:   -2.78 KCAL/MOL
REMARK 922        TOTAL FREE ENERGY PREDICTED BY IDOCK:   -5.35 KCAL/MOL
REMARK 923 INTER-LIGAND FREE ENERGY PREDICTED BY IDOCK:   -4.11 KCAL/MOL
REMARK 924 INTRA-LIGAND FREE ENERGY PREDICTED BY IDOCK:   -1.24 KCAL/MOL
REMARK 927      BINDING AFFINITY PREDICTED BY RF-SCORE:    0.00 PKD
ROOT
HETATM    1  C   UNL     1      -7.611   7.676  70.311  1.00  0.00    -0.089 C  
HETATM    2  C   UNL     1      -8.476   8.369  71.268  1.00  0.00    -0.183 C  
HETATM    3  C   UNL     1      -9.547   7.801  70.332  1.00  0.00    -0.175 C  
HETATM    4  C   UNL     1      -8.045  11.054  66.428  1.00  0.00    -0.166 C  
HETATM    5  C   UNL     1      -8.627   7.056  68.632  1.00  0.00    -0.120 C  
HETATM    6  C   UNL     1      -8.905   6.523  69.774  1.00  0.00    -0.143 C  
HETATM    7  C   UNL     1      -8.091  11.253  67.976  1.00  0.00    -0.128 C  
HETATM    8  C   UNL     1      -9.316  12.341  68.262  1.00  0.00    -0.199 C  
HETATM    9  C   UNL     1      -8.975  13.547  69.180  1.00  0.00     0.554 C  
HETATM   10  C   UNL     1      -7.625  14.100  68.670  1.00  0.00    -0.126 C  
HETATM   11  C   UNL     1      -6.657  13.082  69.291  1.00  0.00    -0.089 C  
HETATM   12  C   UNL     1      -8.979   5.082  70.269  1.00  0.00    -0.151 C  
HETATM   13  C   UNL     1     -10.136   7.345  68.450  1.00  0.00    -0.196 C  
HETATM   14  C   UNL     1      -6.661  11.825  68.357  1.00  0.00    -0.065 C  
HETATM   15  C   UNL     1      -5.591  10.811  68.753  1.00  0.00    -0.040 C  
HETATM   16  C   UNL     1      -9.492   8.909  67.769  1.00  0.00    -0.163 C  
HETATM   17  C   UNL     1      -6.048   9.797  69.775  1.00  0.00    -0.043 C  
HETATM   18  C   UNL     1      -8.420   9.809  68.641  1.00  0.00    -0.116 C  
HETATM   19  C   UNL     1      -7.172   8.941  69.188  1.00  0.00    -0.067 C  
ENDROOT
BRANCH   3  20
HETATM   20  N   UNL     1     -11.181   8.537  70.712  1.00  0.00    -0.255 N  
HETATM   21  C   UNL     1     -11.695   9.969  70.010  1.00  0.00    -0.242 C  
HETATM   22  C   UNL     1     -13.069  10.384  70.515  1.00  0.00    -0.203 C  
HETATM   23  C   UNL     1     -11.328   8.687  72.186  1.00  0.00    -0.364 C  
HETATM   24  C   UNL     1     -13.048  10.499  72.031  1.00  0.00    -0.511 C  
HETATM   25  C   UNL     1     -12.226   7.510  70.090  1.00  0.00     0.436 C  
HETATM   26  C   UNL     1     -12.691   9.160  72.640  1.00  0.00    -0.254 C  
ENDBRANCH   3  20
BRANCH   5  27
HETATM   27  O   UNL     1      -8.864   5.561  67.947  1.00  0.00    -0.107 OA 
BRANCH  27  28
HETATM   28  C   UNL     1      -9.097   5.240  66.649  1.00  0.00    -0.122 C  
HETATM   29  C   UNL     1      -7.821   5.409  65.865  1.00  0.00    -0.103 C  
HETATM   30  O   UNL     1     -10.106   4.681  66.253  1.00  0.00    -0.220 OA 
ENDBRANCH  27  28
ENDBRANCH   5  27
BRANCH  10  31
HETATM   31  O   UNL     1      -7.202  14.198  67.294  1.00  0.00    -0.148 OA 
BRANCH  31  32
HETATM   32  C   UNL     1      -7.395  15.486  66.775  1.00  0.00     0.136 C  
HETATM   33  C   UNL     1      -6.224  16.336  67.128  1.00  0.00    -0.176 C  
HETATM   34  O   UNL     1      -8.343  15.823  66.076  1.00  0.00    -0.143 OA 
ENDBRANCH  31  32
ENDBRANCH  10  31
BRANCH   9  35
HETATM   35  N   UNL     1     -10.128  14.796  69.382  1.00  0.00    -0.160 N  
HETATM   36  C   UNL     1     -11.204  14.355  70.460  1.00  0.00     0.033 C  
HETATM   37  C   UNL     1     -10.311  17.340  69.731  1.00  0.00     0.165 C  
HETATM   38  C   UNL     1      -9.448  16.086  69.873  1.00  0.00     0.210 C  
HETATM   39  C   UNL     1     -10.845  17.491  68.321  1.00  0.00    -0.223 C  
HETATM   40  C   UNL     1     -11.739  16.305  68.026  1.00  0.00     0.130 C  
HETATM   41  C   UNL     1     -10.933  15.004  68.084  1.00  0.00    -0.279 C  
ENDBRANCH   9  35
TORSDOF 6
ENDMDL
MODEL       40
REMARK 921   NORMALIZED FREE ENERGY PREDICTED BY IDOCK:   -2.72 KCAL/MOL
REMARK 922        TOTAL FREE ENERGY PREDICTED BY IDOCK:   -5.27 KCAL/MOL
REMARK 923 INTER-LIGAND FREE ENERGY PREDICTED BY IDOCK:   -5.88 KCAL/MOL
REMARK 924 INTRA-LIGAND FREE ENERGY PREDICTED BY IDOCK:    0.62 KCAL/MOL
REMARK 927      BINDING AFFINITY PREDICTED BY RF-SCORE:    0.00 PKD
ROOT
HETATM    1  C   UNL     1      -7.203  12.754  68.209  1.00  0.00    -0.114 C  
HETATM    2  C   UNL     1      -7.023  11.917  67.021  1.00  0.00    -0.116 C  
HETATM    3  C   UNL     1      -8.459  12.391  66.776  1.00  0.00    -0.095 C  
HETATM    4  C   UNL     1     -10.240   9.526  70.862  1.00  0.00    -0.356 C  
HETATM    5  C   UNL     1      -9.162  13.319  68.488  1.00  0.00    -0.073 C  
HETATM    6  C   UNL     1      -8.515  13.762  67.463  1.00  0.00    -0.199 C  
HETATM    7  C   UNL     1      -9.099   9.254  69.831  1.00  0.00    -0.203 C  
HETATM    8  C   UNL     1      -9.641   8.012  68.867  1.00  0.00    -0.152 C  
HETATM    9  C   UNL     1      -8.670   6.816  68.661  1.00  0.00    -0.125 C  
HETATM   10  C   UNL     1      -8.136   6.458  70.066  1.00  0.00    -0.121 C  
HETATM   11  C   UNL     1      -7.080   7.558  70.250  1.00  0.00    -0.060 C  
HETATM   12  C   UNL     1      -8.261  15.159  66.906  1.00  0.00    -0.234 C  
HETATM   13  C   UNL     1     -10.280  12.855  67.526  1.00  0.00    -0.213 C  
HETATM   14  C   UNL     1      -7.843   8.845  70.710  1.00  0.00    -0.135 C  
HETATM   15  C   UNL     1      -6.888   9.964  71.117  1.00  0.00     0.229 C  
HETATM   16  C   UNL     1     -10.292  11.415  68.643  1.00  0.00    -0.219 C  
HETATM   17  C   UNL     1      -6.473  10.868  69.980  1.00  0.00    -0.151 C  
HETATM   18  C   UNL     1      -8.887  10.615  68.972  1.00  0.00    -0.154 C  
HETATM   19  C   UNL     1      -7.695  11.604  69.430  1.00  0.00     0.280 C  
ENDROOT
BRANCH   3  20
HETATM   20  N   UNL     1      -9.217  11.442  65.403  1.00  0.00    -0.190 N  
HETATM   21  C   UNL     1      -8.293  10.570  64.310  1.00  0.00    -0.092 C  
HETATM   22  C   UNL     1      -9.155   9.901  63.250  1.00  0.00    -0.294 C  
HETATM   23  C   UNL     1     -10.110  12.336  64.616  1.00  0.00    -0.250 C  
HETATM   24  C   UNL     1      -9.997  10.947  62.536  1.00  0.00     0.023 C  
HETATM   25  C   UNL     1     -10.006  10.267  66.130  1.00  0.00    -0.238 C  
HETATM   26  C   UNL     1     -10.904  11.640  63.532  1.00  0.00    -0.497 C  
ENDBRANCH   3  20
BRANCH   5  27
HETATM   27  O   UNL     1      -9.904  14.803  68.582  1.00  0.00    -0.213 OA 
BRANCH  27  28
HETATM   28  C   UNL     1     -11.203  15.096  68.839  1.00  0.00    -0.283 C  
HETATM   29  C   UNL     1     -11.571  14.551  70.195  1.00  0.00    -0.334 C  
HETATM   30  O   UNL     1     -11.871  15.877  68.181  1.00  0.00    -0.231 OA 
ENDBRANCH  27  28
ENDBRANCH   5  27
BRANCH  10  31
HETATM   31  O   UNL     1      -8.883   6.475  71.300  1.00  0.00    -0.137 OA 
BRANCH  31  32
HETATM   32  C   UNL     1      -8.954   5.205  71.890  1.00  0.00    -0.134 C  
HETATM   33  C   UNL     1     -10.380   4.786  71.981  1.00  0.00    -0.247 C  
HETATM   34  O   UNL     1      -7.984   4.526  72.205  1.00  0.00    -0.095 OA 
ENDBRANCH  31  32
ENDBRANCH  10  31
BRANCH   9  35
HETATM   35  N   UNL     1      -9.220   5.427  67.826  1.00  0.00    -0.108 N  
HETATM   36  C   UNL     1     -10.797   5.322  67.955  1.00  0.00     0.255 C  
HETATM   37  C   UNL     1      -8.972   4.188  65.583  1.00  0.00    -0.130 C  
HETATM   38  C   UNL     1      -8.859   5.516  66.333  1.00  0.00    -0.126 C  
HETATM   39  C   UNL     1      -8.200   3.087  66.282  1.00  0.00    -0.091 C  
HETATM   40  C   UNL     1      -8.814   2.875  67.649  1.00  0.00    -0.163 C  
HETATM   41  C   UNL     1      -8.683   4.146  68.494  1.00  0.00    -0.098 C  
ENDBRANCH   9  35
TORSDOF 6
ENDMDL
MODEL       41
REMARK 921   NORMALIZED FREE ENERGY PREDICTED BY IDOCK:   -2.70 KCAL/MOL
REMARK 922        TOTAL FREE ENERGY PREDICTED BY IDOCK:   -5.24 KCAL/MOL
REMARK 923 INTER-LIGAND FREE ENERGY PREDICTED BY IDOCK:   -4.31 KCAL/MOL
REMARK 924 INTRA-LIGAND FREE ENERGY PREDICTED BY IDOCK:   -0.93 KCAL/MOL
REMARK 927      BINDING AFFINITY PREDICTED BY RF-SCORE:    0.00 PKD
ROOT
HETATM    1  C   UNL     1     -10.906  11.098  67.053  1.00  0.00    -0.338 C  
HETATM    2  C   UNL     1     -11.426   9.877  67.673  1.00  0.00     0.479 C  
HETATM    3  C   UNL     1     -10.601  10.420  68.845  1.00  0.00    -0.216 C  
HETATM    4  C   UNL     1      -6.071   9.458  66.270  1.00  0.00    -0.060 C  
HETATM    5  C   UNL     1      -9.420  11.981  68.168  1.00  0.00    -0.200 C  
HETATM    6  C   UNL     1     -10.622  11.941  68.634  1.00  0.00    -0.259 C  
HETATM    7  C   UNL     1      -7.429   8.688  66.291  1.00  0.00    -0.090 C  
HETATM    8  C   UNL     1      -7.138   7.268  67.107  1.00  0.00    -0.087 C  
HETATM    9  C   UNL     1      -7.618   5.959  66.421  1.00  0.00    -0.091 C  
HETATM   10  C   UNL     1      -7.148   6.055  64.952  1.00  0.00    -0.060 C  
HETATM   11  C   UNL     1      -8.218   6.997  64.381  1.00  0.00     0.025 C  
HETATM   12  C   UNL     1     -11.572  13.001  69.182  1.00  0.00    -0.368 C  
HETATM   13  C   UNL     1      -8.931  11.359  69.498  1.00  0.00     0.751 C  
HETATM   14  C   UNL     1      -7.790   8.453  64.764  1.00  0.00    -0.128 C  
HETATM   15  C   UNL     1      -8.665   9.506  64.089  1.00  0.00    -0.239 C  
HETATM   16  C   UNL     1      -7.850  10.424  68.367  1.00  0.00    -0.104 C  
HETATM   17  C   UNL     1      -9.898   9.883  64.876  1.00  0.00    -0.282 C  
HETATM   18  C   UNL     1      -8.500   9.613  67.086  1.00  0.00    -0.131 C  
HETATM   19  C   UNL     1      -9.489  10.533  66.199  1.00  0.00    -0.222 C  
ENDROOT
BRANCH   3  20
HETATM   20  N   UNL     1     -10.460   9.157  70.164  1.00  0.00    -0.206 N  
HETATM   21  C   UNL     1      -9.182   9.143  71.248  1.00  0.00    -0.261 C  
HETATM   22  C   UNL     1      -9.279   7.977  72.221  1.00  0.00    -0.243 C  
HETATM   23  C   UNL     1     -10.547   7.798  69.563  1.00  0.00    -0.221 C  
HETATM   24  C   UNL     1      -9.352   6.669  71.450  1.00  0.00    -0.151 C  
HETATM   25  C   UNL     1     -11.674   9.477  71.142  1.00  0.00    -0.363 C  
HETATM   26  C   UNL     1     -10.580   6.664  70.565  1.00  0.00    -0.270 C  
ENDBRANCH   3  20
BRANCH   5  27
HETATM   27  O   UNL     1      -9.271  13.486  68.856  1.00  0.00     0.017 OA 
BRANCH  27  28
HETATM   28  C   UNL     1      -9.015  14.679  68.261  1.00  0.00    -0.184 C  
HETATM   29  C   UNL     1      -7.525  14.901  68.227  1.00  0.00    -0.113 C  
HETATM   30  O   UNL     1      -9.846  15.330  67.650  1.00  0.00    -0.216 OA 
ENDBRANCH  27  28
ENDBRANCH   5  27
BRANCH  10  31
HETATM   31  O   UNL     1      -5.901   6.608  64.483  1.00  0.00    -0.029 OA 
BRANCH  31  32
HETATM   32  C   UNL     1      -5.642   6.265  63.149  1.00  0.00    -0.018 C  
HETATM   33  C   UNL     1      -5.479   7.509  62.346  1.00  0.00    -0.047 C  
HETATM   34  O   UNL     1      -5.497   5.120  62.737  1.00  0.00    -0.013 OA 
ENDBRANCH  31  32
ENDBRANCH  10  31
BRANCH   9  35
HETATM   35  N   UNL     1      -7.202   4.451  67.115  1.00  0.00    -0.068 N  
HETATM   36  C   UNL     1      -6.777   4.663  68.628  1.00  0.00    -0.050 C  
HETATM   37  C   UNL     1      -8.040   2.026  67.329  1.00  0.00    -0.067 C  
HETATM   38  C   UNL     1      -8.404   3.490  67.079  1.00  0.00    -0.096 C  
HETATM   39  C   UNL     1      -6.926   1.564  66.411  1.00  0.00    -0.042 C  
HETATM   40  C   UNL     1      -5.691   2.385  66.720  1.00  0.00    -0.022 C  
HETATM   41  C   UNL     1      -5.951   3.867  66.432  1.00  0.00    -0.024 C  
ENDBRANCH   9  35
TORSDOF 6
ENDMDL
MODEL       42
REMARK 921   NORMALIZED FREE ENERGY PREDICTED BY IDOCK:   -2.17 KCAL/MOL
REMARK 922        TOTAL FREE ENERGY PREDICTED BY IDOCK:   -4.52 KCAL/MOL
REMARK 923 INTER-LIGAND FREE ENERGY PREDICTED BY IDOCK:   -4.15 KCAL/MOL
REMARK 924 INTRA-LIGAND FREE ENERGY PREDICTED BY IDOCK:   -0.37 KCAL/MOL
REMARK 927      BINDING AFFINITY PREDICTED BY RF-SCORE:    0.00 PKD
ROOT
HETATM    1  C   UNL     1      -6.932   7.780  65.171  1.00  0.00    -0.059 C  
HETATM    2  C   UNL     1      -6.083   8.774  65.833  1.00  0.00    -0.052 C  
HETATM    3  C   UNL     1      -6.625   8.046  67.068  1.00  0.00    -0.057 C  
HETATM    4  C   UNL     1     -11.491   9.965  66.226  1.00  0.00     1.777 C  
HETATM    5  C   UNL     1      -8.167   6.793  66.487  1.00  0.00    -0.117 C  
HETATM    6  C   UNL     1      -6.891   6.620  66.566  1.00  0.00    -0.061 C  
HETATM    7  C   UNL     1     -10.080  10.590  65.987  1.00  0.00    -0.317 C  
HETATM    8  C   UNL     1      -9.919  11.800  67.116  1.00  0.00    -0.221 C  
HETATM    9  C   UNL     1      -9.456  13.187  66.588  1.00  0.00    -0.260 C  
HETATM   10  C   UNL     1     -10.321  13.476  65.341  1.00  0.00    -0.319 C  
HETATM   11  C   UNL     1      -9.605  12.604  64.299  1.00  0.00     0.237 C  
HETATM   12  C   UNL     1      -5.998   5.384  66.580  1.00  0.00    -0.022 C  
HETATM   13  C   UNL     1      -8.170   7.128  67.997  1.00  0.00    -0.120 C  
HETATM   14  C   UNL     1     -10.124  11.141  64.500  1.00  0.00    -0.364 C  
HETATM   15  C   UNL     1      -9.638  10.203  63.398  1.00  0.00    -0.236 C  
HETATM   16  C   UNL     1      -9.369   8.389  67.454  1.00  0.00    -0.178 C  
HETATM   17  C   UNL     1      -8.307   9.549  63.685  1.00  0.00    -0.176 C  
HETATM   18  C   UNL     1      -8.984   9.417  66.222  1.00  0.00    -0.189 C  
HETATM   19  C   UNL     1      -8.428   8.647  64.915  1.00  0.00    -0.180 C  
ENDROOT
BRANCH   3  20
HETATM   20  N   UNL     1      -6.204   8.975  68.590  1.00  0.00    -0.045 N  
HETATM   21  C   UNL     1      -5.331   8.283  69.841  1.00  0.00    -0.023 C  
HETATM   22  C   UNL     1      -5.144   9.248  71.002  1.00  0.00    -0.030 C  
HETATM   23  C   UNL     1      -7.444   9.551  69.180  1.00  0.00    -0.074 C  
HETATM   24  C   UNL     1      -6.499   9.735  71.490  1.00  0.00     0.247 C  
HETATM   25  C   UNL     1      -5.182  10.091  68.097  1.00  0.00    -0.035 C  
HETATM   26  C   UNL     1      -7.217  10.458  70.370  1.00  0.00     0.132 C  
ENDBRANCH   3  20
BRANCH   5  27
HETATM   27  O   UNL     1      -8.345   5.187  66.877  1.00  0.00    -0.108 OA 
BRANCH  27  28
HETATM   28  C   UNL     1      -9.389   4.561  67.477  1.00  0.00    -0.147 C  
HETATM   29  C   UNL     1      -8.890   3.840  68.703  1.00  0.00    -0.155 C  
HETATM   30  O   UNL     1     -10.559   4.760  67.196  1.00  0.00    -0.088 OA 
ENDBRANCH  27  28
ENDBRANCH   5  27
BRANCH  10  31
HETATM   31  O   UNL     1     -11.718  13.156  65.172  1.00  0.00    -0.313 OA 
BRANCH  31  32
HETATM   32  C   UNL     1     -12.280  13.821  64.073  1.00  0.00    -0.380 C  
HETATM   33  C   UNL     1     -12.027  15.283  64.205  1.00  0.00    -0.236 C  
HETATM   34  O   UNL     1     -12.823  13.269  63.124  1.00  0.00    -0.472 OA 
ENDBRANCH  31  32
ENDBRANCH  10  31
BRANCH   9  35
HETATM   35  N   UNL     1      -9.432  14.523  67.658  1.00  0.00    -0.206 N  
HETATM   36  C   UNL     1     -10.573  14.351  68.745  1.00  0.00    -0.254 C  
HETATM   37  C   UNL     1      -7.822  15.951  69.070  1.00  0.00    -0.216 C  
HETATM   38  C   UNL     1      -8.078  14.609  68.385  1.00  0.00    -0.147 C  
HETATM   39  C   UNL     1      -8.019  17.111  68.114  1.00  0.00    -0.216 C  
HETATM   40  C   UNL     1      -9.467  17.113  67.668  1.00  0.00    -0.241 C  
HETATM   41  C   UNL     1      -9.791  15.821  66.911  1.00  0.00    -0.236 C  
ENDBRANCH   9  35
TORSDOF 6
ENDMDL
MODEL       43
REMARK 921   NORMALIZED FREE ENERGY PREDICTED BY IDOCK:   -2.14 KCAL/MOL
REMARK 922        TOTAL FREE ENERGY PREDICTED BY IDOCK:   -4.48 KCAL/MOL
REMARK 923 INTER-LIGAND FREE ENERGY PREDICTED BY IDOCK:   -3.53 KCAL/MOL
REMARK 924 INTRA-LIGAND FREE ENERGY PREDICTED BY IDOCK:   -0.95 KCAL/MOL
REMARK 927      BINDING AFFINITY PREDICTED BY RF-SCORE:    0.00 PKD
ROOT
HETATM    1  C   UNL     1      -5.380  10.006  67.826  1.00  0.00    -0.038 C  
HETATM    2  C   UNL     1      -5.149   9.390  66.517  1.00  0.00    -0.043 C  
HETATM    3  C   UNL     1      -6.260  10.373  66.137  1.00  0.00    -0.101 C  
HETATM    4  C   UNL     1      -9.828   7.620  68.924  1.00  0.00    -0.164 C  
HETATM    5  C   UNL     1      -7.083  11.159  67.867  1.00  0.00    -0.081 C  
HETATM    6  C   UNL     1      -6.086  11.528  67.134  1.00  0.00    -0.115 C  
HETATM    7  C   UNL     1      -8.589   7.159  68.092  1.00  0.00    -0.129 C  
HETATM    8  C   UNL     1      -9.201   6.383  66.754  1.00  0.00    -0.154 C  
HETATM    9  C   UNL     1      -8.610   4.982  66.431  1.00  0.00    -0.111 C  
HETATM   10  C   UNL     1      -8.599   4.210  67.769  1.00  0.00    -0.100 C  
HETATM   11  C   UNL     1      -7.352   4.817  68.429  1.00  0.00    -0.065 C  
HETATM   12  C   UNL     1      -5.290  12.823  67.018  1.00  0.00     0.310 C  
HETATM   13  C   UNL     1      -7.992  11.302  66.623  1.00  0.00    -0.159 C  
HETATM   14  C   UNL     1      -7.792   6.183  69.055  1.00  0.00    -0.100 C  
HETATM   15  C   UNL     1      -6.691   6.802  69.913  1.00  0.00    -0.049 C  
HETATM   16  C   UNL     1      -8.726   9.778  67.304  1.00  0.00    -0.135 C  
HETATM   17  C   UNL     1      -5.740   7.694  69.150  1.00  0.00    -0.030 C  
HETATM   18  C   UNL     1      -7.763   8.491  67.673  1.00  0.00    -0.102 C  
HETATM   19  C   UNL     1      -6.497   8.899  68.590  1.00  0.00    -0.054 C  
ENDROOT
BRANCH   3  20
HETATM   20  N   UNL     1      -6.873  10.019  64.447  1.00  0.00    -0.126 N  
HETATM   21  C   UNL     1      -8.074  10.939  63.726  1.00  0.00     0.264 C  
HETATM   22  C   UNL     1      -8.427  10.421  62.340  1.00  0.00    -0.231 C  
HETATM   23  C   UNL     1      -7.295   8.593  64.360  1.00  0.00    -0.103 C  
HETATM   24  C   UNL     1      -8.841   8.961  62.427  1.00  0.00    -0.134 C  
HETATM   25  C   UNL     1      -5.636  10.353  63.504  1.00  0.00    -0.150 C  
HETATM   26  C   UNL     1      -7.696   8.136  62.975  1.00  0.00    -0.135 C  
ENDBRANCH   3  20
BRANCH   5  27
HETATM   27  O   UNL     1      -7.347  12.766  68.202  1.00  0.00    -0.096 OA 
BRANCH  27  28
HETATM   28  C   UNL     1      -7.045  13.469  69.322  1.00  0.00     0.038 C  
HETATM   29  C   UNL     1      -7.899  14.710  69.368  1.00  0.00    -0.028 C  
HETATM   30  O   UNL     1      -6.372  13.034  70.242  1.00  0.00    -0.051 OA 
ENDBRANCH  27  28
ENDBRANCH   5  27
BRANCH  10  31
HETATM   31  O   UNL     1      -9.607   4.262  68.800  1.00  0.00    -0.158 OA 
BRANCH  31  32
HETATM   32  C   UNL     1      -9.472   3.214  69.721  1.00  0.00    -0.128 C  
HETATM   33  C   UNL     1      -9.604   3.757  71.102  1.00  0.00    -0.246 C  
HETATM   34  O   UNL     1      -9.345   2.033  69.423  1.00  0.00    -0.117 OA 
ENDBRANCH  31  32
ENDBRANCH  10  31
BRANCH   9  35
HETATM   35  N   UNL     1      -9.307   4.052  65.175  1.00  0.00    -0.152 N  
HETATM   36  C   UNL     1     -10.870   4.309  65.129  1.00  0.00    -0.043 C  
HETATM   37  C   UNL     1      -8.983   3.443  62.694  1.00  0.00    -0.088 C  
HETATM   38  C   UNL     1      -8.708   4.448  63.813  1.00  0.00    -0.129 C  
HETATM   39  C   UNL     1      -8.579   2.038  63.096  1.00  0.00    -0.084 C  
HETATM   40  C   UNL     1      -9.429   1.624  64.279  1.00  0.00    -0.134 C  
HETATM   41  C   UNL     1      -9.164   2.547  65.473  1.00  0.00    -0.081 C  
ENDBRANCH   9  35
TORSDOF 6
ENDMDL
MODEL       44
REMARK 921   NORMALIZED FREE ENERGY PREDICTED BY IDOCK:   -2.13 KCAL/MOL
REMARK 922        TOTAL FREE ENERGY PREDICTED BY IDOCK:   -4.47 KCAL/MOL
REMARK 923 INTER-LIGAND FREE ENERGY PREDICTED BY IDOCK:   -3.32 KCAL/MOL
REMARK 924 INTRA-LIGAND FREE ENERGY PREDICTED BY IDOCK:   -1.15 KCAL/MOL
REMARK 927      BINDING AFFINITY PREDICTED BY RF-SCORE:    0.00 PKD
ROOT
HETATM    1  C   UNL     1      -8.161  17.179  66.296  1.00  0.00    -0.306 C  
HETATM    2  C   UNL     1      -8.545  16.230  65.249  1.00  0.00     2.042 C  
HETATM    3  C   UNL     1      -9.861  16.281  66.033  1.00  0.00    -0.343 C  
HETATM    4  C   UNL     1      -7.656  13.773  70.147  1.00  0.00     1.321 C  
HETATM    5  C   UNL     1      -9.538  17.272  67.822  1.00  0.00    -0.262 C  
HETATM    6  C   UNL     1      -9.867  17.688  66.646  1.00  0.00    -0.309 C  
HETATM    7  C   UNL     1      -7.428  13.631  68.609  1.00  0.00    -0.113 C  
HETATM    8  C   UNL     1      -8.060  12.151  68.188  1.00  0.00    -0.161 C  
HETATM    9  C   UNL     1      -7.149  11.221  67.340  1.00  0.00    -0.109 C  
HETATM   10  C   UNL     1      -5.765  11.244  68.027  1.00  0.00    -0.042 C  
HETATM   11  C   UNL     1      -5.226  12.589  67.516  1.00  0.00    -0.103 C  
HETATM   12  C   UNL     1     -10.459  18.993  66.122  1.00  0.00    -0.541 C  
HETATM   13  C   UNL     1     -10.809  16.390  67.817  1.00  0.00    -0.306 C  
HETATM   14  C   UNL     1      -5.854  13.700  68.422  1.00  0.00    -0.098 C  
HETATM   15  C   UNL     1      -5.248  15.075  68.147  1.00  0.00    -0.119 C  
HETATM   16  C   UNL     1      -9.674  15.197  68.599  1.00  0.00    -0.216 C  
HETATM   17  C   UNL     1      -5.950  15.854  67.060  1.00  0.00     0.212 C  
HETATM   18  C   UNL     1      -8.231  14.840  67.884  1.00  0.00    -0.154 C  
HETATM   19  C   UNL     1      -7.387  16.159  67.486  1.00  0.00    -0.185 C  
ENDROOT
BRANCH   3  20
HETATM   20  N   UNL     1     -10.995  14.961  65.460  1.00  0.00    -0.334 N  
HETATM   21  C   UNL     1     -12.104  14.236  66.487  1.00  0.00    -0.454 C  
HETATM   22  C   UNL     1     -12.901  13.150  65.780  1.00  0.00    -0.015 C  
HETATM   23  C   UNL     1     -10.208  13.873  64.818  1.00  0.00    -0.324 C  
HETATM   24  C   UNL     1     -11.954  12.119  65.189  1.00  0.00    -0.324 C  
HETATM   25  C   UNL     1     -11.971  15.699  64.443  1.00  0.00    -0.136 C  
HETATM   26  C   UNL     1     -11.040  12.782  64.180  1.00  0.00    -0.432 C  
ENDBRANCH   3  20
BRANCH   5  27
HETATM   27  O   UNL     1     -10.444  18.517  68.448  1.00  0.00    -0.345 OA 
BRANCH  27  28
HETATM   28  C   UNL     1     -10.039  19.597  69.162  1.00  0.00    -0.304 C  
HETATM   29  C   UNL     1      -8.538  19.564  69.293  1.00  0.00     0.008 C  
HETATM   30  O   UNL     1     -10.757  20.546  69.433  1.00  0.00     0.157 OA 
ENDBRANCH  27  28
ENDBRANCH   5  27
BRANCH  10  31
HETATM   31  O   UNL     1      -5.510  11.275  69.446  1.00  0.00    -0.044 OA 
BRANCH  31  32
HETATM   32  C   UNL     1      -5.378   9.988  69.985  1.00  0.00    -0.038 C  
HETATM   33  C   UNL     1      -5.667  10.038  71.446  1.00  0.00    -0.002 C  
HETATM   34  O   UNL     1      -5.139   8.978  69.334  1.00  0.00    -0.034 OA 
ENDBRANCH  31  32
ENDBRANCH  10  31
BRANCH   9  35
HETATM   35  N   UNL     1      -7.661   9.620  67.015  1.00  0.00    -0.095 N  
HETATM   36  C   UNL     1      -6.451   8.788  66.418  1.00  0.00    -0.062 C  
HETATM   37  C   UNL     1      -8.944   7.655  68.073  1.00  0.00    -0.126 C  
HETATM   38  C   UNL     1      -8.135   8.931  68.307  1.00  0.00    -0.109 C  
HETATM   39  C   UNL     1     -10.092   7.892  67.112  1.00  0.00    -0.328 C  
HETATM   40  C   UNL     1      -9.510   8.296  65.774  1.00  0.00    -0.041 C  
HETATM   41  C   UNL     1      -8.732   9.609  65.907  1.00  0.00    -0.144 C  
ENDBRANCH   9  35
TORSDOF 6
ENDMDL
MODEL       45
REMARK 921   NORMALIZED FREE ENERGY PREDICTED BY IDOCK:   -1.99 KCAL/MOL
REMARK 922        TOTAL FREE ENERGY PREDICTED BY IDOCK:   -4.28 KCAL/MOL
REMARK 923 INTER-LIGAND FREE ENERGY PREDICTED BY IDOCK:   -2.96 KCAL/MOL
REMARK 924 INTRA-LIGAND FREE ENERGY PREDICTED BY IDOCK:   -1.32 KCAL/MOL
REMARK 927      BINDING AFFINITY PREDICTED BY RF-SCORE:    0.00 PKD
ROOT
HETATM    1  C   UNL     1      -9.768   4.255  66.358  1.00  0.00    -0.228 C  
HETATM    2  C   UNL     1      -9.942   5.595  65.794  1.00  0.00     0.137 C  
HETATM    3  C   UNL     1      -8.609   5.221  65.138  1.00  0.00    -0.151 C  
HETATM    4  C   UNL     1      -6.104   5.437  69.802  1.00  0.00    -0.021 C  
HETATM    5  C   UNL     1      -7.884   3.497  66.028  1.00  0.00    -0.089 C  
HETATM    6  C   UNL     1      -8.674   3.691  65.025  1.00  0.00    -0.115 C  
HETATM    7  C   UNL     1      -7.287   6.279  69.226  1.00  0.00    -0.092 C  
HETATM    8  C   UNL     1      -6.674   7.801  68.952  1.00  0.00    -0.050 C  
HETATM    9  C   UNL     1      -7.493   8.993  69.519  1.00  0.00    -0.076 C  
HETATM   10  C   UNL     1      -7.846   8.610  70.974  1.00  0.00    -0.111 C  
HETATM   11  C   UNL     1      -9.018   7.647  70.730  1.00  0.00    -0.149 C  
HETATM   12  C   UNL     1      -9.160   2.803  63.884  1.00  0.00    -0.104 C  
HETATM   13  C   UNL     1      -6.805   4.314  65.279  1.00  0.00    -0.053 C  
HETATM   14  C   UNL     1      -8.394   6.259  70.363  1.00  0.00    -0.126 C  
HETATM   15  C   UNL     1      -9.448   5.158  70.285  1.00  0.00    -0.233 C  
HETATM   16  C   UNL     1      -6.503   4.967  66.954  1.00  0.00    -0.045 C  
HETATM   17  C   UNL     1     -10.080   5.001  68.923  1.00  0.00    -0.215 C  
HETATM   18  C   UNL     1      -7.754   5.575  67.840  1.00  0.00    -0.092 C  
HETATM   19  C   UNL     1      -9.020   4.573  67.906  1.00  0.00    -0.133 C  
ENDROOT
BRANCH   3  20
HETATM   20  N   UNL     1      -7.859   6.687  64.336  1.00  0.00    -0.113 N  
HETATM   21  C   UNL     1      -6.219   6.779  64.008  1.00  0.00    -0.035 C  
HETATM   22  C   UNL     1      -5.843   8.109  63.372  1.00  0.00    -0.071 C  
HETATM   23  C   UNL     1      -8.229   7.913  65.097  1.00  0.00    -0.141 C  
HETATM   24  C   UNL     1      -6.281   9.252  64.273  1.00  0.00    -0.077 C  
HETATM   25  C   UNL     1      -8.457   6.674  62.861  1.00  0.00     0.214 C  
HETATM   26  C   UNL     1      -7.783   9.211  64.459  1.00  0.00    -0.114 C  
ENDBRANCH   3  20
BRANCH   5  27
HETATM   27  O   UNL     1      -7.340   2.131  65.253  1.00  0.00    -0.056 OA 
BRANCH  27  28
HETATM   28  C   UNL     1      -6.088   1.608  65.216  1.00  0.00    -0.018 C  
HETATM   29  C   UNL     1      -5.637   1.513  63.781  1.00  0.00    -0.005 C  
HETATM   30  O   UNL     1      -5.375   1.472  66.196  1.00  0.00    -0.005 OA 
ENDBRANCH  27  28
ENDBRANCH   5  27
BRANCH  10  31
HETATM   31  O   UNL     1      -7.000   7.909  71.908  1.00  0.00    -0.061 OA 
BRANCH  31  32
HETATM   32  C   UNL     1      -7.111   8.422  73.208  1.00  0.00    -0.072 C  
HETATM   33  C   UNL     1      -5.767   8.429  73.848  1.00  0.00    -0.098 C  
HETATM   34  O   UNL     1      -8.143   8.863  73.699  1.00  0.00    -0.335 OA 
ENDBRANCH  31  32
ENDBRANCH  10  31
BRANCH   9  35
HETATM   35  N   UNL     1      -6.842  10.573  69.427  1.00  0.00    -0.075 N  
HETATM   36  C   UNL     1      -6.108  10.924  70.788  1.00  0.00     0.020 C  
HETATM   37  C   UNL     1      -5.458  12.101  67.885  1.00  0.00    -0.065 C  
HETATM   38  C   UNL     1      -5.816  10.669  68.284  1.00  0.00    -0.046 C  
HETATM   39  C   UNL     1      -6.697  12.925  67.597  1.00  0.00    -0.153 C  
HETATM   40  C   UNL     1      -7.511  13.013  68.870  1.00  0.00     0.014 C  
HETATM   41  C   UNL     1      -7.969  11.617  69.306  1.00  0.00     0.275 C  
ENDBRANCH   9  35
TORSDOF 6
ENDMDL
MODEL       46
REMARK 921   NORMALIZED FREE ENERGY PREDICTED BY IDOCK:   -1.45 KCAL/MOL
REMARK 922        TOTAL FREE ENERGY PREDICTED BY IDOCK:   -3.54 KCAL/MOL
REMARK 923 INTER-LIGAND FREE ENERGY PREDICTED BY IDOCK:   -1.99 KCAL/MOL
REMARK 924 INTRA-LIGAND FREE ENERGY PREDICTED BY IDOCK:   -1.55 KCAL/MOL
REMARK 927      BINDING AFFINITY PREDICTED BY RF-SCORE:    0.00 PKD
ROOT
HETATM    1  C   UNL     1      -9.047   9.969  68.165  1.00  0.00    -0.121 C  
HETATM    2  C   UNL     1     -10.239  10.807  68.026  1.00  0.00    -0.203 C  
HETATM    3  C   UNL     1      -9.867  10.657  66.548  1.00  0.00    -0.204 C  
HETATM    4  C   UNL     1      -5.528  13.626  67.204  1.00  0.00     0.718 C  
HETATM    5  C   UNL     1      -7.981   9.813  66.413  1.00  0.00    -0.109 C  
HETATM    6  C   UNL     1      -9.160   9.295  66.484  1.00  0.00    -0.191 C  
HETATM    7  C   UNL     1      -6.941  13.704  67.864  1.00  0.00    -0.155 C  
HETATM    8  C   UNL     1      -7.654  15.078  67.256  1.00  0.00    -0.227 C  
HETATM    9  C   UNL     1      -8.281  16.053  68.291  1.00  0.00    -0.159 C  
HETATM   10  C   UNL     1      -7.226  16.222  69.407  1.00  0.00    -0.192 C  
HETATM   11  C   UNL     1      -7.439  14.918  70.190  1.00  0.00     0.265 C  
HETATM   12  C   UNL     1      -9.717   7.905  66.193  1.00  0.00    -0.079 C  
HETATM   13  C   UNL     1      -8.430  10.547  65.127  1.00  0.00    -0.170 C  
HETATM   14  C   UNL     1      -6.659  13.798  69.422  1.00  0.00    -0.100 C  
HETATM   15  C   UNL     1      -6.625  12.485  70.201  1.00  0.00     0.335 C  
HETATM   16  C   UNL     1      -7.461  11.901  65.869  1.00  0.00     0.948 C  
HETATM   17  C   UNL     1      -7.796  11.572  69.925  1.00  0.00     1.178 C  
HETATM   18  C   UNL     1      -7.758  12.373  67.422  1.00  0.00    -0.170 C  
HETATM   19  C   UNL     1      -7.778  11.135  68.459  1.00  0.00    -0.129 C  
ENDROOT
BRANCH   3  20
HETATM   20  N   UNL     1     -10.856  11.808  65.521  1.00  0.00    -0.291 N  
HETATM   21  C   UNL     1     -10.141  12.887  64.457  1.00  0.00    -0.259 C  
HETATM   22  C   UNL     1     -11.173  13.753  63.751  1.00  0.00     0.195 C  
HETATM   23  C   UNL     1     -11.774  12.589  66.395  1.00  0.00    -0.397 C  
HETATM   24  C   UNL     1     -12.021  14.485  64.779  1.00  0.00    -0.449 C  
HETATM   25  C   UNL     1     -11.630  10.859  64.506  1.00  0.00     0.984 C  
HETATM   26  C   UNL     1     -12.744  13.482  65.653  1.00  0.00    -0.478 C  
ENDBRANCH   3  20
BRANCH   5  27
HETATM   27  O   UNL     1      -7.537   8.514  65.476  1.00  0.00    -0.086 OA 
BRANCH  27  28
HETATM   28  C   UNL     1      -6.347   7.864  65.420  1.00  0.00    -0.041 C  
HETATM   29  C   UNL     1      -5.348   8.594  66.281  1.00  0.00    -0.031 C  
HETATM   30  O   UNL     1      -6.197   6.751  64.945  1.00  0.00    -0.034 OA 
ENDBRANCH  27  28
ENDBRANCH   5  27
BRANCH  10  31
HETATM   31  O   UNL     1      -5.796  16.302  69.232  1.00  0.00    -0.127 OA 
BRANCH  31  32
HETATM   32  C   UNL     1      -5.359  17.623  69.064  1.00  0.00    -0.172 C  
HETATM   33  C   UNL     1      -5.178  17.898  67.612  1.00  0.00    -0.135 C  
HETATM   34  O   UNL     1      -5.226  18.436  69.971  1.00  0.00    -0.197 OA 
ENDBRANCH  31  32
ENDBRANCH  10  31
BRANCH   9  35
HETATM   35  N   UNL     1      -8.880  17.565  67.759  1.00  0.00    -0.238 N  
HETATM   36  C   UNL     1     -10.446  17.466  67.534  1.00  0.00    -0.354 C  
HETATM   37  C   UNL     1      -8.765  20.083  68.285  1.00  0.00    -0.186 C  
HETATM   38  C   UNL     1      -8.608  18.656  68.811  1.00  0.00    -0.260 C  
HETATM   39  C   UNL     1      -7.952  20.305  67.025  1.00  0.00    -0.366 C  
HETATM   40  C   UNL     1      -8.485  19.379  65.952  1.00  0.00    -0.067 C  
HETATM   41  C   UNL     1      -8.305  17.917  66.373  1.00  0.00    -0.242 C  
ENDBRANCH   9  35
TORSDOF 6
ENDMDL
MODEL       47
REMARK 921   NORMALIZED FREE ENERGY PREDICTED BY IDOCK:   -1.44 KCAL/MOL
REMARK 922        TOTAL FREE ENERGY PREDICTED BY IDOCK:   -3.53 KCAL/MOL
REMARK 923 INTER-LIGAND FREE ENERGY PREDICTED BY IDOCK:   -3.08 KCAL/MOL
REMARK 924 INTRA-LIGAND FREE ENERGY PREDICTED BY IDOCK:   -0.45 KCAL/MOL
REMARK 927      BINDING AFFINITY PREDICTED BY RF-SCORE:    0.00 PKD
ROOT
HETATM    1  C   UNL     1     -11.130  16.479  69.843  1.00  0.00    -0.241 C  
HETATM    2  C   UNL     1      -9.962  16.062  70.622  1.00  0.00     0.957 C  
HETATM    3  C   UNL     1      -9.252  16.592  69.373  1.00  0.00     0.040 C  
HETATM    4  C   UNL     1     -11.114  12.581  66.454  1.00  0.00    -0.332 C  
HETATM    5  C   UNL     1     -10.660  16.929  67.892  1.00  0.00    -0.361 C  
HETATM    6  C   UNL     1     -10.202  17.674  68.842  1.00  0.00    -0.354 C  
HETATM    7  C   UNL     1     -10.667  12.649  67.949  1.00  0.00    -0.237 C  
HETATM    8  C   UNL     1      -9.253  11.778  68.043  1.00  0.00    -0.181 C  
HETATM    9  C   UNL     1      -9.168  10.708  69.166  1.00  0.00    -0.148 C  
HETATM   10  C   UNL     1     -10.496   9.921  69.103  1.00  0.00    -0.217 C  
HETATM   11  C   UNL     1     -11.434  10.904  69.819  1.00  0.00    -0.390 C  
HETATM   12  C   UNL     1     -10.241  19.175  69.110  1.00  0.00    -0.149 C  
HETATM   13  C   UNL     1      -9.213  16.798  67.360  1.00  0.00    -0.220 C  
HETATM   14  C   UNL     1     -11.854  11.979  68.761  1.00  0.00    -0.358 C  
HETATM   15  C   UNL     1     -12.943  12.909  69.289  1.00  0.00     1.456 C  
HETATM   16  C   UNL     1      -9.745  15.077  67.080  1.00  0.00    -0.241 C  
HETATM   17  C   UNL     1     -12.420  14.126  70.015  1.00  0.00    -0.352 C  
HETATM   18  C   UNL     1     -10.420  14.211  68.312  1.00  0.00    -0.249 C  
HETATM   19  C   UNL     1     -11.621  15.002  69.048  1.00  0.00    -0.342 C  
ENDROOT
BRANCH   3  20
HETATM   20  N   UNL     1      -7.479  16.131  69.404  1.00  0.00    -0.225 N  
HETATM   21  C   UNL     1      -6.627  15.780  68.005  1.00  0.00    -0.147 C  
HETATM   22  C   UNL     1      -5.186  15.394  68.302  1.00  0.00    -0.110 C  
HETATM   23  C   UNL     1      -7.278  14.993  70.344  1.00  0.00     0.391 C  
HETATM   24  C   UNL     1      -5.156  14.218  69.265  1.00  0.00    -0.078 C  
HETATM   25  C   UNL     1      -6.739  17.458  69.877  1.00  0.00     0.272 C  
HETATM   26  C   UNL     1      -5.832  14.604  70.564  1.00  0.00    -0.168 C  
ENDBRANCH   3  20
BRANCH   5  27
HETATM   27  O   UNL     1     -10.833  18.308  66.980  1.00  0.00    -0.329 OA 
BRANCH  27  28
HETATM   28  C   UNL     1     -10.271  18.623  65.787  1.00  0.00    -0.105 C  
HETATM   29  C   UNL     1     -10.715  20.006  65.384  1.00  0.00    -0.147 C  
HETATM   30  O   UNL     1      -9.372  17.984  65.264  1.00  0.00     0.484 OA 
ENDBRANCH  27  28
ENDBRANCH   5  27
BRANCH  10  31
HETATM   31  O   UNL     1     -11.216   9.546  67.911  1.00  0.00    -0.097 OA 
BRANCH  31  32
HETATM   32  C   UNL     1     -10.738   8.349  67.361  1.00  0.00    -0.155 C  
HETATM   33  C   UNL     1     -11.233   7.204  68.176  1.00  0.00     0.098 C  
HETATM   34  O   UNL     1     -10.084   8.265  66.329  1.00  0.00    -0.215 OA 
ENDBRANCH  31  32
ENDBRANCH  10  31
BRANCH   9  35
HETATM   35  N   UNL     1      -7.817   9.657  69.219  1.00  0.00    -0.090 N  
HETATM   36  C   UNL     1      -6.656  10.330  70.062  1.00  0.00    -0.127 C  
HETATM   37  C   UNL     1      -7.185   7.201  69.656  1.00  0.00    -0.076 C  
HETATM   38  C   UNL     1      -8.195   8.324  69.889  1.00  0.00    -0.123 C  
HETATM   39  C   UNL     1      -6.882   7.020  68.182  1.00  0.00    -0.074 C  
HETATM   40  C   UNL     1      -6.246   8.297  67.673  1.00  0.00    -0.052 C  
HETATM   41  C   UNL     1      -7.223   9.469  67.810  1.00  0.00    -0.082 C  
ENDBRANCH   9  35
TORSDOF 6
ENDMDL
MODEL       48
REMARK 921   NORMALIZED FREE ENERGY PREDICTED BY IDOCK:   -1.40 KCAL/MOL
REMARK 922        TOTAL FREE ENERGY PREDICTED BY IDOCK:   -3.49 KCAL/MOL
REMARK 923 INTER-LIGAND FREE ENERGY PREDICTED BY IDOCK:   -5.28 KCAL/MOL
REMARK 924 INTRA-LIGAND FREE ENERGY PREDICTED BY IDOCK:    1.79 KCAL/MOL
REMARK 927      BINDING AFFINITY PREDICTED BY RF-SCORE:    0.00 PKD
ROOT
HETATM    1  C   UNL     1      -8.282   6.919  71.361  1.00  0.00    -0.110 C  
HETATM    2  C   UNL     1      -9.084   7.868  72.136  1.00  0.00    -0.205 C  
HETATM    3  C   UNL     1     -10.204   7.185  71.344  1.00  0.00    -0.192 C  
HETATM    4  C   UNL     1      -8.518   9.375  66.823  1.00  0.00    -0.129 C  
HETATM    5  C   UNL     1      -9.358   6.018  69.857  1.00  0.00    -0.148 C  
HETATM    6  C   UNL     1      -9.662   5.772  71.087  1.00  0.00    -0.210 C  
HETATM    7  C   UNL     1      -8.532   9.914  68.288  1.00  0.00    -0.111 C  
HETATM    8  C   UNL     1      -9.672  11.124  68.319  1.00  0.00    -0.190 C  
HETATM    9  C   UNL     1      -9.236  12.476  68.948  1.00  0.00     0.301 C  
HETATM   10  C   UNL     1      -7.856  12.803  68.334  1.00  0.00    -0.132 C  
HETATM   11  C   UNL     1      -6.956  11.881  69.171  1.00  0.00    -0.079 C  
HETATM   12  C   UNL     1      -9.833   4.487  71.890  1.00  0.00    -0.246 C  
HETATM   13  C   UNL     1     -10.845   6.367  69.608  1.00  0.00    -0.380 C  
HETATM   14  C   UNL     1      -7.061  10.452  68.539  1.00  0.00    -0.074 C  
HETATM   15  C   UNL     1      -6.061   9.477  69.156  1.00  0.00    -0.041 C  
HETATM   16  C   UNL     1     -10.099   7.690  68.600  1.00  0.00    -0.201 C  
HETATM   17  C   UNL     1      -6.578   8.750  70.375  1.00  0.00    -0.042 C  
HETATM   18  C   UNL     1      -8.956   8.682  69.256  1.00  0.00    -0.145 C  
HETATM   19  C   UNL     1      -7.767   7.869  69.987  1.00  0.00    -0.089 C  
ENDROOT
BRANCH   3  20
HETATM   20  N   UNL     1     -11.777   8.103  71.544  1.00  0.00    -0.275 N  
HETATM   21  C   UNL     1     -13.254   7.438  71.116  1.00  0.00    -0.261 C  
HETATM   22  C   UNL     1     -14.400   8.411  71.347  1.00  0.00    -0.425 C  
HETATM   23  C   UNL     1     -11.671   9.424  70.864  1.00  0.00    -0.308 C  
HETATM   24  C   UNL     1     -14.144   9.699  70.582  1.00  0.00     0.592 C  
HETATM   25  C   UNL     1     -11.955   8.234  73.119  1.00  0.00     0.604 C  
HETATM   26  C   UNL     1     -12.860  10.337  71.070  1.00  0.00    -0.490 C  
ENDBRANCH   3  20
BRANCH   5  27
HETATM   27  O   UNL     1      -9.710   4.429  69.520  1.00  0.00    -0.190 OA 
BRANCH  27  28
HETATM   28  C   UNL     1     -10.007   3.851  68.329  1.00  0.00     0.180 C  
HETATM   29  C   UNL     1     -10.315   4.930  67.323  1.00  0.00    -0.154 C  
HETATM   30  O   UNL     1      -9.815   2.674  68.073  1.00  0.00     0.010 OA 
ENDBRANCH  27  28
ENDBRANCH   5  27
BRANCH  10  31
HETATM   31  O   UNL     1      -7.442  12.562  66.973  1.00  0.00    -0.114 OA 
BRANCH  31  32
HETATM   32  C   UNL     1      -6.054  12.404  66.865  1.00  0.00     0.191 C  
HETATM   33  C   UNL     1      -5.760  11.320  65.887  1.00  0.00     0.033 C  
HETATM   34  O   UNL     1      -5.224  13.105  67.431  1.00  0.00    -0.313 OA 
ENDBRANCH  31  32
ENDBRANCH  10  31
BRANCH   9  35
HETATM   35  N   UNL     1     -10.294  13.819  68.861  1.00  0.00    -0.186 N  
HETATM   36  C   UNL     1     -10.823  13.981  67.376  1.00  0.00    -0.282 C  
HETATM   37  C   UNL     1     -12.305  14.886  70.063  1.00  0.00    -0.358 C  
HETATM   38  C   UNL     1     -11.506  13.613  69.789  1.00  0.00    -0.187 C  
HETATM   39  C   UNL     1     -11.412  16.011  70.550  1.00  0.00    -0.409 C  
HETATM   40  C   UNL     1     -10.425  16.338  69.449  1.00  0.00    -0.292 C  
HETATM   41  C   UNL     1      -9.535  15.127  69.155  1.00  0.00    -0.221 C  
ENDBRANCH   9  35
TORSDOF 6
ENDMDL
MODEL       49
REMARK 921   NORMALIZED FREE ENERGY PREDICTED BY IDOCK:   -1.35 KCAL/MOL
REMARK 922        TOTAL FREE ENERGY PREDICTED BY IDOCK:   -3.41 KCAL/MOL
REMARK 923 INTER-LIGAND FREE ENERGY PREDICTED BY IDOCK:   -2.80 KCAL/MOL
REMARK 924 INTRA-LIGAND FREE ENERGY PREDICTED BY IDOCK:   -0.60 KCAL/MOL
REMARK 927      BINDING AFFINITY PREDICTED BY RF-SCORE:    0.00 PKD
ROOT
HETATM    1  C   UNL     1      -6.238   9.547  66.105  1.00  0.00    -0.068 C  
HETATM    2  C   UNL     1      -5.478   8.309  65.924  1.00  0.00    -0.032 C  
HETATM    3  C   UNL     1      -6.764   7.922  65.187  1.00  0.00    -0.051 C  
HETATM    4  C   UNL     1      -9.492   7.826  69.728  1.00  0.00    -0.160 C  
HETATM    5  C   UNL     1      -8.215   9.346  65.576  1.00  0.00    -0.126 C  
HETATM    6  C   UNL     1      -7.305   9.260  64.665  1.00  0.00    -0.101 C  
HETATM    7  C   UNL     1      -8.014   7.441  69.404  1.00  0.00    -0.124 C  
HETATM    8  C   UNL     1      -7.929   5.786  69.549  1.00  0.00    -0.097 C  
HETATM    9  C   UNL     1      -6.773   5.222  70.420  1.00  0.00    -0.043 C  
HETATM   10  C   UNL     1      -6.773   6.059  71.718  1.00  0.00    -0.063 C  
HETATM   11  C   UNL     1      -6.065   7.331  71.227  1.00  0.00    -0.036 C  
HETATM   12  C   UNL     1      -7.087   9.962  63.329  1.00  0.00    -0.124 C  
HETATM   13  C   UNL     1      -8.783   7.998  65.071  1.00  0.00     0.036 C  
HETATM   14  C   UNL     1      -7.147   8.197  70.497  1.00  0.00    -0.041 C  
HETATM   15  C   UNL     1      -6.621   9.582  70.129  1.00  0.00    -0.073 C  
HETATM   16  C   UNL     1      -8.990   7.709  66.859  1.00  0.00    -0.156 C  
HETATM   17  C   UNL     1      -5.951   9.650  68.776  1.00  0.00    -0.042 C  
HETATM   18  C   UNL     1      -7.711   7.914  67.881  1.00  0.00    -0.125 C  
HETATM   19  C   UNL     1      -6.969   9.335  67.679  1.00  0.00    -0.078 C  
ENDROOT
BRANCH   3  20
HETATM   20  N   UNL     1      -6.765   6.129  64.808  1.00  0.00    -0.042 N  
HETATM   21  C   UNL     1      -6.706   5.553  63.235  1.00  0.00    -0.033 C  
HETATM   22  C   UNL     1      -6.753   4.033  63.188  1.00  0.00    -0.035 C  
HETATM   23  C   UNL     1      -7.929   5.481  65.474  1.00  0.00    -0.111 C  
HETATM   24  C   UNL     1      -7.999   3.535  63.902  1.00  0.00    -0.085 C  
HETATM   25  C   UNL     1      -5.368   5.610  65.366  1.00  0.00    -0.010 C  
HETATM   26  C   UNL     1      -7.969   3.974  65.351  1.00  0.00    -0.093 C  
ENDBRANCH   3  20
BRANCH   5  27
HETATM   27  O   UNL     1      -9.168  10.126  64.459  1.00  0.00    -0.213 OA 
BRANCH  27  28
HETATM   28  C   UNL     1     -10.432  10.601  64.594  1.00  0.00    -0.205 C  
HETATM   29  C   UNL     1     -10.565  11.269  65.938  1.00  0.00    -0.309 C  
HETATM   30  O   UNL     1     -11.234  10.679  63.678  1.00  0.00     0.542 OA 
ENDBRANCH  27  28
ENDBRANCH   5  27
BRANCH  10  31
HETATM   31  O   UNL     1      -7.931   6.548  72.425  1.00  0.00    -0.101 OA 
BRANCH  31  32
HETATM   32  C   UNL     1      -7.916   6.181  73.778  1.00  0.00    -0.097 C  
HETATM   33  C   UNL     1      -9.127   6.733  74.448  1.00  0.00    -0.230 C  
HETATM   34  O   UNL     1      -7.076   5.455  74.296  1.00  0.00    -0.077 OA 
ENDBRANCH  31  32
ENDBRANCH  10  31
BRANCH   9  35
HETATM   35  N   UNL     1      -6.722   3.544  70.755  1.00  0.00    -0.032 N  
HETATM   36  C   UNL     1      -6.413   2.746  69.421  1.00  0.00    -0.029 C  
HETATM   37  C   UNL     1      -5.726   1.845  72.413  1.00  0.00    -0.008 C  
HETATM   38  C   UNL     1      -5.614   3.230  71.777  1.00  0.00    -0.008 C  
HETATM   39  C   UNL     1      -7.106   1.608  72.993  1.00  0.00    -0.023 C  
HETATM   40  C   UNL     1      -8.109   1.655  71.859  1.00  0.00    -0.045 C  
HETATM   41  C   UNL     1      -8.107   3.040  71.205  1.00  0.00    -0.057 C  
ENDBRANCH   9  35
TORSDOF 6
ENDMDL
MODEL       50
REMARK 921   NORMALIZED FREE ENERGY PREDICTED BY IDOCK:   -1.26 KCAL/MOL
REMARK 922        TOTAL FREE ENERGY PREDICTED BY IDOCK:   -3.30 KCAL/MOL
REMARK 923 INTER-LIGAND FREE ENERGY PREDICTED BY IDOCK:   -4.26 KCAL/MOL
REMARK 924 INTRA-LIGAND FREE ENERGY PREDICTED BY IDOCK:    0.96 KCAL/MOL
REMARK 927      BINDING AFFINITY PREDICTED BY RF-SCORE:    0.00 PKD
ROOT
HETATM    1  C   UNL     1     -11.502  14.966  66.333  1.00  0.00    -0.280 C  
HETATM    2  C   UNL     1     -12.398  14.114  67.118  1.00  0.00    -0.213 C  
HETATM    3  C   UNL     1     -11.514  14.651  68.248  1.00  0.00    -0.314 C  
HETATM    4  C   UNL     1      -7.351  11.895  66.471  1.00  0.00     0.170 C  
HETATM    5  C   UNL     1      -9.882  15.620  67.419  1.00  0.00    -0.225 C  
HETATM    6  C   UNL     1     -11.064  16.028  67.739  1.00  0.00    -0.273 C  
HETATM    7  C   UNL     1      -8.877  11.566  66.484  1.00  0.00    -0.190 C  
HETATM    8  C   UNL     1      -9.072  10.343  67.594  1.00  0.00    -0.143 C  
HETATM    9  C   UNL     1      -9.886   9.103  67.129  1.00  0.00    -0.195 C  
HETATM   10  C   UNL     1      -9.330   8.730  65.737  1.00  0.00    -0.191 C  
HETATM   11  C   UNL     1     -10.034   9.782  64.867  1.00  0.00    -0.061 C  
HETATM   12  C   UNL     1     -11.678  17.408  67.948  1.00  0.00     1.134 C  
HETATM   13  C   UNL     1      -9.677  15.202  68.894  1.00  0.00    -0.224 C  
HETATM   14  C   UNL     1      -9.208  11.106  65.002  1.00  0.00    -0.190 C  
HETATM   15  C   UNL     1      -9.687  12.183  64.032  1.00  0.00    -0.118 C  
HETATM   16  C   UNL     1      -8.867  13.770  68.108  1.00  0.00    -0.185 C  
HETATM   17  C   UNL     1     -10.790  13.060  64.577  1.00  0.00    -0.390 C  
HETATM   18  C   UNL     1      -9.661  12.910  66.946  1.00  0.00    -0.240 C  
HETATM   19  C   UNL     1     -10.277  13.847  65.783  1.00  0.00    -0.331 C  
ENDROOT
BRANCH   3  20
HETATM   20  N   UNL     1     -11.832  13.730  69.799  1.00  0.00    -0.313 N  
HETATM   21  C   UNL     1     -11.702  12.061  69.884  1.00  0.00    -0.374 C  
HETATM   22  C   UNL     1     -12.050  11.537  71.270  1.00  0.00    -0.025 C  
HETATM   23  C   UNL     1     -13.174  14.098  70.329  1.00  0.00     0.285 C  
HETATM   24  C   UNL     1     -13.447  11.993  71.657  1.00  0.00    -0.068 C  
HETATM   25  C   UNL     1     -10.647  14.169  70.765  1.00  0.00     1.556 C  
HETATM   26  C   UNL     1     -13.503  13.506  71.683  1.00  0.00    -0.385 C  
ENDBRANCH   3  20
BRANCH   5  27
HETATM   27  O   UNL     1      -9.324  17.137  67.807  1.00  0.00    -0.239 OA 
BRANCH  27  28
HETATM   28  C   UNL     1      -8.604  18.004  67.052  1.00  0.00    -0.245 C  
HETATM   29  C   UNL     1      -9.071  19.409  67.337  1.00  0.00    -0.359 C  
HETATM   30  O   UNL     1      -7.594  17.702  66.439  1.00  0.00    -0.239 OA 
ENDBRANCH  27  28
ENDBRANCH   5  27
BRANCH  10  31
HETATM   31  O   UNL     1      -7.951   8.788  65.318  1.00  0.00    -0.106 OA 
BRANCH  31  32
HETATM   32  C   UNL     1      -7.171   7.800  65.936  1.00  0.00    -0.072 C  
HETATM   33  C   UNL     1      -6.202   8.450  66.862  1.00  0.00    -0.055 C  
HETATM   34  O   UNL     1      -7.325   6.594  65.788  1.00  0.00    -0.072 OA 
ENDBRANCH  31  32
ENDBRANCH  10  31
BRANCH   9  35
HETATM   35  N   UNL     1      -9.983   7.736  68.154  1.00  0.00    -0.171 N  
HETATM   36  C   UNL     1     -10.649   8.152  69.531  1.00  0.00    -0.213 C  
HETATM   37  C   UNL     1     -10.694   5.261  68.158  1.00  0.00     0.023 C  
HETATM   38  C   UNL     1     -10.846   6.637  67.509  1.00  0.00    -0.342 C  
HETATM   39  C   UNL     1      -9.239   4.847  68.252  1.00  0.00    -0.154 C  
HETATM   40  C   UNL     1      -8.524   5.839  69.146  1.00  0.00    -0.107 C  
HETATM   41  C   UNL     1      -8.573   7.241  68.531  1.00  0.00    -0.124 C  
ENDBRANCH   9  35
TORSDOF 6
ENDMDL
MODEL       51
REMARK 921   NORMALIZED FREE ENERGY PREDICTED BY IDOCK:   -1.24 KCAL/MOL
REMARK 922        TOTAL FREE ENERGY PREDICTED BY IDOCK:   -3.27 KCAL/MOL
REMARK 923 INTER-LIGAND FREE ENERGY PREDICTED BY IDOCK:   -4.11 KCAL/MOL
REMARK 924 INTRA-LIGAND FREE ENERGY PREDICTED BY IDOCK:    0.85 KCAL/MOL
REMARK 927      BINDING AFFINITY PREDICTED BY RF-SCORE:    0.00 PKD
ROOT
HETATM    1  C   UNL     1      -7.843   9.029  66.880  1.00  0.00    -0.101 C  
HETATM    2  C   UNL     1      -6.835  10.091  66.923  1.00  0.00    -0.087 C  
HETATM    3  C   UNL     1      -7.145   9.981  68.419  1.00  0.00    -0.072 C  
HETATM    4  C   UNL     1     -11.993  11.994  67.697  1.00  0.00    -0.149 C  
HETATM    5  C   UNL     1      -8.827   8.799  68.672  1.00  0.00    -0.138 C  
HETATM    6  C   UNL     1      -7.570   8.517  68.599  1.00  0.00    -0.098 C  
HETATM    7  C   UNL     1     -10.634  12.296  66.989  1.00  0.00    -0.248 C  
HETATM    8  C   UNL     1     -10.194  13.824  67.477  1.00  0.00    -0.241 C  
HETATM    9  C   UNL     1      -9.788  14.822  66.358  1.00  0.00    -0.280 C  
HETATM   10  C   UNL     1     -10.876  14.701  65.268  1.00  0.00    -0.377 C  
HETATM   11  C   UNL     1     -10.425  13.408  64.570  1.00  0.00    -0.431 C  
HETATM   12  C   UNL     1      -6.747   7.287  68.968  1.00  0.00    -0.059 C  
HETATM   13  C   UNL     1      -8.508   9.699  69.889  1.00  0.00    -0.211 C  
HETATM   14  C   UNL     1     -10.956  12.218  65.438  1.00  0.00    -0.341 C  
HETATM   15  C   UNL     1     -10.746  10.870  64.753  1.00  0.00    -0.248 C  
HETATM   16  C   UNL     1      -9.736  10.781  69.086  1.00  0.00    -0.181 C  
HETATM   17  C   UNL     1      -9.414  10.224  65.054  1.00  0.00    -0.314 C  
HETATM   18  C   UNL     1      -9.565  11.186  67.496  1.00  0.00    -0.181 C  
HETATM   19  C   UNL     1      -9.321   9.901  66.546  1.00  0.00    -0.206 C  
ENDROOT
BRANCH   3  20
HETATM   20  N   UNL     1      -6.383  11.376  69.332  1.00  0.00    -0.088 N  
HETATM   21  C   UNL     1      -5.651  11.166  70.825  1.00  0.00    -0.114 C  
HETATM   22  C   UNL     1      -5.128  12.479  71.387  1.00  0.00    -0.132 C  
HETATM   23  C   UNL     1      -7.375  12.477  69.474  1.00  0.00     0.477 C  
HETATM   24  C   UNL     1      -6.261  13.489  71.474  1.00  0.00     0.789 C  
HETATM   25  C   UNL     1      -5.130  11.786  68.442  1.00  0.00    -0.042 C  
HETATM   26  C   UNL     1      -6.827  13.744  70.093  1.00  0.00     0.297 C  
ENDBRANCH   3  20
BRANCH   5  27
HETATM   27  O   UNL     1      -8.991   7.512  69.710  1.00  0.00    -0.141 OA 
BRANCH  27  28
HETATM   28  C   UNL     1     -10.121   6.901  70.146  1.00  0.00    -0.182 C  
HETATM   29  C   UNL     1     -10.813   6.254  68.973  1.00  0.00    -0.400 C  
HETATM   30  O   UNL     1     -10.387   6.712  71.321  1.00  0.00    -0.203 OA 
ENDBRANCH  27  28
ENDBRANCH   5  27
BRANCH  10  31
HETATM   31  O   UNL     1     -12.290  14.513  65.482  1.00  0.00    -0.351 OA 
BRANCH  31  32
HETATM   32  C   UNL     1     -12.941  14.055  64.328  1.00  0.00     0.547 C  
HETATM   33  C   UNL     1     -13.621  12.764  64.630  1.00  0.00     1.343 C  
HETATM   34  O   UNL     1     -13.000  14.667  63.269  1.00  0.00     0.051 OA 
ENDBRANCH  31  32
ENDBRANCH  10  31
BRANCH   9  35
HETATM   35  N   UNL     1      -9.489  16.458  66.766  1.00  0.00    -0.236 N  
HETATM   36  C   UNL     1      -8.038  16.868  66.277  1.00  0.00    -0.316 C  
HETATM   37  C   UNL     1     -10.563  18.795  66.663  1.00  0.00    -0.446 C  
HETATM   38  C   UNL     1     -10.512  17.382  66.082  1.00  0.00    -0.284 C  
HETATM   39  C   UNL     1     -10.747  18.772  68.167  1.00  0.00    -0.180 C  
HETATM   40  C   UNL     1      -9.543  18.087  68.779  1.00  0.00    -0.309 C  
HETATM   41  C   UNL     1      -9.455  16.636  68.296  1.00  0.00    -0.230 C  
ENDBRANCH   9  35
TORSDOF 6
ENDMDL
MODEL       52
REMARK 921   NORMALIZED FREE ENERGY PREDICTED BY IDOCK:   -0.91 KCAL/MOL
REMARK 922        TOTAL FREE ENERGY PREDICTED BY IDOCK:   -2.82 KCAL/MOL
REMARK 923 INTER-LIGAND FREE ENERGY PREDICTED BY IDOCK:   -2.94 KCAL/MOL
REMARK 924 INTRA-LIGAND FREE ENERGY PREDICTED BY IDOCK:    0.12 KCAL/MOL
REMARK 927      BINDING AFFINITY PREDICTED BY RF-SCORE:    0.00 PKD
ROOT
HETATM    1  C   UNL     1      -8.234  12.791  66.647  1.00  0.00     0.166 C  
HETATM    2  C   UNL     1      -9.550  12.157  66.537  1.00  0.00    -0.235 C  
HETATM    3  C   UNL     1      -9.357  12.068  68.054  1.00  0.00    -0.196 C  
HETATM    4  C   UNL     1      -5.481   8.501  67.481  1.00  0.00    -0.038 C  
HETATM    5  C   UNL     1      -7.397  12.556  68.511  1.00  0.00    -0.115 C  
HETATM    6  C   UNL     1      -8.463  13.272  68.381  1.00  0.00    -0.128 C  
HETATM    7  C   UNL     1      -6.789   8.743  66.664  1.00  0.00    -0.072 C  
HETATM    8  C   UNL     1      -7.780   7.448  66.995  1.00  0.00    -0.111 C  
HETATM    9  C   UNL     1      -8.408   6.723  65.773  1.00  0.00    -0.143 C  
HETATM   10  C   UNL     1      -7.254   6.508  64.769  1.00  0.00    -0.067 C  
HETATM   11  C   UNL     1      -7.158   7.912  64.153  1.00  0.00    -0.075 C  
HETATM   12  C   UNL     1      -8.831  14.693  68.797  1.00  0.00    -0.166 C  
HETATM   13  C   UNL     1      -8.120  11.765  69.626  1.00  0.00     1.065 C  
HETATM   14  C   UNL     1      -6.322   8.785  65.149  1.00  0.00    -0.060 C  
HETATM   15  C   UNL     1      -5.984  10.155  64.566  1.00  0.00    -0.130 C  
HETATM   16  C   UNL     1      -7.283  10.361  68.818  1.00  0.00    -0.085 C  
HETATM   17  C   UNL     1      -7.025  11.216  64.833  1.00  0.00     0.832 C  
HETATM   18  C   UNL     1      -7.442  10.132  67.192  1.00  0.00    -0.091 C  
HETATM   19  C   UNL     1      -7.133  11.469  66.338  1.00  0.00     0.064 C  
ENDROOT
BRANCH   3  20
HETATM   20  N   UNL     1     -10.638  10.989  68.797  1.00  0.00    -0.191 N  
HETATM   21  C   UNL     1     -12.016  11.614  69.517  1.00  0.00    -0.383 C  
HETATM   22  C   UNL     1     -12.903  10.516  70.085  1.00  0.00    -0.122 C  
HETATM   23  C   UNL     1     -10.003  10.067  69.778  1.00  0.00    -0.241 C  
HETATM   24  C   UNL     1     -12.110   9.672  71.071  1.00  0.00    -0.421 C  
HETATM   25  C   UNL     1     -11.273  10.225  67.554  1.00  0.00    -0.117 C  
HETATM   26  C   UNL     1     -10.936   9.029  70.364  1.00  0.00    -0.283 C  
ENDBRANCH   3  20
BRANCH   5  27
HETATM   27  O   UNL     1      -6.885  13.642  69.661  1.00  0.00    -0.047 OA 
BRANCH  27  28
HETATM   28  C   UNL     1      -5.758  13.623  70.416  1.00  0.00    -0.156 C  
HETATM   29  C   UNL     1      -5.151  15.003  70.426  1.00  0.00    -0.114 C  
HETATM   30  O   UNL     1      -5.440  12.701  71.148  1.00  0.00    -0.251 OA 
ENDBRANCH  27  28
ENDBRANCH   5  27
BRANCH  10  31
HETATM   31  O   UNL     1      -5.890   6.166  65.088  1.00  0.00    -0.024 OA 
BRANCH  31  32
HETATM   32  C   UNL     1      -5.752   4.815  65.434  1.00  0.00    -0.018 C  
HETATM   33  C   UNL     1      -5.220   4.063  64.263  1.00  0.00    -0.009 C  
HETATM   34  O   UNL     1      -5.965   4.353  66.548  1.00  0.00    -0.025 OA 
ENDBRANCH  31  32
ENDBRANCH  10  31
BRANCH   9  35
HETATM   35  N   UNL     1      -9.298   5.282  66.023  1.00  0.00    -0.156 N  
HETATM   36  C   UNL     1     -10.773   5.643  66.481  1.00  0.00    -0.226 C  
HETATM   37  C   UNL     1      -9.823   3.015  64.923  1.00  0.00     0.016 C  
HETATM   38  C   UNL     1      -9.380   4.464  64.722  1.00  0.00    -0.160 C  
HETATM   39  C   UNL     1      -8.982   2.315  65.973  1.00  0.00    -0.107 C  
HETATM   40  C   UNL     1      -9.189   3.027  67.293  1.00  0.00    -0.214 C  
HETATM   41  C   UNL     1      -8.707   4.478  67.197  1.00  0.00    -0.104 C  
ENDBRANCH   9  35
TORSDOF 6
ENDMDL
MODEL       53
REMARK 921   NORMALIZED FREE ENERGY PREDICTED BY IDOCK:   -0.87 KCAL/MOL
REMARK 922        TOTAL FREE ENERGY PREDICTED BY IDOCK:   -2.76 KCAL/MOL
REMARK 923 INTER-LIGAND FREE ENERGY PREDICTED BY IDOCK:   -1.62 KCAL/MOL
REMARK 924 INTRA-LIGAND FREE ENERGY PREDICTED BY IDOCK:   -1.14 KCAL/MOL
REMARK 927      BINDING AFFINITY PREDICTED BY RF-SCORE:    0.00 PKD
ROOT
HETATM    1  C   UNL     1      -9.920   9.680  65.296  1.00  0.00    -0.159 C  
HETATM    2  C   UNL     1     -10.984  10.686  65.297  1.00  0.00     0.161 C  
HETATM    3  C   UNL     1      -9.767  11.611  65.396  1.00  0.00    -0.229 C  
HETATM    4  C   UNL     1      -8.735   9.938  70.317  1.00  0.00    -0.073 C  
HETATM    5  C   UNL     1      -8.086  10.469  65.792  1.00  0.00    -0.158 C  
HETATM    6  C   UNL     1      -8.652  10.828  64.689  1.00  0.00    -0.064 C  
HETATM    7  C   UNL     1     -10.085  10.159  69.564  1.00  0.00    -0.258 C  
HETATM    8  C   UNL     1     -10.797  11.480  70.282  1.00  0.00     0.742 C  
HETATM    9  C   UNL     1     -12.282  11.321  70.713  1.00  0.00    -0.380 C  
HETATM   10  C   UNL     1     -12.366   9.967  71.452  1.00  0.00    -0.404 C  
HETATM   11  C   UNL     1     -12.389   9.001  70.258  1.00  0.00     0.462 C  
HETATM   12  C   UNL     1      -8.196  10.853  63.234  1.00  0.00     0.097 C  
HETATM   13  C   UNL     1      -7.919  11.967  66.141  1.00  0.00     0.347 C  
HETATM   14  C   UNL     1     -10.904   8.820  69.794  1.00  0.00    -0.196 C  
HETATM   15  C   UNL     1     -10.763   7.730  68.735  1.00  0.00    -0.093 C  
HETATM   16  C   UNL     1      -8.370  11.366  67.802  1.00  0.00    -0.127 C  
HETATM   17  C   UNL     1     -10.929   8.220  67.316  1.00  0.00     0.095 C  
HETATM   18  C   UNL     1      -9.731  10.456  68.008  1.00  0.00    -0.166 C  
HETATM   19  C   UNL     1      -9.816   9.214  66.977  1.00  0.00    -0.267 C  
ENDROOT
BRANCH   3  20
HETATM   20  N   UNL     1     -10.298  13.324  65.776  1.00  0.00    -0.283 N  
HETATM   21  C   UNL     1      -9.212  14.502  66.267  1.00  0.00    -0.231 C  
HETATM   22  C   UNL     1      -9.905  15.826  66.552  1.00  0.00    -0.286 C  
HETATM   23  C   UNL     1     -11.400  13.292  66.776  1.00  0.00    -0.327 C  
HETATM   24  C   UNL     1     -10.994  15.623  67.593  1.00  0.00    -0.315 C  
HETATM   25  C   UNL     1     -10.757  13.911  64.370  1.00  0.00    -0.268 C  
HETATM   26  C   UNL     1     -12.021  14.639  67.074  1.00  0.00    -0.301 C  
ENDBRANCH   3  20
BRANCH   5  27
HETATM   27  O   UNL     1      -6.631  10.529  64.989  1.00  0.00    -0.102 OA 
BRANCH  27  28
HETATM   28  C   UNL     1      -5.564   9.697  65.086  1.00  0.00    -0.057 C  
HETATM   29  C   UNL     1      -5.184   9.552  66.537  1.00  0.00    -0.044 C  
HETATM   30  O   UNL     1      -5.151   9.005  64.170  1.00  0.00    -0.052 OA 
ENDBRANCH  27  28
ENDBRANCH   5  27
BRANCH  10  31
HETATM   31  O   UNL     1     -11.375   9.410  72.340  1.00  0.00     0.108 OA 
BRANCH  31  32
HETATM   32  C   UNL     1     -11.740   8.139  72.805  1.00  0.00    -0.269 C  
HETATM   33  C   UNL     1     -10.547   7.475  73.401  1.00  0.00    -0.409 C  
HETATM   34  O   UNL     1     -12.879   7.689  72.789  1.00  0.00     0.233 OA 
ENDBRANCH  31  32
ENDBRANCH  10  31
BRANCH   9  35
HETATM   35  N   UNL     1     -13.030  12.573  71.609  1.00  0.00    -0.357 N  
HETATM   36  C   UNL     1     -14.266  11.985  72.409  1.00  0.00     0.863 C  
HETATM   37  C   UNL     1     -12.484  14.523  73.199  1.00  0.00    -0.358 C  
HETATM   38  C   UNL     1     -12.040  13.179  72.621  1.00  0.00     2.005 C  
HETATM   39  C   UNL     1     -12.842  15.509  72.105  1.00  0.00    -0.492 C  
HETATM   40  C   UNL     1     -14.019  14.951  71.334  1.00  0.00    -0.544 C  
HETATM   41  C   UNL     1     -13.637  13.627  70.664  1.00  0.00     0.539 C  
ENDBRANCH   9  35
TORSDOF 6
ENDMDL
MODEL       54
REMARK 921   NORMALIZED FREE ENERGY PREDICTED BY IDOCK:   -0.77 KCAL/MOL
REMARK 922        TOTAL FREE ENERGY PREDICTED BY IDOCK:   -2.63 KCAL/MOL
REMARK 923 INTER-LIGAND FREE ENERGY PREDICTED BY IDOCK:   -2.49 KCAL/MOL
REMARK 924 INTRA-LIGAND FREE ENERGY PREDICTED BY IDOCK:   -0.14 KCAL/MOL
REMARK 927      BINDING AFFINITY PREDICTED BY RF-SCORE:    0.00 PKD
ROOT
HETATM    1  C   UNL     1      -6.500   6.413  67.672  1.00  0.00    -0.052 C  
HETATM    2  C   UNL     1      -5.812   7.562  68.265  1.00  0.00    -0.028 C  
HETATM    3  C   UNL     1      -6.689   7.156  69.454  1.00  0.00    -0.049 C  
HETATM    4  C   UNL     1     -11.076   8.683  66.905  1.00  0.00     0.605 C  
HETATM    5  C   UNL     1      -8.079   5.760  68.817  1.00  0.00    -0.102 C  
HETATM    6  C   UNL     1      -6.877   5.643  69.271  1.00  0.00    -0.062 C  
HETATM    7  C   UNL     1      -9.625   9.261  66.899  1.00  0.00    -0.229 C  
HETATM    8  C   UNL     1      -9.712  10.720  67.692  1.00  0.00    -0.185 C  
HETATM    9  C   UNL     1      -9.066  11.940  66.977  1.00  0.00    -0.191 C  
HETATM   10  C   UNL     1      -9.562  11.884  65.514  1.00  0.00    -0.182 C  
HETATM   11  C   UNL     1      -8.637  10.795  64.950  1.00  0.00    -0.097 C  
HETATM   12  C   UNL     1      -6.074   4.473  69.829  1.00  0.00    -0.019 C  
HETATM   13  C   UNL     1      -8.463   6.464  70.140  1.00  0.00    -0.135 C  
HETATM   14  C   UNL     1      -9.255   9.418  65.365  1.00  0.00    -0.305 C  
HETATM   15  C   UNL     1      -8.539   8.244  64.701  1.00  0.00    -0.005 C  
HETATM   16  C   UNL     1      -9.421   7.519  69.002  1.00  0.00    -0.145 C  
HETATM   17  C   UNL     1      -7.359   7.716  65.483  1.00  0.00    -0.074 C  
HETATM   18  C   UNL     1      -8.681   8.212  67.700  1.00  0.00    -0.130 C  
HETATM   19  C   UNL     1      -7.837   7.151  66.821  1.00  0.00    -0.103 C  
ENDROOT
BRANCH   3  20
HETATM   20  N   UNL     1      -6.641   8.449  70.751  1.00  0.00    -0.037 N  
HETATM   21  C   UNL     1      -5.201   9.120  71.283  1.00  0.00    -0.039 C  
HETATM   22  C   UNL     1      -5.428  10.144  72.386  1.00  0.00     0.257 C  
HETATM   23  C   UNL     1      -7.380   7.974  71.953  1.00  0.00    -0.082 C  
HETATM   24  C   UNL     1      -6.185   9.501  73.537  1.00  0.00     0.539 C  
HETATM   25  C   UNL     1      -7.323   9.713  70.068  1.00  0.00    -0.130 C  
HETATM   26  C   UNL     1      -7.531   9.006  73.051  1.00  0.00     0.524 C  
ENDBRANCH   3  20
BRANCH   5  27
HETATM   27  O   UNL     1      -8.423   4.300  69.534  1.00  0.00    -0.070 OA 
BRANCH  27  28
HETATM   28  C   UNL     1      -9.018   3.203  69.002  1.00  0.00    -0.123 C  
HETATM   29  C   UNL     1      -9.120   3.376  67.508  1.00  0.00    -0.200 C  
HETATM   30  O   UNL     1      -9.208   2.164  69.613  1.00  0.00    -0.099 OA 
ENDBRANCH  27  28
ENDBRANCH   5  27
BRANCH  10  31
HETATM   31  O   UNL     1     -10.878  11.498  65.067  1.00  0.00    -0.296 OA 
BRANCH  31  32
HETATM   32  C   UNL     1     -11.391  12.387  64.112  1.00  0.00    -0.379 C  
HETATM   33  C   UNL     1     -12.048  11.610  63.024  1.00  0.00     0.052 C  
HETATM   34  O   UNL     1     -11.366  13.608  64.209  1.00  0.00    -0.379 OA 
ENDBRANCH  31  32
ENDBRANCH  10  31
BRANCH   9  35
HETATM   35  N   UNL     1      -9.264  13.502  67.647  1.00  0.00    -0.204 N  
HETATM   36  C   UNL     1      -9.193  14.587  66.493  1.00  0.00    -0.255 C  
HETATM   37  C   UNL     1     -10.754  14.828  69.276  1.00  0.00    -0.263 C  
HETATM   38  C   UNL     1     -10.632  13.623  68.343  1.00  0.00    -0.251 C  
HETATM   39  C   UNL     1      -9.612  14.879  70.272  1.00  0.00     0.614 C  
HETATM   40  C   UNL     1      -8.320  15.048  69.500  1.00  0.00    -0.092 C  
HETATM   41  C   UNL     1      -8.088  13.843  68.582  1.00  0.00    -0.097 C  
ENDBRANCH   9  35
TORSDOF 6
ENDMDL
MODEL       55
REMARK 921   NORMALIZED FREE ENERGY PREDICTED BY IDOCK:   -0.66 KCAL/MOL
REMARK 922        TOTAL FREE ENERGY PREDICTED BY IDOCK:   -2.48 KCAL/MOL
REMARK 923 INTER-LIGAND FREE ENERGY PREDICTED BY IDOCK:   -2.24 KCAL/MOL
REMARK 924 INTRA-LIGAND FREE ENERGY PREDICTED BY IDOCK:   -0.24 KCAL/MOL
REMARK 927      BINDING AFFINITY PREDICTED BY RF-SCORE:    0.00 PKD
ROOT
HETATM    1  C   UNL     1     -11.516  10.662  68.896  1.00  0.00    -0.334 C  
HETATM    2  C   UNL     1     -11.901  11.128  67.562  1.00  0.00     0.070 C  
HETATM    3  C   UNL     1     -10.475  10.658  67.259  1.00  0.00    -0.246 C  
HETATM    4  C   UNL     1      -8.423  14.611  70.130  1.00  0.00     0.958 C  
HETATM    5  C   UNL     1      -9.502  10.270  69.046  1.00  0.00    -0.200 C  
HETATM    6  C   UNL     1     -10.235   9.535  68.278  1.00  0.00    -0.225 C  
HETATM    7  C   UNL     1      -9.698  14.542  69.230  1.00  0.00     0.007 C  
HETATM    8  C   UNL     1      -9.370  15.486  67.901  1.00  0.00    -0.192 C  
HETATM    9  C   UNL     1     -10.445  16.541  67.514  1.00  0.00    -0.310 C  
HETATM   10  C   UNL     1     -10.827  17.256  68.829  1.00  0.00    -0.153 C  
HETATM   11  C   UNL     1     -11.770  16.212  69.447  1.00  0.00    -0.213 C  
HETATM   12  C   UNL     1     -10.452   8.030  68.161  1.00  0.00    -0.222 C  
HETATM   13  C   UNL     1      -8.546  10.488  67.849  1.00  0.00    -0.123 C  
HETATM   14  C   UNL     1     -10.863  15.133  70.129  1.00  0.00    -0.265 C  
HETATM   15  C   UNL     1     -11.677  14.138  70.953  1.00  0.00    -0.190 C  
HETATM   16  C   UNL     1      -8.504  12.182  68.520  1.00  0.00    -0.083 C  
HETATM   17  C   UNL     1     -12.161  12.939  70.173  1.00  0.00    -0.373 C  
HETATM   18  C   UNL     1      -9.913  12.990  68.810  1.00  0.00    -0.022 C  
HETATM   19  C   UNL     1     -10.964  12.124  69.680  1.00  0.00     0.057 C  
ENDROOT
BRANCH   3  20
HETATM   20  N   UNL     1      -9.962  11.213  65.590  1.00  0.00    -0.236 N  
HETATM   21  C   UNL     1     -10.977  11.088  64.262  1.00  0.00    -0.148 C  
HETATM   22  C   UNL     1     -10.306  11.585  62.990  1.00  0.00    -0.293 C  
HETATM   23  C   UNL     1      -8.672  10.566  65.226  1.00  0.00    -0.188 C  
HETATM   24  C   UNL     1      -9.012  10.822  62.759  1.00  0.00    -0.305 C  
HETATM   25  C   UNL     1      -9.843  12.794  65.724  1.00  0.00    -0.214 C  
HETATM   26  C   UNL     1      -8.070  11.046  63.923  1.00  0.00     0.419 C  
ENDBRANCH   3  20
BRANCH   5  27
HETATM   27  O   UNL     1      -8.647   8.899  69.435  1.00  0.00    -0.127 OA 
BRANCH  27  28
HETATM   28  C   UNL     1      -7.488   8.780  70.131  1.00  0.00    -0.056 C  
HETATM   29  C   UNL     1      -6.734   7.576  69.629  1.00  0.00    -0.040 C  
HETATM   30  O   UNL     1      -7.039   9.646  70.864  1.00  0.00    -0.255 OA 
ENDBRANCH  27  28
ENDBRANCH   5  27
BRANCH  10  31
HETATM   31  O   UNL     1      -9.936  17.611  69.905  1.00  0.00     0.347 OA 
BRANCH  31  32
HETATM   32  C   UNL     1      -9.333  18.860  69.699  1.00  0.00     0.502 C  
HETATM   33  C   UNL     1      -7.945  18.656  69.199  1.00  0.00    -0.057 C  
HETATM   34  O   UNL     1      -9.895  19.939  69.838  1.00  0.00    -0.060 OA 
ENDBRANCH  31  32
ENDBRANCH  10  31
BRANCH   9  35
HETATM   35  N   UNL     1     -10.104  17.661  66.266  1.00  0.00    -0.344 N  
HETATM   36  C   UNL     1     -10.669  17.110  64.891  1.00  0.00     0.270 C  
HETATM   37  C   UNL     1     -10.237  20.172  65.714  1.00  0.00    -0.378 C  
HETATM   38  C   UNL     1     -10.773  19.016  66.558  1.00  0.00    -0.326 C  
HETATM   39  C   UNL     1      -8.726  20.265  65.791  1.00  0.00     0.113 C  
HETATM   40  C   UNL     1      -8.145  18.991  65.214  1.00  0.00     1.203 C  
HETATM   41  C   UNL     1      -8.584  17.782  66.047  1.00  0.00    -0.009 C  
ENDBRANCH   9  35
TORSDOF 6
ENDMDL
MODEL       56
REMARK 921   NORMALIZED FREE ENERGY PREDICTED BY IDOCK:   -0.39 KCAL/MOL
REMARK 922        TOTAL FREE ENERGY PREDICTED BY IDOCK:   -2.12 KCAL/MOL
REMARK 923 INTER-LIGAND FREE ENERGY PREDICTED BY IDOCK:   -3.41 KCAL/MOL
REMARK 924 INTRA-LIGAND FREE ENERGY PREDICTED BY IDOCK:    1.29 KCAL/MOL
REMARK 927      BINDING AFFINITY PREDICTED BY RF-SCORE:    0.00 PKD
ROOT
HETATM    1  C   UNL     1      -7.297   3.823  70.272  1.00  0.00    -0.041 C  
HETATM    2  C   UNL     1      -6.289   4.811  69.883  1.00  0.00    -0.030 C  
HETATM    3  C   UNL     1      -7.312   5.745  70.538  1.00  0.00    -0.084 C  
HETATM    4  C   UNL     1     -10.772   4.922  66.611  1.00  0.00    -0.072 C  
HETATM    5  C   UNL     1      -9.062   4.691  70.877  1.00  0.00    -0.131 C  
HETATM    6  C   UNL     1      -7.997   4.859  71.588  1.00  0.00    -0.111 C  
HETATM    7  C   UNL     1      -9.213   5.009  66.611  1.00  0.00    -0.129 C  
HETATM    8  C   UNL     1      -8.834   6.428  65.830  1.00  0.00    -0.142 C  
HETATM    9  C   UNL     1      -7.774   6.338  64.698  1.00  0.00    -0.105 C  
HETATM   10  C   UNL     1      -8.183   5.126  63.831  1.00  0.00    -0.130 C  
HETATM   11  C   UNL     1      -7.659   3.974  64.702  1.00  0.00    -0.077 C  
HETATM   12  C   UNL     1      -7.674   4.642  73.062  1.00  0.00    -0.088 C  
HETATM   13  C   UNL     1      -9.248   6.227  70.876  1.00  0.00    -0.163 C  
HETATM   14  C   UNL     1      -8.732   3.724  65.814  1.00  0.00    -0.116 C  
HETATM   15  C   UNL     1      -8.429   2.472  66.634  1.00  0.00    -0.101 C  
HETATM   16  C   UNL     1      -9.726   5.910  69.145  1.00  0.00    -0.176 C  
HETATM   17  C   UNL     1      -7.544   2.718  67.833  1.00  0.00    -0.056 C  
HETATM   18  C   UNL     1      -8.728   5.042  68.159  1.00  0.00    -0.106 C  
HETATM   19  C   UNL     1      -8.255   3.646  68.820  1.00  0.00    -0.084 C  
ENDROOT
BRANCH   3  20
HETATM   20  N   UNL     1      -6.890   7.494  70.193  1.00  0.00    -0.050 N  
HETATM   21  C   UNL     1      -7.381   8.741  71.199  1.00  0.00    -0.106 C  
HETATM   22  C   UNL     1      -6.934  10.098  70.677  1.00  0.00     0.033 C  
HETATM   23  C   UNL     1      -7.317   7.845  68.811  1.00  0.00    -0.086 C  
HETATM   24  C   UNL     1      -7.456  10.303  69.264  1.00  0.00    -0.112 C  
HETATM   25  C   UNL     1      -5.312   7.561  70.386  1.00  0.00    -0.023 C  
HETATM   26  C   UNL     1      -6.904   9.227  68.353  1.00  0.00    -0.063 C  
ENDBRANCH   3  20
BRANCH   5  27
HETATM   27  O   UNL     1      -9.922   4.622  72.298  1.00  0.00    -0.164 OA 
BRANCH  27  28
HETATM   28  C   UNL     1     -10.783   3.668  72.733  1.00  0.00    -0.052 C  
HETATM   29  C   UNL     1     -10.346   2.330  72.194  1.00  0.00    -0.123 C  
HETATM   30  O   UNL     1     -11.618   3.846  73.605  1.00  0.00    -0.173 OA 
ENDBRANCH  27  28
ENDBRANCH   5  27
BRANCH  10  31
HETATM   31  O   UNL     1      -9.526   4.729  63.488  1.00  0.00    -0.001 OA 
BRANCH  31  32
HETATM   32  C   UNL     1      -9.635   3.343  63.305  1.00  0.00    -0.106 C  
HETATM   33  C   UNL     1     -10.891   2.863  63.945  1.00  0.00    -0.017 C  
HETATM   34  O   UNL     1      -8.855   2.661  62.653  1.00  0.00    -0.078 OA 
ENDBRANCH  31  32
ENDBRANCH  10  31
BRANCH   9  35
HETATM   35  N   UNL     1      -7.459   7.719  63.737  1.00  0.00    -0.100 N  
HETATM   36  C   UNL     1      -6.291   7.397  62.715  1.00  0.00    -0.054 C  
HETATM   37  C   UNL     1      -8.651   9.525  62.343  1.00  0.00    -0.216 C  
HETATM   38  C   UNL     1      -8.711   8.117  62.935  1.00  0.00     0.283 C  
HETATM   39  C   UNL     1      -8.310  10.559  63.398  1.00  0.00    -0.123 C  
HETATM   40  C   UNL     1      -6.928  10.247  63.934  1.00  0.00    -0.055 C  
HETATM   41  C   UNL     1      -6.917   8.870  64.606  1.00  0.00    -0.084 C  
ENDBRANCH   9  35
TORSDOF 6
ENDMDL
MODEL       57
REMARK 921   NORMALIZED FREE ENERGY PREDICTED BY IDOCK:   -0.36 KCAL/MOL
REMARK 922        TOTAL FREE ENERGY PREDICTED BY IDOCK:   -2.07 KCAL/MOL
REMARK 923 INTER-LIGAND FREE ENERGY PREDICTED BY IDOCK:   -3.27 KCAL/MOL
REMARK 924 INTRA-LIGAND FREE ENERGY PREDICTED BY IDOCK:    1.20 KCAL/MOL
REMARK 927      BINDING AFFINITY PREDICTED BY RF-SCORE:    0.00 PKD
ROOT
HETATM    1  C   UNL     1     -10.840  16.232  68.788  1.00  0.00    -0.317 C  
HETATM    2  C   UNL     1      -9.921  15.782  69.836  1.00  0.00    -0.195 C  
HETATM    3  C   UNL     1      -8.904  16.357  68.844  1.00  0.00    -0.256 C  
HETATM    4  C   UNL     1      -9.887  12.467  65.383  1.00  0.00    -0.200 C  
HETATM    5  C   UNL     1      -9.865  16.755  67.054  1.00  0.00    -0.262 C  
HETATM    6  C   UNL     1      -9.685  17.462  68.118  1.00  0.00    -0.291 C  
HETATM    7  C   UNL     1      -9.858  12.476  66.945  1.00  0.00    -0.229 C  
HETATM    8  C   UNL     1      -8.515  11.597  67.382  1.00  0.00    -0.150 C  
HETATM    9  C   UNL     1      -8.727  10.485  68.446  1.00  0.00    -0.137 C  
HETATM   10  C   UNL     1      -9.984   9.705  67.998  1.00  0.00    -0.160 C  
HETATM   11  C   UNL     1     -11.087  10.663  68.472  1.00  0.00    -0.318 C  
HETATM   12  C   UNL     1      -9.804  18.952  68.423  1.00  0.00    -0.435 C  
HETATM   13  C   UNL     1      -8.328  16.640  66.925  1.00  0.00    -0.243 C  
HETATM   14  C   UNL     1     -11.214  11.780  67.383  1.00  0.00    -0.357 C  
HETATM   15  C   UNL     1     -12.412  12.692  67.633  1.00  0.00     0.732 C  
HETATM   16  C   UNL     1      -8.754  14.932  66.447  1.00  0.00    -0.117 C  
HETATM   17  C   UNL     1     -12.112  13.879  68.518  1.00  0.00    -0.331 C  
HETATM   18  C   UNL     1      -9.728  14.022  67.419  1.00  0.00    -0.233 C  
HETATM   19  C   UNL     1     -11.088  14.788  67.835  1.00  0.00    -0.301 C  
ENDROOT
BRANCH   3  20
HETATM   20  N   UNL     1      -7.202  15.889  69.333  1.00  0.00    -0.215 N  
HETATM   21  C   UNL     1      -6.537  14.406  68.926  1.00  0.00    -0.094 C  
HETATM   22  C   UNL     1      -5.127  14.249  69.477  1.00  0.00    -0.090 C  
HETATM   23  C   UNL     1      -7.043  16.058  70.804  1.00  0.00     1.900 C  
HETATM   24  C   UNL     1      -5.140  14.442  70.985  1.00  0.00    -0.125 C  
HETATM   25  C   UNL     1      -6.271  16.872  68.497  1.00  0.00    -0.146 C  
HETATM   26  C   UNL     1      -5.638  15.833  71.318  1.00  0.00     0.240 C  
ENDBRANCH   3  20
BRANCH   5  27
HETATM   27  O   UNL     1      -9.798  18.169  66.181  1.00  0.00    -0.443 OA 
BRANCH  27  28
HETATM   28  C   UNL     1      -8.724  18.777  65.617  1.00  0.00     0.704 C  
HETATM   29  C   UNL     1      -9.015  20.249  65.471  1.00  0.00     0.443 C  
HETATM   30  O   UNL     1      -7.632  18.251  65.484  1.00  0.00    -0.518 OA 
ENDBRANCH  27  28
ENDBRANCH   5  27
BRANCH  10  31
HETATM   31  O   UNL     1     -10.355   9.379  66.644  1.00  0.00    -0.249 OA 
BRANCH  31  32
HETATM   32  C   UNL     1      -9.974   8.076  66.292  1.00  0.00    -0.046 C  
HETATM   33  C   UNL     1     -10.909   7.106  66.926  1.00  0.00    -0.307 C  
HETATM   34  O   UNL     1      -9.063   7.798  65.522  1.00  0.00    -0.021 OA 
ENDBRANCH  31  32
ENDBRANCH  10  31
BRANCH   9  35
HETATM   35  N   UNL     1      -7.433   9.429  68.820  1.00  0.00    -0.075 N  
HETATM   36  C   UNL     1      -6.377   9.445  67.637  1.00  0.00    -0.058 C  
HETATM   37  C   UNL     1      -5.811   8.814  70.723  1.00  0.00    -0.034 C  
HETATM   38  C   UNL     1      -6.724   9.877  70.110  1.00  0.00    -0.112 C  
HETATM   39  C   UNL     1      -6.538   7.498  70.911  1.00  0.00    -0.042 C  
HETATM   40  C   UNL     1      -6.953   6.989  69.547  1.00  0.00    -0.062 C  
HETATM   41  C   UNL     1      -7.927   7.970  68.887  1.00  0.00    -0.118 C  
ENDBRANCH   9  35
TORSDOF 6
ENDMDL
MODEL       58
REMARK 921   NORMALIZED FREE ENERGY PREDICTED BY IDOCK:   -0.11 KCAL/MOL
REMARK 922        TOTAL FREE ENERGY PREDICTED BY IDOCK:   -1.74 KCAL/MOL
REMARK 923 INTER-LIGAND FREE ENERGY PREDICTED BY IDOCK:   -2.31 KCAL/MOL
REMARK 924 INTRA-LIGAND FREE ENERGY PREDICTED BY IDOCK:    0.57 KCAL/MOL
REMARK 927      BINDING AFFINITY PREDICTED BY RF-SCORE:    0.00 PKD
ROOT
HETATM    1  C   UNL     1     -10.274   8.028  67.130  1.00  0.00    -0.362 C  
HETATM    2  C   UNL     1     -10.283   8.735  65.848  1.00  0.00     0.333 C  
HETATM    3  C   UNL     1      -8.772   8.551  66.020  1.00  0.00    -0.161 C  
HETATM    4  C   UNL     1      -8.686  11.966  70.071  1.00  0.00     2.937 C  
HETATM    5  C   UNL     1      -8.391   7.894  67.947  1.00  0.00    -0.126 C  
HETATM    6  C   UNL     1      -8.651   7.265  66.850  1.00  0.00    -0.124 C  
HETATM    7  C   UNL     1      -9.543  11.935  68.766  1.00  0.00    -0.024 C  
HETATM    8  C   UNL     1      -9.001  13.200  67.832  1.00  0.00    -0.200 C  
HETATM    9  C   UNL     1     -10.083  14.156  67.259  1.00  0.00    -0.256 C  
HETATM   10  C   UNL     1     -11.026  14.484  68.439  1.00  0.00    -0.245 C  
HETATM   11  C   UNL     1     -11.875  13.204  68.478  1.00  0.00    -0.377 C  
HETATM   12  C   UNL     1      -8.491   5.815  66.408  1.00  0.00    -0.122 C  
HETATM   13  C   UNL     1      -7.161   8.516  67.245  1.00  0.00    -0.076 C  
HETATM   14  C   UNL     1     -11.040  12.131  69.255  1.00  0.00    -0.229 C  
HETATM   15  C   UNL     1     -11.849  10.868  69.537  1.00  0.00    -0.404 C  
HETATM   16  C   UNL     1      -7.707   9.995  68.160  1.00  0.00    -0.085 C  
HETATM   17  C   UNL     1     -11.777   9.830  68.442  1.00  0.00     0.647 C  
HETATM   18  C   UNL     1      -9.270  10.509  68.039  1.00  0.00    -0.143 C  
HETATM   19  C   UNL     1     -10.340   9.327  68.298  1.00  0.00    -0.257 C  
ENDROOT
BRANCH   3  20
HETATM   20  N   UNL     1      -7.863   9.548  64.780  1.00  0.00    -0.115 N  
HETATM   21  C   UNL     1      -8.443   9.773  63.224  1.00  0.00    -0.181 C  
HETATM   22  C   UNL     1      -7.491  10.608  62.382  1.00  0.00    -0.158 C  
HETATM   23  C   UNL     1      -6.467   9.044  64.664  1.00  0.00    -0.070 C  
HETATM   24  C   UNL     1      -6.118   9.957  62.359  1.00  0.00    -0.105 C  
HETATM   25  C   UNL     1      -7.937  11.034  65.343  1.00  0.00     0.141 C  
HETATM   26  C   UNL     1      -5.570   9.870  63.768  1.00  0.00    -0.104 C  
ENDBRANCH   3  20
BRANCH   5  27
HETATM   27  O   UNL     1      -7.443   6.602  68.388  1.00  0.00    -0.091 OA 
BRANCH  27  28
HETATM   28  C   UNL     1      -7.122   6.158  69.629  1.00  0.00    -0.073 C  
HETATM   29  C   UNL     1      -6.429   7.265  70.382  1.00  0.00    -0.042 C  
HETATM   30  O   UNL     1      -7.546   5.123  70.116  1.00  0.00    -0.067 OA 
ENDBRANCH  27  28
ENDBRANCH   5  27
BRANCH  10  31
HETATM   31  O   UNL     1     -10.641  14.697  69.813  1.00  0.00    -0.166 OA 
BRANCH  31  32
HETATM   32  C   UNL     1     -10.769  16.040  70.193  1.00  0.00    -0.312 C  
HETATM   33  C   UNL     1     -11.984  16.195  71.039  1.00  0.00    -0.309 C  
HETATM   34  O   UNL     1      -9.959  16.921  69.930  1.00  0.00     0.106 OA 
ENDBRANCH  31  32
ENDBRANCH  10  31
BRANCH   9  35
HETATM   35  N   UNL     1      -9.594  15.574  66.435  1.00  0.00    -0.268 N  
HETATM   36  C   UNL     1      -9.810  15.382  64.876  1.00  0.00     0.261 C  
HETATM   37  C   UNL     1      -9.834  18.137  66.505  1.00  0.00    -0.362 C  
HETATM   38  C   UNL     1     -10.427  16.783  66.897  1.00  0.00    -0.269 C  
HETATM   39  C   UNL     1      -8.386  18.256  66.939  1.00  0.00    -0.256 C  
HETATM   40  C   UNL     1      -7.587  17.197  66.209  1.00  0.00    -0.352 C  
HETATM   41  C   UNL     1      -8.078  15.799  66.598  1.00  0.00    -0.247 C  
ENDBRANCH   9  35
TORSDOF 6
ENDMDL
MODEL       59
REMARK 921   NORMALIZED FREE ENERGY PREDICTED BY IDOCK:    0.78 KCAL/MOL
REMARK 922        TOTAL FREE ENERGY PREDICTED BY IDOCK:   -0.54 KCAL/MOL
REMARK 923 INTER-LIGAND FREE ENERGY PREDICTED BY IDOCK:   -0.84 KCAL/MOL
REMARK 924 INTRA-LIGAND FREE ENERGY PREDICTED BY IDOCK:    0.30 KCAL/MOL
REMARK 927      BINDING AFFINITY PREDICTED BY RF-SCORE:    0.00 PKD
ROOT
HETATM    1  C   UNL     1     -11.030   9.287  66.949  1.00  0.00     0.140 C  
HETATM    2  C   UNL     1     -11.755   8.535  67.974  1.00  0.00     2.211 C  
HETATM    3  C   UNL     1     -10.943   9.467  68.878  1.00  0.00    -0.086 C  
HETATM    4  C   UNL     1      -6.431   7.019  67.566  1.00  0.00    -0.054 C  
HETATM    5  C   UNL     1      -9.512  10.433  67.734  1.00  0.00    -0.145 C  
HETATM    6  C   UNL     1     -10.737  10.723  68.019  1.00  0.00    -0.270 C  
HETATM    7  C   UNL     1      -7.882   6.475  67.757  1.00  0.00    -0.111 C  
HETATM    8  C   UNL     1      -7.847   5.557  69.144  1.00  0.00    -0.091 C  
HETATM    9  C   UNL     1      -8.458   4.131  69.051  1.00  0.00    -0.081 C  
HETATM   10  C   UNL     1      -7.883   3.508  67.759  1.00  0.00    -0.076 C  
HETATM   11  C   UNL     1      -8.771   4.187  66.705  1.00  0.00    -0.114 C  
HETATM   12  C   UNL     1     -11.563  12.001  67.923  1.00  0.00    -0.405 C  
HETATM   13  C   UNL     1      -9.205  10.436  69.250  1.00  0.00    -0.198 C  
HETATM   14  C   UNL     1      -8.169   5.611  66.458  1.00  0.00    -0.106 C  
HETATM   15  C   UNL     1      -8.841   6.323  65.287  1.00  0.00     0.059 C  
HETATM   16  C   UNL     1      -8.192   8.993  68.788  1.00  0.00    -0.117 C  
HETATM   17  C   UNL     1     -10.059   7.131  65.670  1.00  0.00     1.343 C  
HETATM   18  C   UNL     1      -8.863   7.756  67.926  1.00  0.00    -0.123 C  
HETATM   19  C   UNL     1      -9.652   8.266  66.611  1.00  0.00    -0.299 C  
ENDROOT
BRANCH   3  20
HETATM   20  N   UNL     1     -11.068   8.930  70.625  1.00  0.00    -0.255 N  
HETATM   21  C   UNL     1      -9.756   8.306  71.459  1.00  0.00    -0.251 C  
HETATM   22  C   UNL     1     -10.127   7.904  72.879  1.00  0.00    -0.376 C  
HETATM   23  C   UNL     1     -12.187   7.958  70.767  1.00  0.00    -0.032 C  
HETATM   24  C   UNL     1     -11.275   6.907  72.848  1.00  0.00    -0.254 C  
HETATM   25  C   UNL     1     -11.318  10.279  71.432  1.00  0.00     0.093 C  
HETATM   26  C   UNL     1     -12.484   7.539  72.191  1.00  0.00    -0.228 C  
ENDBRANCH   3  20
BRANCH   5  27
HETATM   27  O   UNL     1      -9.200  12.065  67.701  1.00  0.00    -0.172 OA 
BRANCH  27  28
HETATM   28  C   UNL     1      -8.144  12.725  67.163  1.00  0.00    -0.129 C  
HETATM   29  C   UNL     1      -8.617  14.050  66.622  1.00  0.00     0.020 C  
HETATM   30  O   UNL     1      -6.980  12.394  67.317  1.00  0.00    -0.148 OA 
ENDBRANCH  27  28
ENDBRANCH   5  27
BRANCH  10  31
HETATM   31  O   UNL     1      -6.543   3.667  67.251  1.00  0.00    -0.040 OA 
BRANCH  31  32
HETATM   32  C   UNL     1      -5.582   3.138  68.124  1.00  0.00    -0.018 C  
HETATM   33  C   UNL     1      -5.234   4.164  69.147  1.00  0.00    -0.008 C  
HETATM   34  O   UNL     1      -5.163   1.988  68.088  1.00  0.00    -0.011 OA 
ENDBRANCH  31  32
ENDBRANCH  10  31
BRANCH   9  35
HETATM   35  N   UNL     1      -8.305   3.068  70.383  1.00  0.00    -0.048 N  
HETATM   36  C   UNL     1      -7.838   1.642  69.872  1.00  0.00    -0.042 C  
HETATM   37  C   UNL     1      -7.310   2.929  72.753  1.00  0.00    -0.045 C  
HETATM   38  C   UNL     1      -7.256   3.595  71.378  1.00  0.00    -0.033 C  
HETATM   39  C   UNL     1      -8.708   2.971  73.338  1.00  0.00    -0.077 C  
HETATM   40  C   UNL     1      -9.623   2.178  72.428  1.00  0.00    -0.169 C  
HETATM   41  C   UNL     1      -9.678   2.821  71.039  1.00  0.00    -0.090 C  
ENDBRANCH   9  35
TORSDOF 6
ENDMDL
MODEL       60
REMARK 921   NORMALIZED FREE ENERGY PREDICTED BY IDOCK:    1.31 KCAL/MOL
REMARK 922        TOTAL FREE ENERGY PREDICTED BY IDOCK:    0.18 KCAL/MOL
REMARK 923 INTER-LIGAND FREE ENERGY PREDICTED BY IDOCK:    0.93 KCAL/MOL
REMARK 924 INTRA-LIGAND FREE ENERGY PREDICTED BY IDOCK:   -0.74 KCAL/MOL
REMARK 927      BINDING AFFINITY PREDICTED BY RF-SCORE:    0.00 PKD
ROOT
HETATM    1  C   UNL     1      -6.384   8.349  68.506  1.00  0.00    -0.054 C  
HETATM    2  C   UNL     1      -5.709   9.642  68.369  1.00  0.00    -0.040 C  
HETATM    3  C   UNL     1      -6.281   9.808  69.780  1.00  0.00    -0.048 C  
HETATM    4  C   UNL     1     -11.226  10.039  67.892  1.00  0.00    -0.169 C  
HETATM    5  C   UNL     1      -7.623   8.274  70.146  1.00  0.00    -0.075 C  
HETATM    6  C   UNL     1      -6.348   8.372  70.320  1.00  0.00    -0.035 C  
HETATM    7  C   UNL     1      -9.873  10.554  67.307  1.00  0.00    -0.209 C  
HETATM    8  C   UNL     1      -9.944  12.214  67.384  1.00  0.00    -0.206 C  
HETATM    9  C   UNL     1      -9.584  12.987  66.085  1.00  0.00    -0.202 C  
HETATM   10  C   UNL     1     -10.358  12.286  64.947  1.00  0.00    -0.290 C  
HETATM   11  C   UNL     1      -9.462  11.060  64.717  1.00  0.00    -0.267 C  
HETATM   12  C   UNL     1      -5.334   7.573  71.132  1.00  0.00    -0.027 C  
HETATM   13  C   UNL     1      -7.799   9.494  71.081  1.00  0.00     0.207 C  
HETATM   14  C   UNL     1      -9.840  10.011  65.816  1.00  0.00    -0.345 C  
HETATM   15  C   UNL     1      -9.159   8.665  65.584  1.00  0.00    -0.221 C  
HETATM   16  C   UNL     1      -9.070   9.931  69.850  1.00  0.00    -0.241 C  
HETATM   17  C   UNL     1      -7.798   8.541  66.227  1.00  0.00    -0.098 C  
HETATM   18  C   UNL     1      -8.684   9.972  68.246  1.00  0.00    -0.119 C  
HETATM   19  C   UNL     1      -7.933   8.631  67.748  1.00  0.00    -0.107 C  
ENDROOT
BRANCH   3  20
HETATM   20  N   UNL     1      -6.101  11.543  70.340  1.00  0.00    -0.145 N  
HETATM   21  C   UNL     1      -7.397  12.423  70.936  1.00  0.00     4.627 C  
HETATM   22  C   UNL     1      -6.995  13.844  71.300  1.00  0.00     2.078 C  
HETATM   23  C   UNL     1      -5.475  12.352  69.258  1.00  0.00    -0.071 C  
HETATM   24  C   UNL     1      -6.382  14.532  70.090  1.00  0.00    -0.168 C  
HETATM   25  C   UNL     1      -5.189  11.442  71.640  1.00  0.00     0.081 C  
HETATM   26  C   UNL     1      -5.147  13.778  69.644  1.00  0.00    -0.084 C  
ENDBRANCH   3  20
BRANCH   5  27
HETATM   27  O   UNL     1      -7.664   7.286  71.483  1.00  0.00    -0.086 OA 
BRANCH  27  28
HETATM   28  C   UNL     1      -8.180   6.038  71.610  1.00  0.00    -0.119 C  
HETATM   29  C   UNL     1      -8.705   5.864  73.012  1.00  0.00    -0.123 C  
HETATM   30  O   UNL     1      -8.392   5.287  70.673  1.00  0.00    -0.109 OA 
ENDBRANCH  27  28
ENDBRANCH   5  27
BRANCH  10  31
HETATM   31  O   UNL     1     -11.692  11.741  65.023  1.00  0.00    -0.234 OA 
BRANCH  31  32
HETATM   32  C   UNL     1     -12.582  12.406  64.168  1.00  0.00    -0.403 C  
HETATM   33  C   UNL     1     -13.021  13.676  64.811  1.00  0.00    -0.032 C  
HETATM   34  O   UNL     1     -12.881  12.030  63.042  1.00  0.00    -0.537 OA 
ENDBRANCH  31  32
ENDBRANCH  10  31
BRANCH   9  35
HETATM   35  N   UNL     1      -9.799  14.685  66.037  1.00  0.00    -0.307 N  
HETATM   36  C   UNL     1     -10.268  15.118  64.587  1.00  0.00     0.175 C  
HETATM   37  C   UNL     1     -10.879  16.622  67.344  1.00  0.00    -0.186 C  
HETATM   38  C   UNL     1     -10.875  15.123  67.047  1.00  0.00    -0.314 C  
HETATM   39  C   UNL     1      -9.503  17.115  67.744  1.00  0.00    -0.253 C  
HETATM   40  C   UNL     1      -8.567  16.900  66.572  1.00  0.00    -0.305 C  
HETATM   41  C   UNL     1      -8.454  15.407  66.249  1.00  0.00    -0.012 C  
ENDBRANCH   9  35
TORSDOF 6
ENDMDL
MODEL       61
REMARK 921   NORMALIZED FREE ENERGY PREDICTED BY IDOCK:    1.40 KCAL/MOL
REMARK 922        TOTAL FREE ENERGY PREDICTED BY IDOCK:    0.29 KCAL/MOL
REMARK 923 INTER-LIGAND FREE ENERGY PREDICTED BY IDOCK:   -0.15 KCAL/MOL
REMARK 924 INTRA-LIGAND FREE ENERGY PREDICTED BY IDOCK:    0.44 KCAL/MOL
REMARK 927      BINDING AFFINITY PREDICTED BY RF-SCORE:    0.00 PKD
ROOT
HETATM    1  C   UNL     1      -9.713   6.264  66.496  1.00  0.00    -0.180 C  
HETATM    2  C   UNL     1     -10.101   7.589  66.010  1.00  0.00     0.484 C  
HETATM    3  C   UNL     1      -9.029   7.247  64.970  1.00  0.00     0.497 C  
HETATM    4  C   UNL     1      -5.197   7.611  68.611  1.00  0.00    -0.026 C  
HETATM    5  C   UNL     1      -8.003   5.560  65.594  1.00  0.00    -0.109 C  
HETATM    6  C   UNL     1      -9.073   5.715  64.889  1.00  0.00     0.184 C  
HETATM    7  C   UNL     1      -6.529   8.406  68.432  1.00  0.00    -0.059 C  
HETATM    8  C   UNL     1      -6.086   9.942  67.973  1.00  0.00    -0.053 C  
HETATM    9  C   UNL     1      -6.727  11.117  68.764  1.00  0.00    -0.067 C  
HETATM   10  C   UNL     1      -6.592  10.744  70.258  1.00  0.00    -0.097 C  
HETATM   11  C   UNL     1      -7.748   9.741  70.397  1.00  0.00    -0.159 C  
HETATM   12  C   UNL     1      -9.861   4.796  63.962  1.00  0.00     0.354 C  
HETATM   13  C   UNL     1      -7.242   6.400  64.541  1.00  0.00    -0.061 C  
HETATM   14  C   UNL     1      -7.222   8.368  69.858  1.00  0.00    -0.055 C  
HETATM   15  C   UNL     1      -8.208   7.233  70.120  1.00  0.00    -0.134 C  
HETATM   16  C   UNL     1      -6.452   7.087  66.033  1.00  0.00    -0.051 C  
HETATM   17  C   UNL     1      -9.231   7.036  69.025  1.00  0.00    -0.137 C  
HETATM   18  C   UNL     1      -7.383   7.668  67.266  1.00  0.00    -0.091 C  
HETATM   19  C   UNL     1      -8.529   6.628  67.729  1.00  0.00    -0.122 C  
ENDROOT
BRANCH   3  20
HETATM   20  N   UNL     1      -8.620   8.725  63.967  1.00  0.00    -0.114 N  
HETATM   21  C   UNL     1      -7.250   9.645  64.259  1.00  0.00    -0.122 C  
HETATM   22  C   UNL     1      -7.156  10.833  63.314  1.00  0.00     0.250 C  
HETATM   23  C   UNL     1      -9.784   9.654  63.953  1.00  0.00     0.496 C  
HETATM   24  C   UNL     1      -8.413  11.681  63.426  1.00  0.00     0.755 C  
HETATM   25  C   UNL     1      -8.282   8.138  62.527  1.00  0.00    -0.156 C  
HETATM   26  C   UNL     1      -9.623  10.854  63.045  1.00  0.00    -0.382 C  
ENDBRANCH   3  20
BRANCH   5  27
HETATM   27  O   UNL     1      -7.682   4.201  64.692  1.00  0.00    -0.079 OA 
BRANCH  27  28
HETATM   28  C   UNL     1      -6.769   3.223  64.913  1.00  0.00    -0.040 C  
HETATM   29  C   UNL     1      -7.433   1.882  64.732  1.00  0.00    -0.062 C  
HETATM   30  O   UNL     1      -5.567   3.415  65.002  1.00  0.00    -0.009 OA 
ENDBRANCH  27  28
ENDBRANCH   5  27
BRANCH  10  31
HETATM   31  O   UNL     1      -5.472  10.083  70.881  1.00  0.00    -0.059 OA 
BRANCH  31  32
HETATM   32  C   UNL     1      -5.652   9.933  72.263  1.00  0.00     0.185 C  
HETATM   33  C   UNL     1      -6.129   8.551  72.547  1.00  0.00    -0.075 C  
HETATM   34  O   UNL     1      -5.381  10.785  73.100  1.00  0.00    -0.220 OA 
ENDBRANCH  31  32
ENDBRANCH  10  31
BRANCH   9  35
HETATM   35  N   UNL     1      -6.192  12.715  68.466  1.00  0.00    -0.063 N  
HETATM   36  C   UNL     1      -5.185  12.717  67.242  1.00  0.00     0.019 C  
HETATM   37  C   UNL     1      -7.067  15.121  68.198  1.00  0.00    -0.124 C  
HETATM   38  C   UNL     1      -7.381  13.628  68.118  1.00  0.00    -0.121 C  
HETATM   39  C   UNL     1      -6.450  15.490  69.532  1.00  0.00    -0.165 C  
HETATM   40  C   UNL     1      -5.132  14.754  69.662  1.00  0.00    -0.088 C  
HETATM   41  C   UNL     1      -5.366  13.240  69.656  1.00  0.00    -0.089 C  
ENDBRANCH   9  35
TORSDOF 6
ENDMDL
MODEL       62
REMARK 921   NORMALIZED FREE ENERGY PREDICTED BY IDOCK:    1.47 KCAL/MOL
REMARK 922        TOTAL FREE ENERGY PREDICTED BY IDOCK:    0.39 KCAL/MOL
REMARK 923 INTER-LIGAND FREE ENERGY PREDICTED BY IDOCK:   -0.88 KCAL/MOL
REMARK 924 INTRA-LIGAND FREE ENERGY PREDICTED BY IDOCK:    1.27 KCAL/MOL
REMARK 927      BINDING AFFINITY PREDICTED BY RF-SCORE:    0.00 PKD
ROOT
HETATM    1  C   UNL     1      -7.163   8.875  70.887  1.00  0.00    -0.093 C  
HETATM    2  C   UNL     1      -8.522   8.954  70.346  1.00  0.00    -0.181 C  
HETATM    3  C   UNL     1      -8.721   7.818  71.354  1.00  0.00    -0.128 C  
HETATM    4  C   UNL     1      -5.716   4.550  68.463  1.00  0.00    -0.017 C  
HETATM    5  C   UNL     1      -6.869   7.200  72.044  1.00  0.00    -0.056 C  
HETATM    6  C   UNL     1      -7.686   8.114  72.449  1.00  0.00    -0.161 C  
HETATM    7  C   UNL     1      -6.704   5.684  68.044  1.00  0.00    -0.055 C  
HETATM    8  C   UNL     1      -8.008   4.920  67.349  1.00  0.00    -0.095 C  
HETATM    9  C   UNL     1      -8.472   5.456  65.966  1.00  0.00    -0.123 C  
HETATM   10  C   UNL     1      -7.189   5.606  65.118  1.00  0.00    -0.070 C  
HETATM   11  C   UNL     1      -6.639   6.925  65.681  1.00  0.00    -0.051 C  
HETATM   12  C   UNL     1      -7.817   8.906  73.745  1.00  0.00     0.422 C  
HETATM   13  C   UNL     1      -7.995   6.161  72.261  1.00  0.00    -0.105 C  
HETATM   14  C   UNL     1      -5.892   6.572  67.011  1.00  0.00    -0.017 C  
HETATM   15  C   UNL     1      -5.128   7.767  67.575  1.00  0.00    -0.030 C  
HETATM   16  C   UNL     1      -7.324   5.489  70.705  1.00  0.00    -0.079 C  
HETATM   17  C   UNL     1      -5.940   8.638  68.504  1.00  0.00    -0.045 C  
HETATM   18  C   UNL     1      -7.137   6.474  69.394  1.00  0.00    -0.077 C  
HETATM   19  C   UNL     1      -6.344   7.838  69.743  1.00  0.00    -0.030 C  
ENDROOT
BRANCH   3  20
HETATM   20  N   UNL     1     -10.350   7.018  71.099  1.00  0.00    -0.206 N  
HETATM   21  C   UNL     1     -11.723   7.901  70.720  1.00  0.00    -0.230 C  
HETATM   22  C   UNL     1     -12.950   7.010  70.593  1.00  0.00     0.137 C  
HETATM   23  C   UNL     1     -10.678   6.172  72.280  1.00  0.00    -0.229 C  
HETATM   24  C   UNL     1     -13.149   6.223  71.878  1.00  0.00     0.296 C  
HETATM   25  C   UNL     1     -10.164   6.170  69.766  1.00  0.00    -0.195 C  
HETATM   26  C   UNL     1     -11.939   5.349  72.135  1.00  0.00     0.278 C  
ENDBRANCH   3  20
BRANCH   5  27
HETATM   27  O   UNL     1      -6.417   6.992  73.630  1.00  0.00    -0.066 OA 
BRANCH  27  28
HETATM   28  C   UNL     1      -6.240   5.841  74.327  1.00  0.00    -0.068 C  
HETATM   29  C   UNL     1      -7.580   5.183  74.537  1.00  0.00    -0.089 C  
HETATM   30  O   UNL     1      -5.154   5.323  74.526  1.00  0.00    -0.020 OA 
ENDBRANCH  27  28
ENDBRANCH   5  27
BRANCH  10  31
HETATM   31  O   UNL     1      -6.052   4.719  65.116  1.00  0.00    -0.028 OA 
BRANCH  31  32
HETATM   32  C   UNL     1      -6.021   3.905  63.975  1.00  0.00    -0.014 C  
HETATM   33  C   UNL     1      -5.554   2.544  64.359  1.00  0.00    -0.009 C  
HETATM   34  O   UNL     1      -6.397   4.248  62.861  1.00  0.00    -0.021 OA 
ENDBRANCH  31  32
ENDBRANCH  10  31
BRANCH   9  35
HETATM   35  N   UNL     1      -9.694   4.615  65.112  1.00  0.00    -0.142 N  
HETATM   36  C   UNL     1     -11.107   4.935  65.756  1.00  0.00     0.213 C  
HETATM   37  C   UNL     1     -10.509   4.115  62.722  1.00  0.00    -0.099 C  
HETATM   38  C   UNL     1      -9.722   5.054  63.637  1.00  0.00     0.614 C  
HETATM   39  C   UNL     1     -10.051   2.678  62.870  1.00  0.00    -0.105 C  
HETATM   40  C   UNL     1     -10.327   2.240  64.293  1.00  0.00     0.199 C  
HETATM   41  C   UNL     1      -9.521   3.093  65.278  1.00  0.00    -0.107 C  
ENDBRANCH   9  35
TORSDOF 6
ENDMDL
MODEL       63
REMARK 921   NORMALIZED FREE ENERGY PREDICTED BY IDOCK:    1.66 KCAL/MOL
REMARK 922        TOTAL FREE ENERGY PREDICTED BY IDOCK:    0.66 KCAL/MOL
REMARK 923 INTER-LIGAND FREE ENERGY PREDICTED BY IDOCK:   -2.50 KCAL/MOL
REMARK 924 INTRA-LIGAND FREE ENERGY PREDICTED BY IDOCK:    3.15 KCAL/MOL
REMARK 927      BINDING AFFINITY PREDICTED BY RF-SCORE:    0.00 PKD
ROOT
HETATM    1  C   UNL     1      -7.791   5.378  71.525  1.00  0.00    -0.110 C  
HETATM    2  C   UNL     1      -7.933   6.714  72.109  1.00  0.00    -0.097 C  
HETATM    3  C   UNL     1      -9.404   6.285  72.109  1.00  0.00    -0.150 C  
HETATM    4  C   UNL     1      -9.601   6.499  66.819  1.00  0.00    -0.198 C  
HETATM    5  C   UNL     1      -9.598   4.554  70.989  1.00  0.00    -0.178 C  
HETATM    6  C   UNL     1      -9.340   4.756  72.238  1.00  0.00    -0.158 C  
HETATM    7  C   UNL     1      -8.825   7.369  67.858  1.00  0.00    -0.132 C  
HETATM    8  C   UNL     1      -9.552   8.865  67.835  1.00  0.00    -0.171 C  
HETATM    9  C   UNL     1      -8.611  10.093  67.689  1.00  0.00    -0.118 C  
HETATM   10  C   UNL     1      -7.638   9.746  66.539  1.00  0.00    -0.098 C  
HETATM   11  C   UNL     1      -6.660   8.818  67.275  1.00  0.00    -0.058 C  
HETATM   12  C   UNL     1      -9.375   3.866  73.475  1.00  0.00    -0.117 C  
HETATM   13  C   UNL     1     -10.926   5.322  71.186  1.00  0.00    -0.049 C  
HETATM   14  C   UNL     1      -7.331   7.405  67.327  1.00  0.00    -0.098 C  
HETATM   15  C   UNL     1      -6.379   6.337  67.861  1.00  0.00    -0.033 C  
HETATM   16  C   UNL     1     -10.483   5.993  69.550  1.00  0.00    -0.330 C  
HETATM   17  C   UNL     1      -6.408   6.178  69.363  1.00  0.00    -0.041 C  
HETATM   18  C   UNL     1      -8.992   6.657  69.307  1.00  0.00    -0.135 C  
HETATM   19  C   UNL     1      -7.791   5.698  69.807  1.00  0.00    -0.087 C  
ENDROOT
BRANCH   3  20
HETATM   20  N   UNL     1     -10.484   7.712  72.499  1.00  0.00    -0.243 N  
HETATM   21  C   UNL     1     -12.124   7.531  72.792  1.00  0.00     0.022 C  
HETATM   22  C   UNL     1     -12.801   8.868  73.057  1.00  0.00     0.387 C  
HETATM   23  C   UNL     1     -10.333   8.752  71.445  1.00  0.00    -0.278 C  
HETATM   24  C   UNL     1     -12.559   9.809  71.888  1.00  0.00    -0.479 C  
HETATM   25  C   UNL     1      -9.981   8.205  73.926  1.00  0.00     1.074 C  
HETATM   26  C   UNL     1     -11.073  10.044  71.720  1.00  0.00     0.602 C  
ENDBRANCH   3  20
BRANCH   5  27
HETATM   27  O   UNL     1     -10.378   3.158  71.443  1.00  0.00     0.141 OA 
BRANCH  27  28
HETATM   28  C   UNL     1      -9.915   2.119  72.183  1.00  0.00    -0.160 C  
HETATM   29  C   UNL     1     -10.982   1.697  73.160  1.00  0.00    -0.250 C  
HETATM   30  O   UNL     1      -8.901   1.492  71.922  1.00  0.00    -0.057 OA 
ENDBRANCH  27  28
ENDBRANCH   5  27
BRANCH  10  31
HETATM   31  O   UNL     1      -7.960   9.034  65.327  1.00  0.00    -0.105 OA 
BRANCH  31  32
HETATM   32  C   UNL     1      -8.944   9.691  64.575  1.00  0.00    -0.235 C  
HETATM   33  C   UNL     1      -8.295  10.419  63.450  1.00  0.00    -0.158 C  
HETATM   34  O   UNL     1     -10.149   9.607  64.776  1.00  0.00    -0.007 OA 
ENDBRANCH  31  32
ENDBRANCH  10  31
BRANCH   9  35
HETATM   35  N   UNL     1      -9.294  11.649  67.485  1.00  0.00    -0.166 N  
HETATM   36  C   UNL     1     -10.867  11.521  67.331  1.00  0.00    -0.246 C  
HETATM   37  C   UNL     1      -9.235  14.026  68.472  1.00  0.00    -0.170 C  
HETATM   38  C   UNL     1      -8.996  12.535  68.708  1.00  0.00     0.167 C  
HETATM   39  C   UNL     1      -8.511  14.517  67.234  1.00  0.00    -0.234 C  
HETATM   40  C   UNL     1      -9.076  13.785  66.035  1.00  0.00     0.192 C  
HETATM   41  C   UNL     1      -8.819  12.280  66.162  1.00  0.00     0.067 C  
ENDBRANCH   9  35
TORSDOF 6
ENDMDL
MODEL       64
REMARK 921   NORMALIZED FREE ENERGY PREDICTED BY IDOCK:    2.27 KCAL/MOL
REMARK 922        TOTAL FREE ENERGY PREDICTED BY IDOCK:    1.47 KCAL/MOL
REMARK 923 INTER-LIGAND FREE ENERGY PREDICTED BY IDOCK:   -0.72 KCAL/MOL
REMARK 924 INTRA-LIGAND FREE ENERGY PREDICTED BY IDOCK:    2.19 KCAL/MOL
REMARK 927      BINDING AFFINITY PREDICTED BY RF-SCORE:    0.00 PKD
ROOT
HETATM    1  C   UNL     1      -7.480  10.721  68.197  1.00  0.00    -0.091 C  
HETATM    2  C   UNL     1      -6.490   9.647  68.083  1.00  0.00    -0.057 C  
HETATM    3  C   UNL     1      -7.152   9.523  66.707  1.00  0.00    -0.086 C  
HETATM    4  C   UNL     1     -11.643   7.742  68.882  1.00  0.00     1.016 C  
HETATM    5  C   UNL     1      -8.869  10.681  66.681  1.00  0.00    -0.141 C  
HETATM    6  C   UNL     1      -7.637  10.948  66.404  1.00  0.00    -0.146 C  
HETATM    7  C   UNL     1     -10.148   7.531  69.282  1.00  0.00    -0.188 C  
HETATM    8  C   UNL     1      -9.807   5.938  68.952  1.00  0.00    -0.183 C  
HETATM    9  C   UNL     1      -9.124   5.122  70.086  1.00  0.00    -0.128 C  
HETATM   10  C   UNL     1      -9.921   5.437  71.371  1.00  0.00    -0.184 C  
HETATM   11  C   UNL     1      -9.343   6.815  71.725  1.00  0.00    -0.147 C  
HETATM   12  C   UNL     1      -6.952  12.088  65.657  1.00  0.00     2.124 C  
HETATM   13  C   UNL     1      -8.833   9.593  65.582  1.00  0.00    -0.189 C  
HETATM   14  C   UNL     1     -10.091   7.862  70.833  1.00  0.00    -0.205 C  
HETATM   15  C   UNL     1      -9.749   9.297  71.224  1.00  0.00    -0.299 C  
HETATM   16  C   UNL     1      -9.810   8.675  66.817  1.00  0.00    -0.322 C  
HETATM   17  C   UNL     1      -8.542   9.862  70.513  1.00  0.00     0.173 C  
HETATM   18  C   UNL     1      -9.255   8.527  68.363  1.00  0.00    -0.135 C  
HETATM   19  C   UNL     1      -8.816   9.941  69.010  1.00  0.00    -0.156 C  
ENDROOT
BRANCH   3  20
HETATM   20  N   UNL     1      -6.603   7.987  65.872  1.00  0.00    -0.046 N  
HETATM   21  C   UNL     1      -7.592   7.152  64.808  1.00  0.00    -0.105 C  
HETATM   22  C   UNL     1      -6.918   5.896  64.277  1.00  0.00    -0.051 C  
HETATM   23  C   UNL     1      -6.123   7.013  66.890  1.00  0.00    -0.037 C  
HETATM   24  C   UNL     1      -6.497   5.009  65.437  1.00  0.00    -0.036 C  
HETATM   25  C   UNL     1      -5.449   8.469  64.888  1.00  0.00    -0.043 C  
HETATM   26  C   UNL     1      -5.515   5.751  66.319  1.00  0.00    -0.013 C  
ENDBRANCH   3  20
BRANCH   5  27
HETATM   27  O   UNL     1      -9.303  11.789  65.521  1.00  0.00    -0.208 OA 
BRANCH  27  28
HETATM   28  C   UNL     1     -10.005  11.601  64.375  1.00  0.00    -0.262 C  
HETATM   29  C   UNL     1     -11.264  10.834  64.690  1.00  0.00     0.516 C  
HETATM   30  O   UNL     1      -9.763  12.170  63.323  1.00  0.00    -0.370 OA 
ENDBRANCH  27  28
ENDBRANCH   5  27
BRANCH  10  31
HETATM   31  O   UNL     1     -11.349   5.614  71.476  1.00  0.00    -0.185 OA 
BRANCH  31  32
HETATM   32  C   UNL     1     -11.695   6.503  72.503  1.00  0.00    -0.167 C  
HETATM   33  C   UNL     1     -11.303   5.914  73.813  1.00  0.00     0.558 C  
HETATM   34  O   UNL     1     -12.173   7.618  72.330  1.00  0.00    -0.258 OA 
ENDBRANCH  31  32
ENDBRANCH  10  31
BRANCH   9  35
HETATM   35  N   UNL     1      -8.898   3.438  69.884  1.00  0.00    -0.081 N  
HETATM   36  C   UNL     1      -9.614   2.662  71.066  1.00  0.00    -0.140 C  
HETATM   37  C   UNL     1      -9.045   1.578  68.109  1.00  0.00    -0.187 C  
HETATM   38  C   UNL     1      -9.509   2.966  68.552  1.00  0.00    -0.134 C  
HETATM   39  C   UNL     1      -7.533   1.473  68.100  1.00  0.00    -0.046 C  
HETATM   40  C   UNL     1      -7.038   1.672  69.518  1.00  0.00    -0.036 C  
HETATM   41  C   UNL     1      -7.407   3.072  70.018  1.00  0.00    -0.044 C  
ENDBRANCH   9  35
TORSDOF 6
ENDMDL
MODEL       65
REMARK 921   NORMALIZED FREE ENERGY PREDICTED BY IDOCK:    2.89 KCAL/MOL
REMARK 922        TOTAL FREE ENERGY PREDICTED BY IDOCK:    2.32 KCAL/MOL
REMARK 923 INTER-LIGAND FREE ENERGY PREDICTED BY IDOCK:    2.35 KCAL/MOL
REMARK 924 INTRA-LIGAND FREE ENERGY PREDICTED BY IDOCK:   -0.04 KCAL/MOL
REMARK 927      BINDING AFFINITY PREDICTED BY RF-SCORE:    0.00 PKD
ROOT
HETATM    1  C   UNL     1      -8.621  17.274  65.928  1.00  0.00     0.010 C  
HETATM    2  C   UNL     1      -9.284  16.099  65.358  1.00  0.00     0.472 C  
HETATM    3  C   UNL     1     -10.321  16.479  66.419  1.00  0.00    -0.311 C  
HETATM    4  C   UNL     1      -7.023  15.086  70.326  1.00  0.00     0.088 C  
HETATM    5  C   UNL     1      -9.505  17.911  67.673  1.00  0.00    -0.260 C  
HETATM    6  C   UNL     1     -10.159  17.999  66.563  1.00  0.00    -0.379 C  
HETATM    7  C   UNL     1      -7.242  14.490  68.899  1.00  0.00    -0.125 C  
HETATM    8  C   UNL     1      -7.961  13.008  69.128  1.00  0.00     0.441 C  
HETATM    9  C   UNL     1      -7.326  11.803  68.380  1.00  0.00    -0.094 C  
HETATM   10  C   UNL     1      -5.804  11.910  68.622  1.00  0.00    -0.049 C  
HETATM   11  C   UNL     1      -5.438  13.004  67.607  1.00  0.00    -0.093 C  
HETATM   12  C   UNL     1     -10.881  19.141  65.857  1.00  0.00    -0.316 C  
HETATM   13  C   UNL     1     -10.721  17.171  68.278  1.00  0.00    -0.363 C  
HETATM   14  C   UNL     1      -5.788  14.376  68.276  1.00  0.00    -0.117 C  
HETATM   15  C   UNL     1      -5.292  15.560  67.451  1.00  0.00     0.101 C  
HETATM   16  C   UNL     1      -9.405  16.164  69.039  1.00  0.00    -0.248 C  
HETATM   17  C   UNL     1      -6.278  16.050  66.416  1.00  0.00     1.313 C  
HETATM   18  C   UNL     1      -8.224  15.502  68.096  1.00  0.00    -0.144 C  
HETATM   19  C   UNL     1      -7.534  16.579  67.108  1.00  0.00    -0.217 C  
ENDROOT
BRANCH   3  20
HETATM   20  N   UNL     1     -11.565  15.146  66.599  1.00  0.00    -0.201 N  
HETATM   21  C   UNL     1     -11.212  13.698  67.364  1.00  0.00    -0.323 C  
HETATM   22  C   UNL     1     -12.400  12.748  67.353  1.00  0.00     0.250 C  
HETATM   23  C   UNL     1     -12.136  14.815  65.265  1.00  0.00    -0.198 C  
HETATM   24  C   UNL     1     -12.854  12.509  65.922  1.00  0.00     0.972 C  
HETATM   25  C   UNL     1     -12.646  15.753  67.598  1.00  0.00     1.821 C  
HETATM   26  C   UNL     1     -13.276  13.821  65.294  1.00  0.00    -0.007 C  
ENDBRANCH   3  20
BRANCH   5  27
HETATM   27  O   UNL     1     -10.201  19.352  68.122  1.00  0.00    -0.393 OA 
BRANCH  27  28
HETATM   28  C   UNL     1      -9.826  20.218  69.097  1.00  0.00     0.129 C  
HETATM   29  C   UNL     1      -8.422  20.692  68.819  1.00  0.00     0.915 C  
HETATM   30  O   UNL     1     -10.592  20.703  69.913  1.00  0.00     0.250 OA 
ENDBRANCH  27  28
ENDBRANCH   5  27
BRANCH  10  31
HETATM   31  O   UNL     1      -5.154  12.326  69.841  1.00  0.00    -0.072 OA 
BRANCH  31  32
HETATM   32  C   UNL     1      -5.336  11.399  70.877  1.00  0.00    -0.122 C  
HETATM   33  C   UNL     1      -5.486  12.130  72.166  1.00  0.00     0.628 C  
HETATM   34  O   UNL     1      -5.432  10.188  70.722  1.00  0.00    -0.058 OA 
ENDBRANCH  31  32
ENDBRANCH  10  31
BRANCH   9  35
HETATM   35  N   UNL     1      -7.902  10.224  68.699  1.00  0.00    -0.096 N  
HETATM   36  C   UNL     1      -6.782   9.166  68.326  1.00  0.00    -0.060 C  
HETATM   37  C   UNL     1      -9.100   8.837  70.508  1.00  0.00    -0.205 C  
HETATM   38  C   UNL     1      -8.244  10.064  70.191  1.00  0.00    -0.053 C  
HETATM   39  C   UNL     1     -10.342   8.785  69.640  1.00  0.00    -0.213 C  
HETATM   40  C   UNL     1      -9.903   8.656  68.196  1.00  0.00    -0.192 C  
HETATM   41  C   UNL     1      -9.089   9.884  67.776  1.00  0.00    -0.131 C  
ENDBRANCH   9  35
TORSDOF 6
ENDMDL
MODEL       66
REMARK 921   NORMALIZED FREE ENERGY PREDICTED BY IDOCK:    3.06 KCAL/MOL
REMARK 922        TOTAL FREE ENERGY PREDICTED BY IDOCK:    2.55 KCAL/MOL
REMARK 923 INTER-LIGAND FREE ENERGY PREDICTED BY IDOCK:    2.31 KCAL/MOL
REMARK 924 INTRA-LIGAND FREE ENERGY PREDICTED BY IDOCK:    0.24 KCAL/MOL
REMARK 927      BINDING AFFINITY PREDICTED BY RF-SCORE:    0.00 PKD
ROOT
HETATM    1  C   UNL     1      -7.951   9.464  68.987  1.00  0.00    -0.091 C  
HETATM    2  C   UNL     1      -8.631  10.202  70.053  1.00  0.00    -0.019 C  
HETATM    3  C   UNL     1      -9.841   9.860  69.177  1.00  0.00    -0.198 C  
HETATM    4  C   UNL     1      -8.173  13.141  65.365  1.00  0.00     3.220 C  
HETATM    5  C   UNL     1      -9.169   9.117  67.365  1.00  0.00    -0.130 C  
HETATM    6  C   UNL     1      -9.437   8.547  68.491  1.00  0.00    -0.146 C  
HETATM    7  C   UNL     1      -8.073  13.232  66.921  1.00  0.00     0.079 C  
HETATM    8  C   UNL     1      -9.101  14.459  67.374  1.00  0.00    -0.202 C  
HETATM    9  C   UNL     1      -8.519  15.536  68.332  1.00  0.00    -0.163 C  
HETATM   10  C   UNL     1      -7.145  15.927  67.744  1.00  0.00    -0.148 C  
HETATM   11  C   UNL     1      -6.293  14.740  68.219  1.00  0.00    -0.123 C  
HETATM   12  C   UNL     1      -9.684   7.100  68.903  1.00  0.00    -0.146 C  
HETATM   13  C   UNL     1     -10.628   9.629  67.328  1.00  0.00    -0.315 C  
HETATM   14  C   UNL     1      -6.551  13.568  67.214  1.00  0.00     0.175 C  
HETATM   15  C   UNL     1      -5.615  12.387  67.457  1.00  0.00    -0.130 C  
HETATM   16  C   UNL     1      -9.815  11.131  66.691  1.00  0.00    -0.231 C  
HETATM   17  C   UNL     1      -6.138  11.376  68.450  1.00  0.00    -0.045 C  
HETATM   18  C   UNL     1      -8.560  11.806  67.523  1.00  0.00    -0.157 C  
HETATM   19  C   UNL     1      -7.416  10.732  67.909  1.00  0.00    -0.090 C  
ENDROOT
BRANCH   3  20
HETATM   20  N   UNL     1     -11.316  10.791  69.738  1.00  0.00    -0.276 N  
HETATM   21  C   UNL     1     -11.378  12.465  69.699  1.00  0.00    -0.193 C  
HETATM   22  C   UNL     1     -12.695  12.994  70.247  1.00  0.00     0.022 C  
HETATM   23  C   UNL     1     -11.678  10.365  71.117  1.00  0.00    -0.296 C  
HETATM   24  C   UNL     1     -12.910  12.475  71.660  1.00  0.00    -0.368 C  
HETATM   25  C   UNL     1     -12.436  10.427  68.667  1.00  0.00     1.424 C  
HETATM   26  C   UNL     1     -12.964  10.962  71.646  1.00  0.00    -0.569 C  
ENDBRANCH   3  20
BRANCH   5  27
HETATM   27  O   UNL     1      -9.673   7.724  66.613  1.00  0.00    -0.204 OA 
BRANCH  27  28
HETATM   28  C   UNL     1      -8.962   6.856  65.849  1.00  0.00    -0.064 C  
HETATM   29  C   UNL     1      -9.804   5.635  65.581  1.00  0.00     0.188 C  
HETATM   30  O   UNL     1      -7.918   7.138  65.286  1.00  0.00    -0.114 OA 
ENDBRANCH  27  28
ENDBRANCH   5  27
BRANCH  10  31
HETATM   31  O   UNL     1      -6.815  16.063  66.346  1.00  0.00    -0.043 OA 
BRANCH  31  32
HETATM   32  C   UNL     1      -7.342  17.239  65.793  1.00  0.00     0.193 C  
HETATM   33  C   UNL     1      -6.407  18.367  66.061  1.00  0.00    -0.263 C  
HETATM   34  O   UNL     1      -8.370  17.300  65.130  1.00  0.00     1.008 OA 
ENDBRANCH  31  32
ENDBRANCH  10  31
BRANCH   9  35
HETATM   35  N   UNL     1      -9.458  16.917  68.704  1.00  0.00    -0.261 N  
HETATM   36  C   UNL     1      -9.845  16.896  70.242  1.00  0.00     1.349 C  
HETATM   37  C   UNL     1      -9.521  19.469  68.367  1.00  0.00    -0.449 C  
HETATM   38  C   UNL     1      -8.663  18.205  68.421  1.00  0.00    -0.291 C  
HETATM   39  C   UNL     1     -10.688  19.310  67.413  1.00  0.00    -0.594 C  
HETATM   40  C   UNL     1     -11.574  18.198  67.933  1.00  0.00     1.310 C  
HETATM   41  C   UNL     1     -10.806  16.873  67.958  1.00  0.00    -0.338 C  
ENDBRANCH   9  35
TORSDOF 6
ENDMDL
MODEL       67
REMARK 921   NORMALIZED FREE ENERGY PREDICTED BY IDOCK:    3.45 KCAL/MOL
REMARK 922        TOTAL FREE ENERGY PREDICTED BY IDOCK:    3.07 KCAL/MOL
REMARK 923 INTER-LIGAND FREE ENERGY PREDICTED BY IDOCK:    3.66 KCAL/MOL
REMARK 924 INTRA-LIGAND FREE ENERGY PREDICTED BY IDOCK:   -0.59 KCAL/MOL
REMARK 927      BINDING AFFINITY PREDICTED BY RF-SCORE:    0.00 PKD
ROOT
HETATM    1  C   UNL     1      -9.234   7.038  66.695  1.00  0.00    -0.189 C  
HETATM    2  C   UNL     1     -10.083   8.166  66.304  1.00  0.00    -0.074 C  
HETATM    3  C   UNL     1      -9.110   8.165  65.121  1.00  0.00     0.294 C  
HETATM    4  C   UNL     1      -5.128   9.774  68.224  1.00  0.00    -0.036 C  
HETATM    5  C   UNL     1      -7.530   6.898  65.551  1.00  0.00    -0.086 C  
HETATM    6  C   UNL     1      -8.680   6.697  65.001  1.00  0.00     0.170 C  
HETATM    7  C   UNL     1      -6.654  10.105  68.249  1.00  0.00    -0.054 C  
HETATM    8  C   UNL     1      -6.784  11.696  67.780  1.00  0.00    -0.072 C  
HETATM    9  C   UNL     1      -7.647  12.619  68.684  1.00  0.00    -0.083 C  
HETATM   10  C   UNL     1      -7.200  12.329  70.135  1.00  0.00     1.448 C  
HETATM   11  C   UNL     1      -7.950  11.015  70.398  1.00  0.00     1.984 C  
HETATM   12  C   UNL     1      -9.257   5.562  64.161  1.00  0.00     0.531 C  
HETATM   13  C   UNL     1      -7.224   7.920  64.431  1.00  0.00    -0.081 C  
HETATM   14  C   UNL     1      -7.098   9.871  69.754  1.00  0.00    -0.106 C  
HETATM   15  C   UNL     1      -7.631   8.486  70.112  1.00  0.00    -0.068 C  
HETATM   16  C   UNL     1      -6.494   8.842  65.824  1.00  0.00    -0.060 C  
HETATM   17  C   UNL     1      -8.679   7.961  69.159  1.00  0.00    -0.138 C  
HETATM   18  C   UNL     1      -7.382   9.118  67.186  1.00  0.00    -0.087 C  
HETATM   19  C   UNL     1      -8.068   7.776  67.769  1.00  0.00    -0.125 C  
ENDROOT
BRANCH   3  20
HETATM   20  N   UNL     1      -9.328   9.682  64.116  1.00  0.00    -0.178 N  
HETATM   21  C   UNL     1      -8.128  10.845  63.991  1.00  0.00     0.291 C  
HETATM   22  C   UNL     1      -8.566  12.019  63.129  1.00  0.00     1.329 C  
HETATM   23  C   UNL     1     -10.578  10.377  64.530  1.00  0.00     0.271 C  
HETATM   24  C   UNL     1      -9.846  12.618  63.689  1.00  0.00     0.237 C  
HETATM   25  C   UNL     1      -9.385   9.152  62.617  1.00  0.00     0.506 C  
HETATM   26  C   UNL     1     -10.944  11.576  63.682  1.00  0.00    -0.482 C  
ENDBRANCH   3  20
BRANCH   5  27
HETATM   27  O   UNL     1      -6.923   5.697  64.575  1.00  0.00    -0.049 OA 
BRANCH  27  28
HETATM   28  C   UNL     1      -6.182   4.612  64.912  1.00  0.00    -0.034 C  
HETATM   29  C   UNL     1      -5.257   4.981  66.042  1.00  0.00    -0.009 C  
HETATM   30  O   UNL     1      -6.412   3.479  64.521  1.00  0.00    -0.032 OA 
ENDBRANCH  27  28
ENDBRANCH   5  27
BRANCH  10  31
HETATM   31  O   UNL     1      -5.854  12.066  70.582  1.00  0.00    -0.240 OA 
BRANCH  31  32
HETATM   32  C   UNL     1      -5.450  12.955  71.588  1.00  0.00     0.040 C  
HETATM   33  C   UNL     1      -5.408  14.336  71.030  1.00  0.00    -0.153 C  
HETATM   34  O   UNL     1      -5.244  12.645  72.754  1.00  0.00    -0.364 OA 
ENDBRANCH  31  32
ENDBRANCH  10  31
BRANCH   9  35
HETATM   35  N   UNL     1      -7.689  14.300  68.364  1.00  0.00    -0.126 N  
HETATM   36  C   UNL     1      -8.474  14.562  67.012  1.00  0.00    -0.196 C  
HETATM   37  C   UNL     1      -8.180  16.560  69.494  1.00  0.00     0.256 C  
HETATM   38  C   UNL     1      -8.411  15.049  69.499  1.00  0.00    -0.092 C  
HETATM   39  C   UNL     1      -6.703  16.898  69.451  1.00  0.00    -0.220 C  
HETATM   40  C   UNL     1      -6.135  16.362  68.154  1.00  0.00    -0.125 C  
HETATM   41  C   UNL     1      -6.268  14.837  68.105  1.00  0.00    -0.140 C  
ENDBRANCH   9  35
TORSDOF 6
ENDMDL
MODEL       68
REMARK 921   NORMALIZED FREE ENERGY PREDICTED BY IDOCK:    3.54 KCAL/MOL
REMARK 922        TOTAL FREE ENERGY PREDICTED BY IDOCK:    3.19 KCAL/MOL
REMARK 923 INTER-LIGAND FREE ENERGY PREDICTED BY IDOCK:    2.22 KCAL/MOL
REMARK 924 INTRA-LIGAND FREE ENERGY PREDICTED BY IDOCK:    0.97 KCAL/MOL
REMARK 927      BINDING AFFINITY PREDICTED BY RF-SCORE:    0.00 PKD
ROOT
HETATM    1  C   UNL     1     -12.114   6.907  71.297  1.00  0.00    -0.419 C  
HETATM    2  C   UNL     1     -12.388   6.683  69.876  1.00  0.00     0.558 C  
HETATM    3  C   UNL     1     -10.904   6.304  69.906  1.00  0.00    -0.335 C  
HETATM    4  C   UNL     1      -9.504  11.336  70.795  1.00  0.00     4.819 C  
HETATM    5  C   UNL     1     -10.103   6.870  71.730  1.00  0.00    -0.185 C  
HETATM    6  C   UNL     1     -10.686   5.788  71.335  1.00  0.00    -0.319 C  
HETATM    7  C   UNL     1     -10.663  10.722  69.949  1.00  0.00    -0.202 C  
HETATM    8  C   UNL     1     -10.271  11.010  68.359  1.00  0.00    -0.198 C  
HETATM    9  C   UNL     1     -11.379  11.645  67.472  1.00  0.00    -0.298 C  
HETATM   10  C   UNL     1     -11.959  12.817  68.295  1.00  0.00    -0.229 C  
HETATM   11  C   UNL     1     -12.875  12.050  69.261  1.00  0.00     1.138 C  
HETATM   12  C   UNL     1     -10.767   4.373  71.899  1.00  0.00     0.084 C  
HETATM   13  C   UNL     1      -9.044   6.648  70.624  1.00  0.00    -0.155 C  
HETATM   14  C   UNL     1     -11.964  11.504  70.411  1.00  0.00    -0.459 C  
HETATM   15  C   UNL     1     -12.779  10.887  71.545  1.00  0.00    -0.533 C  
HETATM   16  C   UNL     1      -9.212   8.456  70.458  1.00  0.00    -0.165 C  
HETATM   17  C   UNL     1     -13.076   9.417  71.363  1.00  0.00    -0.419 C  
HETATM   18  C   UNL     1     -10.705   9.131  70.265  1.00  0.00    -0.268 C  
HETATM   19  C   UNL     1     -11.771   8.620  71.367  1.00  0.00    -0.355 C  
ENDROOT
BRANCH   3  20
HETATM   20  N   UNL     1     -10.260   6.119  68.201  1.00  0.00    -0.157 N  
HETATM   21  C   UNL     1      -9.603   7.408  67.355  1.00  0.00    -0.184 C  
HETATM   22  C   UNL     1      -9.173   7.003  65.953  1.00  0.00     0.005 C  
HETATM   23  C   UNL     1     -11.308   5.509  67.337  1.00  0.00     1.159 C  
HETATM   24  C   UNL     1     -10.354   6.407  65.204  1.00  0.00     2.683 C  
HETATM   25  C   UNL     1      -8.979   5.189  68.366  1.00  0.00    -0.106 C  
HETATM   26  C   UNL     1     -10.854   5.177  65.932  1.00  0.00    -0.070 C  
ENDBRANCH   3  20
BRANCH   5  27
HETATM   27  O   UNL     1      -9.187   5.929  72.749  1.00  0.00    -0.142 OA 
BRANCH  27  28
HETATM   28  C   UNL     1      -7.851   5.967  72.981  1.00  0.00    -0.105 C  
HETATM   29  C   UNL     1      -7.445   4.718  73.720  1.00  0.00    -0.090 C  
HETATM   30  O   UNL     1      -7.089   6.766  72.462  1.00  0.00    -0.074 OA 
ENDBRANCH  27  28
ENDBRANCH   5  27
BRANCH  10  31
HETATM   31  O   UNL     1     -11.221  13.718  69.146  1.00  0.00    -0.252 OA 
BRANCH  31  32
HETATM   32  C   UNL     1     -10.825  14.878  68.467  1.00  0.00    -0.247 C  
HETATM   33  C   UNL     1      -9.428  15.220  68.857  1.00  0.00    -0.218 C  
HETATM   34  O   UNL     1     -11.500  15.462  67.628  1.00  0.00    -0.326 OA 
ENDBRANCH  31  32
ENDBRANCH  10  31
BRANCH   9  35
HETATM   35  N   UNL     1     -10.997  12.128  65.876  1.00  0.00    -0.281 N  
HETATM   36  C   UNL     1      -9.677  11.389  65.401  1.00  0.00    -0.230 C  
HETATM   37  C   UNL     1     -12.062  12.459  63.555  1.00  0.00    -0.651 C  
HETATM   38  C   UNL     1     -12.136  11.755  64.910  1.00  0.00     0.087 C  
HETATM   39  C   UNL     1     -11.932  13.960  63.714  1.00  0.00    -0.305 C  
HETATM   40  C   UNL     1     -10.629  14.247  64.432  1.00  0.00    -0.047 C  
HETATM   41  C   UNL     1     -10.646  13.628  65.833  1.00  0.00    -0.289 C  
ENDBRANCH   9  35
TORSDOF 6
ENDMDL
MODEL       69
REMARK 921   NORMALIZED FREE ENERGY PREDICTED BY IDOCK:    3.67 KCAL/MOL
REMARK 922        TOTAL FREE ENERGY PREDICTED BY IDOCK:    3.37 KCAL/MOL
REMARK 923 INTER-LIGAND FREE ENERGY PREDICTED BY IDOCK:    2.65 KCAL/MOL
REMARK 924 INTRA-LIGAND FREE ENERGY PREDICTED BY IDOCK:    0.73 KCAL/MOL
REMARK 927      BINDING AFFINITY PREDICTED BY RF-SCORE:    0.00 PKD
ROOT
HETATM    1  C   UNL     1     -12.298  12.908  68.076  1.00  0.00     0.212 C  
HETATM    2  C   UNL     1     -12.742  11.517  68.193  1.00  0.00     2.109 C  
HETATM    3  C   UNL     1     -11.897  11.616  69.467  1.00  0.00    -0.348 C  
HETATM    4  C   UNL     1      -7.431  11.950  66.634  1.00  0.00     0.059 C  
HETATM    5  C   UNL     1     -10.808  13.377  69.416  1.00  0.00     0.043 C  
HETATM    6  C   UNL     1     -11.990  13.099  69.855  1.00  0.00    -0.387 C  
HETATM    7  C   UNL     1      -8.755  11.159  66.385  1.00  0.00    -0.177 C  
HETATM    8  C   UNL     1      -8.373   9.553  66.591  1.00  0.00    -0.116 C  
HETATM    9  C   UNL     1      -8.823   8.581  65.465  1.00  0.00    -0.154 C  
HETATM   10  C   UNL     1      -8.415   9.254  64.136  1.00  0.00    -0.192 C  
HETATM   11  C   UNL     1      -9.544  10.284  63.989  1.00  0.00    -0.365 C  
HETATM   12  C   UNL     1     -12.961  13.819  70.784  1.00  0.00    -0.238 C  
HETATM   13  C   UNL     1     -10.244  12.323  70.397  1.00  0.00     3.445 C  
HETATM   14  C   UNL     1      -9.163  11.505  64.892  1.00  0.00    -0.006 C  
HETATM   15  C   UNL     1     -10.106  12.687  64.687  1.00  0.00    -0.260 C  
HETATM   16  C   UNL     1      -9.168  11.948  68.974  1.00  0.00     0.275 C  
HETATM   17  C   UNL     1     -11.323  12.670  65.582  1.00  0.00    -0.357 C  
HETATM   18  C   UNL     1      -9.832  11.653  67.493  1.00  0.00    -0.199 C  
HETATM   19  C   UNL     1     -10.892  12.787  67.045  1.00  0.00    -0.282 C  
ENDROOT
BRANCH   3  20
HETATM   20  N   UNL     1     -11.653   9.955  70.200  1.00  0.00    -0.243 N  
HETATM   21  C   UNL     1     -10.595   8.838  69.537  1.00  0.00    -0.224 C  
HETATM   22  C   UNL     1     -10.599   7.527  70.310  1.00  0.00    -0.235 C  
HETATM   23  C   UNL     1     -12.972   9.281  70.353  1.00  0.00     0.591 C  
HETATM   24  C   UNL     1     -12.012   6.969  70.368  1.00  0.00    -0.256 C  
HETATM   25  C   UNL     1     -10.944  10.244  71.595  1.00  0.00     1.169 C  
HETATM   26  C   UNL     1     -12.922   7.951  71.074  1.00  0.00    -0.028 C  
ENDBRANCH   3  20
BRANCH   5  27
HETATM   27  O   UNL     1     -10.697  14.513  70.624  1.00  0.00     0.180 OA 
BRANCH  27  28
HETATM   28  C   UNL     1     -10.868  15.857  70.556  1.00  0.00    -0.268 C  
HETATM   29  C   UNL     1     -11.322  16.363  71.901  1.00  0.00    -0.017 C  
HETATM   30  O   UNL     1     -10.482  16.549  69.628  1.00  0.00    -0.301 OA 
ENDBRANCH  27  28
ENDBRANCH   5  27
BRANCH  10  31
HETATM   31  O   UNL     1      -7.211  10.009  63.890  1.00  0.00    -0.125 OA 
BRANCH  31  32
HETATM   32  C   UNL     1      -6.082   9.184  63.791  1.00  0.00    -0.087 C  
HETATM   33  C   UNL     1      -6.034   8.582  62.430  1.00  0.00    -0.084 C  
HETATM   34  O   UNL     1      -5.235   9.050  64.666  1.00  0.00    -0.048 OA 
ENDBRANCH  31  32
ENDBRANCH  10  31
BRANCH   9  35
HETATM   35  N   UNL     1      -8.319   6.946  65.522  1.00  0.00    -0.141 N  
HETATM   36  C   UNL     1      -6.753   6.883  65.759  1.00  0.00    -0.052 C  
HETATM   37  C   UNL     1      -8.922   4.682  66.588  1.00  0.00    -0.112 C  
HETATM   38  C   UNL     1      -9.016   6.205  66.677  1.00  0.00    -0.130 C  
HETATM   39  C   UNL     1      -9.385   4.173  65.237  1.00  0.00    -0.164 C  
HETATM   40  C   UNL     1      -8.457   4.734  64.180  1.00  0.00    -0.135 C  
HETATM   41  C   UNL     1      -8.539   6.264  64.158  1.00  0.00     0.295 C  
ENDBRANCH   9  35
TORSDOF 6
ENDMDL
MODEL       70
REMARK 921   NORMALIZED FREE ENERGY PREDICTED BY IDOCK:    3.76 KCAL/MOL
REMARK 922        TOTAL FREE ENERGY PREDICTED BY IDOCK:    3.48 KCAL/MOL
REMARK 923 INTER-LIGAND FREE ENERGY PREDICTED BY IDOCK:    0.10 KCAL/MOL
REMARK 924 INTRA-LIGAND FREE ENERGY PREDICTED BY IDOCK:    3.39 KCAL/MOL
REMARK 927      BINDING AFFINITY PREDICTED BY RF-SCORE:    0.00 PKD
ROOT
HETATM    1  C   UNL     1      -9.532   4.740  65.053  1.00  0.00    -0.087 C  
HETATM    2  C   UNL     1      -9.890   5.939  64.291  1.00  0.00     2.129 C  
HETATM    3  C   UNL     1      -8.363   6.045  64.219  1.00  0.00    -0.003 C  
HETATM    4  C   UNL     1      -8.063   7.108  69.402  1.00  0.00    -0.130 C  
HETATM    5  C   UNL     1      -7.532   4.675  65.531  1.00  0.00    -0.081 C  
HETATM    6  C   UNL     1      -7.890   4.586  64.295  1.00  0.00    -0.086 C  
HETATM    7  C   UNL     1      -9.131   7.492  68.330  1.00  0.00    -0.132 C  
HETATM    8  C   UNL     1      -8.977   9.132  68.098  1.00  0.00    -0.129 C  
HETATM    9  C   UNL     1     -10.284   9.971  68.166  1.00  0.00    -0.175 C  
HETATM   10  C   UNL     1     -11.030   9.489  69.430  1.00  0.00    -0.170 C  
HETATM   11  C   UNL     1     -11.646   8.182  68.907  1.00  0.00     1.149 C  
HETATM   12  C   UNL     1      -7.590   3.586  63.184  1.00  0.00    -0.059 C  
HETATM   13  C   UNL     1      -6.567   5.813  65.124  1.00  0.00    -0.043 C  
HETATM   14  C   UNL     1     -10.523   7.094  68.979  1.00  0.00    -0.221 C  
HETATM   15  C   UNL     1     -11.057   5.697  68.672  1.00  0.00     0.092 C  
HETATM   16  C   UNL     1      -7.159   6.530  66.692  1.00  0.00    -0.068 C  
HETATM   17  C   UNL     1     -11.029   5.333  67.206  1.00  0.00     0.280 C  
HETATM   18  C   UNL     1      -8.778   6.671  66.975  1.00  0.00    -0.113 C  
HETATM   19  C   UNL     1      -9.583   5.295  66.709  1.00  0.00    -0.156 C  
ENDROOT
BRANCH   3  20
HETATM   20  N   UNL     1      -7.868   7.680  63.557  1.00  0.00    -0.133 N  
HETATM   21  C   UNL     1      -6.982   8.775  64.465  1.00  0.00    -0.084 C  
HETATM   22  C   UNL     1      -6.730  10.067  63.703  1.00  0.00    -0.128 C  
HETATM   23  C   UNL     1      -9.072   8.395  63.050  1.00  0.00     0.911 C  
HETATM   24  C   UNL     1      -8.053  10.672  63.264  1.00  0.00    -0.024 C  
HETATM   25  C   UNL     1      -6.825   7.336  62.406  1.00  0.00    -0.069 C  
HETATM   26  C   UNL     1      -8.780   9.706  62.352  1.00  0.00    -0.242 C  
ENDBRANCH   3  20
BRANCH   5  27
HETATM   27  O   UNL     1      -6.328   3.579  65.195  1.00  0.00    -0.026 OA 
BRANCH  27  28
HETATM   28  C   UNL     1      -6.416   2.368  64.591  1.00  0.00    -0.023 C  
HETATM   29  C   UNL     1      -7.335   1.484  65.395  1.00  0.00    -0.053 C  
HETATM   30  O   UNL     1      -6.010   2.134  63.465  1.00  0.00    -0.009 OA 
ENDBRANCH  27  28
ENDBRANCH   5  27
BRANCH  10  31
HETATM   31  O   UNL     1     -10.435   9.121  70.692  1.00  0.00    -0.209 OA 
BRANCH  31  32
HETATM   32  C   UNL     1     -11.372   9.115  71.734  1.00  0.00    -0.381 C  
HETATM   33  C   UNL     1     -12.212  10.341  71.644  1.00  0.00    -0.384 C  
HETATM   34  O   UNL     1     -11.518   8.202  72.538  1.00  0.00    -0.370 OA 
ENDBRANCH  31  32
ENDBRANCH  10  31
BRANCH   9  35
HETATM   35  N   UNL     1     -10.184  11.678  68.108  1.00  0.00    -0.190 N  
HETATM   36  C   UNL     1      -9.370  12.204  69.363  1.00  0.00     1.057 C  
HETATM   37  C   UNL     1      -9.639  13.617  66.504  1.00  0.00    -0.294 C  
HETATM   38  C   UNL     1      -9.457  12.135  66.831  1.00  0.00    -0.210 C  
HETATM   39  C   UNL     1     -11.104  14.007  66.485  1.00  0.00    -0.315 C  
HETATM   40  C   UNL     1     -11.668  13.788  67.873  1.00  0.00    -0.395 C  
HETATM   41  C   UNL     1     -11.583  12.307  68.254  1.00  0.00    -0.331 C  
ENDBRANCH   9  35
TORSDOF 6
ENDMDL
MODEL       71
REMARK 921   NORMALIZED FREE ENERGY PREDICTED BY IDOCK:    4.13 KCAL/MOL
REMARK 922        TOTAL FREE ENERGY PREDICTED BY IDOCK:    3.99 KCAL/MOL
REMARK 923 INTER-LIGAND FREE ENERGY PREDICTED BY IDOCK:    4.51 KCAL/MOL
REMARK 924 INTRA-LIGAND FREE ENERGY PREDICTED BY IDOCK:   -0.51 KCAL/MOL
REMARK 927      BINDING AFFINITY PREDICTED BY RF-SCORE:    0.00 PKD
ROOT
HETATM    1  C   UNL     1      -6.921  10.513  65.533  1.00  0.00    -0.100 C  
HETATM    2  C   UNL     1      -6.706   9.193  64.938  1.00  0.00    -0.073 C  
HETATM    3  C   UNL     1      -8.236   9.251  64.867  1.00  0.00    -0.145 C  
HETATM    4  C   UNL     1      -8.620   8.916  70.142  1.00  0.00    -0.161 C  
HETATM    5  C   UNL     1      -8.898  10.866  65.982  1.00  0.00    -0.188 C  
HETATM    6  C   UNL     1      -8.540  10.751  64.747  1.00  0.00    -0.079 C  
HETATM    7  C   UNL     1      -7.609   8.276  69.138  1.00  0.00    -0.088 C  
HETATM    8  C   UNL     1      -7.948   6.648  69.121  1.00  0.00    -0.112 C  
HETATM    9  C   UNL     1      -6.745   5.684  69.309  1.00  0.00    -0.060 C  
HETATM   10  C   UNL     1      -5.940   6.239  70.506  1.00  0.00    -0.026 C  
HETATM   11  C   UNL     1      -5.185   7.389  69.822  1.00  0.00    -0.022 C  
HETATM   12  C   UNL     1      -8.733  11.625  63.513  1.00  0.00     0.501 C  
HETATM   13  C   UNL     1      -9.988   9.800  65.718  1.00  0.00    -0.349 C  
HETATM   14  C   UNL     1      -6.177   8.597  69.741  1.00  0.00    -0.035 C  
HETATM   15  C   UNL     1      -5.490   9.872  69.258  1.00  0.00    -0.035 C  
HETATM   16  C   UNL     1      -9.471   9.232  67.372  1.00  0.00    -0.165 C  
HETATM   17  C   UNL     1      -5.487  10.042  67.757  1.00  0.00    -0.038 C  
HETATM   18  C   UNL     1      -7.876   8.948  67.685  1.00  0.00    -0.101 C  
HETATM   19  C   UNL     1      -6.923  10.177  67.248  1.00  0.00    -0.083 C  
ENDROOT
BRANCH   3  20
HETATM   20  N   UNL     1      -8.916   7.609  64.421  1.00  0.00     0.706 N  
HETATM   21  C   UNL     1     -10.029   6.815  65.390  1.00  0.00     1.534 C  
HETATM   22  C   UNL     1     -10.411   5.459  64.817  1.00  0.00     1.286 C  
HETATM   23  C   UNL     1      -7.797   6.662  64.162  1.00  0.00    -0.108 C  
HETATM   24  C   UNL     1      -9.162   4.614  64.620  1.00  0.00    -0.119 C  
HETATM   25  C   UNL     1      -9.797   7.891  63.126  1.00  0.00     4.869 C  
HETATM   26  C   UNL     1      -8.226   5.303  63.650  1.00  0.00    -0.126 C  
ENDBRANCH   3  20
BRANCH   5  27
HETATM   27  O   UNL     1      -9.973  12.036  65.495  1.00  0.00    -0.236 OA 
BRANCH  27  28
HETATM   28  C   UNL     1     -10.908  12.696  66.223  1.00  0.00    -0.273 C  
HETATM   29  C   UNL     1     -10.275  13.912  66.850  1.00  0.00    -0.257 C  
HETATM   30  O   UNL     1     -12.105  12.465  66.169  1.00  0.00    -0.611 OA 
ENDBRANCH  27  28
ENDBRANCH   5  27
BRANCH  10  31
HETATM   31  O   UNL     1      -6.482   6.834  71.703  1.00  0.00    -0.044 OA 
BRANCH  31  32
HETATM   32  C   UNL     1      -7.118   5.888  72.520  1.00  0.00    -0.085 C  
HETATM   33  C   UNL     1      -6.104   4.924  73.031  1.00  0.00    -0.026 C  
HETATM   34  O   UNL     1      -8.305   5.909  72.820  1.00  0.00    -0.118 OA 
ENDBRANCH  31  32
ENDBRANCH  10  31
BRANCH   9  35
HETATM   35  N   UNL     1      -7.037   4.006  69.474  1.00  0.00    -0.045 N  
HETATM   36  C   UNL     1      -5.663   3.250  69.712  1.00  0.00    -0.018 C  
HETATM   37  C   UNL     1      -8.568   2.331  70.690  1.00  0.00    -0.099 C  
HETATM   38  C   UNL     1      -7.956   3.732  70.678  1.00  0.00    -0.054 C  
HETATM   39  C   UNL     1      -9.254   2.011  69.377  1.00  0.00    -0.181 C  
HETATM   40  C   UNL     1      -8.207   2.025  68.283  1.00  0.00    -0.072 C  
HETATM   41  C   UNL     1      -7.586   3.420  68.159  1.00  0.00    -0.057 C  
ENDBRANCH   9  35
TORSDOF 6
ENDMDL
MODEL       72
REMARK 921   NORMALIZED FREE ENERGY PREDICTED BY IDOCK:    4.23 KCAL/MOL
REMARK 922        TOTAL FREE ENERGY PREDICTED BY IDOCK:    4.12 KCAL/MOL
REMARK 923 INTER-LIGAND FREE ENERGY PREDICTED BY IDOCK:    3.86 KCAL/MOL
REMARK 924 INTRA-LIGAND FREE ENERGY PREDICTED BY IDOCK:    0.26 KCAL/MOL
REMARK 927      BINDING AFFINITY PREDICTED BY RF-SCORE:    0.00 PKD
ROOT
HETATM    1  C   UNL     1      -8.758  16.022  66.051  1.00  0.00    -0.267 C  
HETATM    2  C   UNL     1      -9.029  14.922  65.123  1.00  0.00     1.921 C  
HETATM    3  C   UNL     1     -10.442  15.134  65.677  1.00  0.00    -0.359 C  
HETATM    4  C   UNL     1      -8.995  13.293  70.430  1.00  0.00     5.017 C  
HETATM    5  C   UNL     1     -10.338  16.401  67.312  1.00  0.00    -0.287 C  
HETATM    6  C   UNL     1     -10.470  16.624  66.048  1.00  0.00    -0.306 C  
HETATM    7  C   UNL     1      -8.550  12.891  68.989  1.00  0.00     0.475 C  
HETATM    8  C   UNL     1      -9.185  11.378  68.719  1.00  0.00    -0.108 C  
HETATM    9  C   UNL     1      -8.206  10.297  68.182  1.00  0.00    -0.114 C  
HETATM   10  C   UNL     1      -6.939  10.401  69.060  1.00  0.00    -0.071 C  
HETATM   11  C   UNL     1      -6.264  11.628  68.429  1.00  0.00    -0.050 C  
HETATM   12  C   UNL     1     -10.912  17.837  65.236  1.00  0.00     0.380 C  
HETATM   13  C   UNL     1     -11.637  15.562  67.253  1.00  0.00    -0.012 C  
HETATM   14  C   UNL     1      -6.964  12.890  69.037  1.00  0.00    -0.058 C  
HETATM   15  C   UNL     1      -6.257  14.184  68.642  1.00  0.00    -0.088 C  
HETATM   16  C   UNL     1     -10.690  14.488  68.382  1.00  0.00    -0.246 C  
HETATM   17  C   UNL     1      -6.751  14.789  67.348  1.00  0.00    -0.060 C  
HETATM   18  C   UNL     1      -9.177  13.982  67.964  1.00  0.00    -0.201 C  
HETATM   19  C   UNL     1      -8.219  15.196  67.494  1.00  0.00    -0.196 C  
ENDROOT
BRANCH   3  20
HETATM   20  N   UNL     1     -11.543  13.765  65.157  1.00  0.00    -0.321 N  
HETATM   21  C   UNL     1     -11.374  12.211  65.760  1.00  0.00    -0.402 C  
HETATM   22  C   UNL     1     -12.385  11.254  65.147  1.00  0.00     1.737 C  
HETATM   23  C   UNL     1     -11.547  13.667  63.671  1.00  0.00    -0.053 C  
HETATM   24  C   UNL     1     -12.254  11.266  63.633  1.00  0.00     0.417 C  
HETATM   25  C   UNL     1     -12.965  14.161  65.752  1.00  0.00    -0.198 C  
HETATM   26  C   UNL     1     -12.525  12.660  63.107  1.00  0.00    -0.215 C  
ENDBRANCH   3  20
BRANCH   5  27
HETATM   27  O   UNL     1     -11.264  17.754  67.583  1.00  0.00    -0.068 OA 
BRANCH  27  28
HETATM   28  C   UNL     1     -10.869  19.023  67.854  1.00  0.00    -0.202 C  
HETATM   29  C   UNL     1      -9.914  19.001  69.020  1.00  0.00    -0.390 C  
HETATM   30  O   UNL     1     -11.071  19.975  67.118  1.00  0.00    -0.202 OA 
ENDBRANCH  27  28
ENDBRANCH   5  27
BRANCH  10  31
HETATM   31  O   UNL     1      -6.895  10.661  70.478  1.00  0.00    -0.309 OA 
BRANCH  31  32
HETATM   32  C   UNL     1      -6.947   9.481  71.232  1.00  0.00     0.117 C  
HETATM   33  C   UNL     1      -5.567   8.948  71.404  1.00  0.00    -0.046 C  
HETATM   34  O   UNL     1      -7.964   9.015  71.732  1.00  0.00    -0.343 OA 
ENDBRANCH  31  32
ENDBRANCH  10  31
BRANCH   9  35
HETATM   35  N   UNL     1      -8.743   8.678  68.043  1.00  0.00    -0.140 N  
HETATM   36  C   UNL     1      -7.521   7.694  68.269  1.00  0.00    -0.104 C  
HETATM   37  C   UNL     1     -10.613   7.095  68.833  1.00  0.00    -0.218 C  
HETATM   38  C   UNL     1      -9.816   8.371  69.103  1.00  0.00    -0.183 C  
HETATM   39  C   UNL     1     -11.191   7.085  67.432  1.00  0.00    -0.150 C  
HETATM   40  C   UNL     1     -10.040   7.102  66.448  1.00  0.00    -0.051 C  
HETATM   41  C   UNL     1      -9.223   8.388  66.608  1.00  0.00    -0.180 C  
ENDBRANCH   9  35
TORSDOF 6
ENDMDL
MODEL       73
REMARK 921   NORMALIZED FREE ENERGY PREDICTED BY IDOCK:    4.48 KCAL/MOL
REMARK 922        TOTAL FREE ENERGY PREDICTED BY IDOCK:    4.46 KCAL/MOL
REMARK 923 INTER-LIGAND FREE ENERGY PREDICTED BY IDOCK:    4.14 KCAL/MOL
REMARK 924 INTRA-LIGAND FREE ENERGY PREDICTED BY IDOCK:    0.32 KCAL/MOL
REMARK 927      BINDING AFFINITY PREDICTED BY RF-SCORE:    0.00 PKD
ROOT
HETATM    1  C   UNL     1      -8.206  11.708  68.325  1.00  0.00    -0.156 C  
HETATM    2  C   UNL     1      -8.909  12.410  69.401  1.00  0.00     1.219 C  
HETATM    3  C   UNL     1     -10.010  12.421  68.337  1.00  0.00    -0.210 C  
HETATM    4  C   UNL     1      -7.258  15.813  65.337  1.00  0.00     5.782 C  
HETATM    5  C   UNL     1      -9.203  11.816  66.529  1.00  0.00    -0.201 C  
HETATM    6  C   UNL     1      -9.731  11.160  67.507  1.00  0.00    -0.193 C  
HETATM    7  C   UNL     1      -7.383  15.674  66.888  1.00  0.00    -0.127 C  
HETATM    8  C   UNL     1      -8.249  17.000  67.397  1.00  0.00    -0.199 C  
HETATM    9  C   UNL     1      -7.649  17.810  68.579  1.00  0.00    -0.276 C  
HETATM   10  C   UNL     1      -6.155  18.012  68.239  1.00  0.00    -0.178 C  
HETATM   11  C   UNL     1      -5.596  16.634  68.623  1.00  0.00    -0.119 C  
HETATM   12  C   UNL     1     -10.275   9.743  67.649  1.00  0.00    -0.261 C  
HETATM   13  C   UNL     1     -10.534  12.592  66.389  1.00  0.00    -0.269 C  
HETATM   14  C   UNL     1      -5.889  15.677  67.420  1.00  0.00    -0.029 C  
HETATM   15  C   UNL     1      -5.210  14.319  67.588  1.00  0.00     0.100 C  
HETATM   16  C   UNL     1      -9.395  13.987  66.108  1.00  0.00    -0.143 C  
HETATM   17  C   UNL     1      -6.040  13.301  68.333  1.00  0.00    -0.086 C  
HETATM   18  C   UNL     1      -8.187  14.297  67.188  1.00  0.00    -0.184 C  
HETATM   19  C   UNL     1      -7.309  12.986  67.540  1.00  0.00    -0.154 C  
ENDROOT
BRANCH   3  20
HETATM   20  N   UNL     1     -11.378  13.528  68.847  1.00  0.00    -0.271 N  
HETATM   21  C   UNL     1     -11.111  15.117  69.308  1.00  0.00    -0.279 C  
HETATM   22  C   UNL     1     -12.401  15.811  69.717  1.00  0.00    -0.161 C  
HETATM   23  C   UNL     1     -12.165  12.878  69.931  1.00  0.00    -0.188 C  
HETATM   24  C   UNL     1     -13.076  15.029  70.833  1.00  0.00    -0.462 C  
HETATM   25  C   UNL     1     -12.224  13.743  67.517  1.00  0.00    -0.227 C  
HETATM   26  C   UNL     1     -13.409  13.633  70.349  1.00  0.00     0.484 C  
ENDBRANCH   3  20
BRANCH   5  27
HETATM   27  O   UNL     1      -9.812  10.655  65.506  1.00  0.00    -0.226 OA 
BRANCH  27  28
HETATM   28  C   UNL     1      -9.942  10.685  64.156  1.00  0.00    -0.342 C  
HETATM   29  C   UNL     1      -8.795   9.931  63.535  1.00  0.00    -0.251 C  
HETATM   30  O   UNL     1     -10.949  11.055  63.574  1.00  0.00    -0.256 OA 
ENDBRANCH  27  28
ENDBRANCH   5  27
BRANCH  10  31
HETATM   31  O   UNL     1      -5.599  18.271  66.934  1.00  0.00    -0.135 OA 
BRANCH  31  32
HETATM   32  C   UNL     1      -5.851  19.581  66.504  1.00  0.00    -0.168 C  
HETATM   33  C   UNL     1      -5.161  20.536  67.415  1.00  0.00    -0.209 C  
HETATM   34  O   UNL     1      -6.476  19.876  65.492  1.00  0.00    -0.220 OA 
ENDBRANCH  31  32
ENDBRANCH  10  31
BRANCH   9  35
HETATM   35  N   UNL     1      -8.391  19.281  69.046  1.00  0.00    -0.299 N  
HETATM   36  C   UNL     1      -7.483  20.015  70.118  1.00  0.00     0.554 C  
HETATM   37  C   UNL     1      -9.526  21.372  68.063  1.00  0.00     0.537 C  
HETATM   38  C   UNL     1      -8.558  20.211  67.831  1.00  0.00    -0.205 C  
HETATM   39  C   UNL     1     -10.864  20.886  68.584  1.00  0.00     0.992 C  
HETATM   40  C   UNL     1     -10.635  20.228  69.929  1.00  0.00     0.694 C  
HETATM   41  C   UNL     1      -9.721  19.008  69.775  1.00  0.00     0.466 C  
ENDBRANCH   9  35
TORSDOF 6
ENDMDL
MODEL       74
REMARK 921   NORMALIZED FREE ENERGY PREDICTED BY IDOCK:    4.91 KCAL/MOL
REMARK 922        TOTAL FREE ENERGY PREDICTED BY IDOCK:    5.04 KCAL/MOL
REMARK 923 INTER-LIGAND FREE ENERGY PREDICTED BY IDOCK:    2.69 KCAL/MOL
REMARK 924 INTRA-LIGAND FREE ENERGY PREDICTED BY IDOCK:    2.35 KCAL/MOL
REMARK 927      BINDING AFFINITY PREDICTED BY RF-SCORE:    0.00 PKD
ROOT
HETATM    1  C   UNL     1      -9.687  14.124  68.282  1.00  0.00    -0.227 C  
HETATM    2  C   UNL     1      -8.547  13.272  68.626  1.00  0.00     0.026 C  
HETATM    3  C   UNL     1      -8.814  12.768  67.204  1.00  0.00    -0.202 C  
HETATM    4  C   UNL     1     -13.374  10.532  68.713  1.00  0.00     4.552 C  
HETATM    5  C   UNL     1     -10.627  13.526  66.552  1.00  0.00    -0.281 C  
HETATM    6  C   UNL     1      -9.422  13.984  66.492  1.00  0.00    -0.295 C  
HETATM    7  C   UNL     1     -12.014  10.708  69.460  1.00  0.00    -0.319 C  
HETATM    8  C   UNL     1     -11.357   9.184  69.577  1.00  0.00     0.126 C  
HETATM    9  C   UNL     1     -10.864   8.745  70.984  1.00  0.00    -0.260 C  
HETATM   10  C   UNL     1     -11.997   9.119  71.966  1.00  0.00    -0.350 C  
HETATM   11  C   UNL     1     -11.747  10.627  72.116  1.00  0.00     1.844 C  
HETATM   12  C   UNL     1      -8.757  15.085  65.672  1.00  0.00     1.134 C  
HETATM   13  C   UNL     1     -10.147  12.287  65.760  1.00  0.00    -0.274 C  
HETATM   14  C   UNL     1     -12.400  11.319  70.872  1.00  0.00    -0.490 C  
HETATM   15  C   UNL     1     -12.395  12.841  70.994  1.00  0.00    -0.316 C  
HETATM   16  C   UNL     1     -11.249  11.429  66.932  1.00  0.00    -0.331 C  
HETATM   17  C   UNL     1     -11.151  13.501  70.449  1.00  0.00     0.685 C  
HETATM   18  C   UNL     1     -11.084  11.681  68.554  1.00  0.00    -0.286 C  
HETATM   19  C   UNL     1     -11.047  13.248  68.944  1.00  0.00    -0.304 C  
ENDROOT
BRANCH   3  20
HETATM   20  N   UNL     1      -7.841  11.251  66.873  1.00  0.00    -0.150 N  
HETATM   21  C   UNL     1      -6.184  11.294  66.629  1.00  0.00    -0.141 C  
HETATM   22  C   UNL     1      -5.619   9.911  66.340  1.00  0.00    -0.049 C  
HETATM   23  C   UNL     1      -8.440  10.517  65.724  1.00  0.00    -0.175 C  
HETATM   24  C   UNL     1      -6.329   9.305  65.140  1.00  0.00    -0.069 C  
HETATM   25  C   UNL     1      -7.919  10.432  68.235  1.00  0.00    -0.111 C  
HETATM   26  C   UNL     1      -7.808   9.173  65.434  1.00  0.00    -0.100 C  
ENDBRANCH   3  20
BRANCH   5  27
HETATM   27  O   UNL     1     -10.923  14.293  65.107  1.00  0.00    -0.324 OA 
BRANCH  27  28
HETATM   28  C   UNL     1     -11.408  15.540  64.883  1.00  0.00    -0.335 C  
HETATM   29  C   UNL     1     -11.905  16.115  66.184  1.00  0.00     1.179 C  
HETATM   30  O   UNL     1     -11.240  16.164  63.848  1.00  0.00    -0.580 OA 
ENDBRANCH  27  28
ENDBRANCH   5  27
BRANCH  10  31
HETATM   31  O   UNL     1     -13.415   9.016  71.720  1.00  0.00    -0.366 OA 
BRANCH  31  32
HETATM   32  C   UNL     1     -13.812   7.696  71.468  1.00  0.00    -0.375 C  
HETATM   33  C   UNL     1     -14.410   7.120  72.704  1.00  0.00     0.389 C  
HETATM   34  O   UNL     1     -13.744   7.142  70.377  1.00  0.00     0.686 OA 
ENDBRANCH  31  32
ENDBRANCH  10  31
BRANCH   9  35
HETATM   35  N   UNL     1     -10.335   7.134  71.219  1.00  0.00    -0.198 N  
HETATM   36  C   UNL     1     -11.408   6.133  70.620  1.00  0.00    -0.298 C  
HETATM   37  C   UNL     1      -8.266   5.628  70.949  1.00  0.00    -0.120 C  
HETATM   38  C   UNL     1      -8.994   6.895  70.503  1.00  0.00    -0.155 C  
HETATM   39  C   UNL     1      -8.113   5.574  72.456  1.00  0.00    -0.103 C  
HETATM   40  C   UNL     1      -9.498   5.525  73.068  1.00  0.00    -0.154 C  
HETATM   41  C   UNL     1     -10.277   6.798  72.722  1.00  0.00    -0.189 C  
ENDBRANCH   9  35
TORSDOF 6
ENDMDL
MODEL       75
REMARK 921   NORMALIZED FREE ENERGY PREDICTED BY IDOCK:    5.06 KCAL/MOL
REMARK 922        TOTAL FREE ENERGY PREDICTED BY IDOCK:    5.24 KCAL/MOL
REMARK 923 INTER-LIGAND FREE ENERGY PREDICTED BY IDOCK:    3.54 KCAL/MOL
REMARK 924 INTRA-LIGAND FREE ENERGY PREDICTED BY IDOCK:    1.70 KCAL/MOL
REMARK 927      BINDING AFFINITY PREDICTED BY RF-SCORE:    0.00 PKD
ROOT
HETATM    1  C   UNL     1      -9.759  16.640  70.336  1.00  0.00     1.632 C  
HETATM    2  C   UNL     1      -8.622  15.717  70.335  1.00  0.00     1.458 C  
HETATM    3  C   UNL     1      -8.823  15.867  68.823  1.00  0.00    -0.213 C  
HETATM    4  C   UNL     1     -13.410  13.224  69.039  1.00  0.00     3.248 C  
HETATM    5  C   UNL     1     -10.618  16.839  68.478  1.00  0.00    -0.354 C  
HETATM    6  C   UNL     1      -9.419  17.274  68.670  1.00  0.00    -0.278 C  
HETATM    7  C   UNL     1     -12.085  13.058  69.848  1.00  0.00    -0.347 C  
HETATM    8  C   UNL     1     -11.412  11.626  69.335  1.00  0.00    -0.372 C  
HETATM    9  C   UNL     1     -10.970  10.628  70.441  1.00  0.00    -0.086 C  
HETATM   10  C   UNL     1     -12.149  10.554  71.438  1.00  0.00    -0.282 C  
HETATM   11  C   UNL     1     -11.927  11.854  72.226  1.00  0.00     2.874 C  
HETATM   12  C   UNL     1      -8.736  18.615  68.426  1.00  0.00    -0.361 C  
HETATM   13  C   UNL     1     -10.089  16.053  67.255  1.00  0.00    -0.266 C  
HETATM   14  C   UNL     1     -12.537  13.012  71.368  1.00  0.00    -0.329 C  
HETATM   15  C   UNL     1     -12.559  14.337  72.125  1.00  0.00    -0.352 C  
HETATM   16  C   UNL     1     -11.226  14.783  67.902  1.00  0.00    -0.318 C  
HETATM   17  C   UNL     1     -11.302  15.161  71.968  1.00  0.00    -0.358 C  
HETATM   18  C   UNL     1     -11.132  14.320  69.483  1.00  0.00    -0.244 C  
HETATM   19  C   UNL     1     -11.133  15.572  70.504  1.00  0.00    -0.369 C  
ENDROOT
BRANCH   3  20
HETATM   20  N   UNL     1      -7.816  14.630  67.921  1.00  0.00    -0.124 N  
HETATM   21  C   UNL     1      -8.367  13.074  67.636  1.00  0.00    -0.181 C  
HETATM   22  C   UNL     1      -7.334  12.235  66.899  1.00  0.00     0.029 C  
HETATM   23  C   UNL     1      -6.477  14.517  68.562  1.00  0.00    -0.094 C  
HETATM   24  C   UNL     1      -6.033  12.214  67.685  1.00  0.00    -0.106 C  
HETATM   25  C   UNL     1      -7.742  15.196  66.436  1.00  0.00     0.893 C  
HETATM   26  C   UNL     1      -5.499  13.624  67.828  1.00  0.00    -0.059 C  
ENDBRANCH   3  20
BRANCH   5  27
HETATM   27  O   UNL     1     -10.865  18.150  67.485  1.00  0.00    -0.389 OA 
BRANCH  27  28
HETATM   28  C   UNL     1     -10.584  18.290  66.165  1.00  0.00    -0.303 C  
HETATM   29  C   UNL     1     -10.177  19.716  65.899  1.00  0.00    -0.536 C  
HETATM   30  O   UNL     1     -10.454  17.356  65.391  1.00  0.00    -0.648 OA 
ENDBRANCH  27  28
ENDBRANCH   5  27
BRANCH  10  31
HETATM   31  O   UNL     1     -13.553  10.573  71.111  1.00  0.00    -0.133 OA 
BRANCH  31  32
HETATM   32  C   UNL     1     -14.155   9.321  71.304  1.00  0.00    -0.015 C  
HETATM   33  C   UNL     1     -14.395   8.685  69.978  1.00  0.00     2.700 C  
HETATM   34  O   UNL     1     -14.372   8.810  72.395  1.00  0.00    -0.509 OA 
ENDBRANCH  31  32
ENDBRANCH  10  31
BRANCH   9  35
HETATM   35  N   UNL     1     -10.429   9.068  69.991  1.00  0.00    -0.206 N  
HETATM   36  C   UNL     1      -8.965   8.834  70.552  1.00  0.00    -0.177 C  
HETATM   37  C   UNL     1     -11.180   6.606  69.942  1.00  0.00    -0.421 C  
HETATM   38  C   UNL     1     -11.353   7.985  70.578  1.00  0.00    -0.225 C  
HETATM   39  C   UNL     1     -11.282   6.672  68.431  1.00  0.00    -0.215 C  
HETATM   40  C   UNL     1     -10.151   7.538  67.919  1.00  0.00    -0.226 C  
HETATM   41  C   UNL     1     -10.287   8.965  68.461  1.00  0.00    -0.198 C  
ENDBRANCH   9  35
TORSDOF 6
ENDMDL
MODEL       76
REMARK 921   NORMALIZED FREE ENERGY PREDICTED BY IDOCK:    5.07 KCAL/MOL
REMARK 922        TOTAL FREE ENERGY PREDICTED BY IDOCK:    5.26 KCAL/MOL
REMARK 923 INTER-LIGAND FREE ENERGY PREDICTED BY IDOCK:    1.50 KCAL/MOL
REMARK 924 INTRA-LIGAND FREE ENERGY PREDICTED BY IDOCK:    3.77 KCAL/MOL
REMARK 927      BINDING AFFINITY PREDICTED BY RF-SCORE:    0.00 PKD
ROOT
HETATM    1  C   UNL     1      -8.930  16.708  65.227  1.00  0.00     1.435 C  
HETATM    2  C   UNL     1     -10.105  17.382  65.783  1.00  0.00    -0.140 C  
HETATM    3  C   UNL     1      -9.014  18.042  66.633  1.00  0.00    -0.273 C  
HETATM    4  C   UNL     1      -8.059  13.491  69.173  1.00  0.00     0.374 C  
HETATM    5  C   UNL     1      -7.233  17.026  66.345  1.00  0.00    -0.276 C  
HETATM    6  C   UNL     1      -7.777  18.018  65.725  1.00  0.00    -0.015 C  
HETATM    7  C   UNL     1      -9.383  14.103  68.616  1.00  0.00    -0.152 C  
HETATM    8  C   UNL     1     -10.286  14.527  69.947  1.00  0.00     0.276 C  
HETATM    9  C   UNL     1     -11.762  14.043  69.969  1.00  0.00    -0.280 C  
HETATM   10  C   UNL     1     -11.724  12.550  69.571  1.00  0.00    -0.309 C  
HETATM   11  C   UNL     1     -11.566  12.675  68.048  1.00  0.00    -0.394 C  
HETATM   12  C   UNL     1      -7.249  19.062  64.746  1.00  0.00     1.248 C  
HETATM   13  C   UNL     1      -7.265  17.876  67.638  1.00  0.00    -0.206 C  
HETATM   14  C   UNL     1     -10.048  12.937  67.771  1.00  0.00    -0.229 C  
HETATM   15  C   UNL     1      -9.719  12.886  66.281  1.00  0.00    -0.268 C  
HETATM   16  C   UNL     1      -7.731  16.274  68.373  1.00  0.00    -0.169 C  
HETATM   17  C   UNL     1      -9.865  14.211  65.569  1.00  0.00    -0.260 C  
HETATM   18  C   UNL     1      -8.983  15.407  67.737  1.00  0.00    -0.173 C  
HETATM   19  C   UNL     1      -8.863  15.217  66.137  1.00  0.00    -0.104 C  
ENDROOT
BRANCH   3  20
HETATM   20  N   UNL     1      -9.766  18.991  68.009  1.00  0.00    -0.323 N  
HETATM   21  C   UNL     1      -9.205  20.507  68.452  1.00  0.00     0.223 C  
HETATM   22  C   UNL     1      -9.972  21.067  69.640  1.00  0.00     1.298 C  
HETATM   23  C   UNL     1      -9.791  18.150  69.237  1.00  0.00    -0.036 C  
HETATM   24  C   UNL     1      -9.894  20.097  70.807  1.00  0.00     1.492 C  
HETATM   25  C   UNL     1     -11.222  19.356  67.481  1.00  0.00     0.084 C  
HETATM   26  C   UNL     1     -10.512  18.772  70.413  1.00  0.00     1.790 C  
ENDBRANCH   3  20
BRANCH   5  27
HETATM   27  O   UNL     1      -5.754  17.695  65.984  1.00  0.00    -0.193 OA 
BRANCH  27  28
HETATM   28  C   UNL     1      -5.248  18.901  66.345  1.00  0.00    -0.141 C  
HETATM   29  C   UNL     1      -5.138  19.773  65.120  1.00  0.00    -0.182 C  
HETATM   30  O   UNL     1      -5.136  19.278  67.499  1.00  0.00    -0.165 OA 
ENDBRANCH  27  28
ENDBRANCH   5  27
BRANCH  10  31
HETATM   31  O   UNL     1     -10.723  11.584  69.954  1.00  0.00     0.069 OA 
BRANCH  31  32
HETATM   32  C   UNL     1     -11.206  10.270  69.884  1.00  0.00    -0.299 C  
HETATM   33  C   UNL     1     -11.651   9.840  71.238  1.00  0.00    -0.465 C  
HETATM   34  O   UNL     1     -11.313   9.619  68.852  1.00  0.00    -0.044 OA 
ENDBRANCH  31  32
ENDBRANCH  10  31
BRANCH   9  35
HETATM   35  N   UNL     1     -12.702  14.292  71.378  1.00  0.00    -0.332 N  
HETATM   36  C   UNL     1     -13.567  12.997  71.674  1.00  0.00    -0.090 C  
HETATM   37  C   UNL     1     -12.525  15.151  73.799  1.00  0.00    -0.718 C  
HETATM   38  C   UNL     1     -11.795  14.559  72.593  1.00  0.00     0.173 C  
HETATM   39  C   UNL     1     -13.326  16.380  73.417  1.00  0.00    -0.130 C  
HETATM   40  C   UNL     1     -14.388  15.960  72.421  1.00  0.00    -0.182 C  
HETATM   41  C   UNL     1     -13.735  15.412  71.148  1.00  0.00    -0.417 C  
ENDBRANCH   9  35
TORSDOF 6
ENDMDL
MODEL       77
REMARK 921   NORMALIZED FREE ENERGY PREDICTED BY IDOCK:    5.33 KCAL/MOL
REMARK 922        TOTAL FREE ENERGY PREDICTED BY IDOCK:    5.61 KCAL/MOL
REMARK 923 INTER-LIGAND FREE ENERGY PREDICTED BY IDOCK:    1.95 KCAL/MOL
REMARK 924 INTRA-LIGAND FREE ENERGY PREDICTED BY IDOCK:    3.66 KCAL/MOL
REMARK 927      BINDING AFFINITY PREDICTED BY RF-SCORE:    0.00 PKD
ROOT
HETATM    1  C   UNL     1      -9.546   7.338  69.423  1.00  0.00    -0.154 C  
HETATM    2  C   UNL     1     -10.017   7.331  68.036  1.00  0.00    -0.186 C  
HETATM    3  C   UNL     1      -8.509   7.424  67.786  1.00  0.00    -0.118 C  
HETATM    4  C   UNL     1      -8.361  12.357  69.713  1.00  0.00     2.112 C  
HETATM    5  C   UNL     1      -7.555   7.828  69.579  1.00  0.00    -0.100 C  
HETATM    6  C   UNL     1      -7.891   6.723  69.004  1.00  0.00    -0.111 C  
HETATM    7  C   UNL     1      -9.454  11.603  68.892  1.00  0.00     0.014 C  
HETATM    8  C   UNL     1      -9.465  12.310  67.387  1.00  0.00    -0.181 C  
HETATM    9  C   UNL     1     -10.850  12.742  66.831  1.00  0.00    -0.253 C  
HETATM   10  C   UNL     1     -11.554  13.491  67.984  1.00  0.00    -0.337 C  
HETATM   11  C   UNL     1     -12.030  12.305  68.835  1.00  0.00    -0.300 C  
HETATM   12  C   UNL     1      -7.482   5.268  69.205  1.00  0.00    -0.062 C  
HETATM   13  C   UNL     1      -6.706   8.166  68.330  1.00  0.00    -0.064 C  
HETATM   14  C   UNL     1     -10.803  11.843  69.692  1.00  0.00     0.099 C  
HETATM   15  C   UNL     1     -11.191  10.792  70.729  1.00  0.00     0.077 C  
HETATM   16  C   UNL     1      -7.380   9.832  68.639  1.00  0.00    -0.074 C  
HETATM   17  C   UNL     1     -11.113   9.369  70.228  1.00  0.00    -0.299 C  
HETATM   18  C   UNL     1      -9.008  10.045  68.806  1.00  0.00    -0.145 C  
HETATM   19  C   UNL     1      -9.667   9.024  69.871  1.00  0.00    -0.194 C  
ENDROOT
BRANCH   3  20
HETATM   20  N   UNL     1      -8.177   7.790  66.022  1.00  0.00    -0.116 N  
HETATM   21  C   UNL     1      -9.063   8.929  65.169  1.00  0.00    -0.157 C  
HETATM   22  C   UNL     1      -8.615   9.021  63.718  1.00  0.00    -0.147 C  
HETATM   23  C   UNL     1      -8.207   6.525  65.237  1.00  0.00    -0.135 C  
HETATM   24  C   UNL     1      -8.713   7.654  63.061  1.00  0.00     0.524 C  
HETATM   25  C   UNL     1      -6.741   8.476  66.029  1.00  0.00    -0.057 C  
HETATM   26  C   UNL     1      -7.814   6.673  63.784  1.00  0.00    -0.107 C  
ENDBRANCH   3  20
BRANCH   5  27
HETATM   27  O   UNL     1      -6.243   7.026  70.211  1.00  0.00    -0.029 OA 
BRANCH  27  28
HETATM   28  C   UNL     1      -5.892   6.847  71.509  1.00  0.00    -0.037 C  
HETATM   29  C   UNL     1      -6.336   5.477  71.953  1.00  0.00    -0.043 C  
HETATM   30  O   UNL     1      -5.134   7.582  72.120  1.00  0.00    -0.035 OA 
ENDBRANCH  27  28
ENDBRANCH   5  27
BRANCH  10  31
HETATM   31  O   UNL     1     -10.935  14.384  68.933  1.00  0.00    -0.238 OA 
BRANCH  31  32
HETATM   32  C   UNL     1     -11.861  14.904  69.848  1.00  0.00    -0.311 C  
HETATM   33  C   UNL     1     -13.013  13.966  69.965  1.00  0.00     0.229 C  
HETATM   34  O   UNL     1     -11.700  15.928  70.500  1.00  0.00    -0.341 OA 
ENDBRANCH  31  32
ENDBRANCH  10  31
BRANCH   9  35
HETATM   35  N   UNL     1     -10.923  13.628  65.369  1.00  0.00    -0.291 N  
HETATM   36  C   UNL     1      -9.864  14.807  65.410  1.00  0.00    -0.260 C  
HETATM   37  C   UNL     1     -10.988  13.311  62.815  1.00  0.00     2.785 C  
HETATM   38  C   UNL     1     -10.594  12.722  64.169  1.00  0.00    -0.415 C  
HETATM   39  C   UNL     1     -12.437  13.755  62.800  1.00  0.00     1.285 C  
HETATM   40  C   UNL     1     -12.602  14.858  63.825  1.00  0.00     0.546 C  
HETATM   41  C   UNL     1     -12.288  14.330  65.229  1.00  0.00    -0.424 C  
ENDBRANCH   9  35
TORSDOF 6
ENDMDL
MODEL       78
REMARK 921   NORMALIZED FREE ENERGY PREDICTED BY IDOCK:    6.33 KCAL/MOL
REMARK 922        TOTAL FREE ENERGY PREDICTED BY IDOCK:    6.96 KCAL/MOL
REMARK 923 INTER-LIGAND FREE ENERGY PREDICTED BY IDOCK:    6.08 KCAL/MOL
REMARK 924 INTRA-LIGAND FREE ENERGY PREDICTED BY IDOCK:    0.88 KCAL/MOL
REMARK 927      BINDING AFFINITY PREDICTED BY RF-SCORE:    0.00 PKD
ROOT
HETATM    1  C   UNL     1     -12.458  15.542  69.384  1.00  0.00    -0.030 C  
HETATM    2  C   UNL     1     -12.513  14.223  68.750  1.00  0.00     0.114 C  
HETATM    3  C   UNL     1     -12.331  13.791  70.209  1.00  0.00    -0.337 C  
HETATM    4  C   UNL     1      -7.372  15.658  70.279  1.00  0.00     0.575 C  
HETATM    5  C   UNL     1     -11.844  15.452  71.346  1.00  0.00    -0.384 C  
HETATM    6  C   UNL     1     -12.976  14.929  71.012  1.00  0.00    -0.437 C  
HETATM    7  C   UNL     1      -8.204  14.980  69.144  1.00  0.00    -0.188 C  
HETATM    8  C   UNL     1      -7.518  13.483  68.907  1.00  0.00    -0.017 C  
HETATM    9  C   UNL     1      -7.180  13.096  67.440  1.00  0.00    -0.110 C  
HETATM   10  C   UNL     1      -6.460  14.322  66.835  1.00  0.00     1.455 C  
HETATM   11  C   UNL     1      -7.662  15.232  66.542  1.00  0.00     0.421 C  
HETATM   12  C   UNL     1     -14.400  15.087  71.533  1.00  0.00    -0.651 C  
HETATM   13  C   UNL     1     -11.472  14.108  72.014  1.00  0.00     1.205 C  
HETATM   14  C   UNL     1      -8.036  15.936  67.889  1.00  0.00    -0.149 C  
HETATM   15  C   UNL     1      -9.095  17.019  67.697  1.00  0.00    -0.229 C  
HETATM   16  C   UNL     1      -9.847  14.487  71.279  1.00  0.00     3.165 C  
HETATM   17  C   UNL     1     -10.517  16.520  67.802  1.00  0.00    -0.308 C  
HETATM   18  C   UNL     1      -9.732  14.849  69.673  1.00  0.00     0.016 C  
HETATM   19  C   UNL     1     -10.778  15.992  69.213  1.00  0.00    -0.275 C  
ENDROOT
BRANCH   3  20
HETATM   20  N   UNL     1     -11.968  11.997  70.301  1.00  0.00    -0.345 N  
HETATM   21  C   UNL     1     -11.866  11.186  71.764  1.00  0.00     1.110 C  
HETATM   22  C   UNL     1     -11.523   9.717  71.572  1.00  0.00    -0.439 C  
HETATM   23  C   UNL     1     -10.722  11.703  69.542  1.00  0.00     0.052 C  
HETATM   24  C   UNL     1     -10.226   9.589  70.789  1.00  0.00    -0.363 C  
HETATM   25  C   UNL     1     -13.254  11.306  69.667  1.00  0.00     1.264 C  
HETATM   26  C   UNL     1     -10.386  10.232  69.427  1.00  0.00    -0.256 C  
ENDBRANCH   3  20
BRANCH   5  27
HETATM   27  O   UNL     1     -12.556  15.925  72.772  1.00  0.00    -0.400 OA 
BRANCH  27  28
HETATM   28  C   UNL     1     -12.048  15.907  74.030  1.00  0.00    -0.418 C  
HETATM   29  C   UNL     1     -12.071  14.493  74.549  1.00  0.00     1.058 C  
HETATM   30  O   UNL     1     -11.457  16.844  74.542  1.00  0.00     0.503 OA 
ENDBRANCH  27  28
ENDBRANCH   5  27
BRANCH  10  31
HETATM   31  O   UNL     1      -5.519  15.184  67.507  1.00  0.00    -0.321 OA 
BRANCH  31  32
HETATM   32  C   UNL     1      -5.415  16.437  66.886  1.00  0.00     0.103 C  
HETATM   33  C   UNL     1      -5.242  17.486  67.928  1.00  0.00    -0.130 C  
HETATM   34  O   UNL     1      -5.393  16.616  65.675  1.00  0.00     0.744 OA 
ENDBRANCH  31  32
ENDBRANCH  10  31
BRANCH   9  35
HETATM   35  N   UNL     1      -6.319  11.649  67.135  1.00  0.00    -0.123 N  
HETATM   36  C   UNL     1      -5.169  11.929  66.081  1.00  0.00     0.535 C  
HETATM   37  C   UNL     1      -5.206   9.668  68.344  1.00  0.00    -0.033 C  
HETATM   38  C   UNL     1      -5.674  11.120  68.429  1.00  0.00    -0.042 C  
HETATM   39  C   UNL     1      -6.311   8.753  67.855  1.00  0.00    -0.056 C  
HETATM   40  C   UNL     1      -6.687   9.178  66.451  1.00  0.00    -0.071 C  
HETATM   41  C   UNL     1      -7.232  10.609  66.456  1.00  0.00    -0.134 C  
ENDBRANCH   9  35
TORSDOF 6
ENDMDL
MODEL       79
REMARK 921   NORMALIZED FREE ENERGY PREDICTED BY IDOCK:    6.42 KCAL/MOL
REMARK 922        TOTAL FREE ENERGY PREDICTED BY IDOCK:    7.08 KCAL/MOL
REMARK 923 INTER-LIGAND FREE ENERGY PREDICTED BY IDOCK:    6.77 KCAL/MOL
REMARK 924 INTRA-LIGAND FREE ENERGY PREDICTED BY IDOCK:    0.31 KCAL/MOL
REMARK 927      BINDING AFFINITY PREDICTED BY RF-SCORE:    0.00 PKD
ROOT
HETATM    1  C   UNL     1      -8.999  10.199  67.322  1.00  0.00    -0.144 C  
HETATM    2  C   UNL     1      -7.687  10.849  67.354  1.00  0.00    -0.108 C  
HETATM    3  C   UNL     1      -8.035  10.915  68.845  1.00  0.00    -0.146 C  
HETATM    4  C   UNL     1     -11.878  14.445  67.924  1.00  0.00    -0.384 C  
HETATM    5  C   UNL     1     -10.024  10.398  69.094  1.00  0.00    -0.223 C  
HETATM    6  C   UNL     1      -8.942   9.696  69.065  1.00  0.00    -0.148 C  
HETATM    7  C   UNL     1     -10.490  14.229  67.242  1.00  0.00    -0.269 C  
HETATM    8  C   UNL     1      -9.555  15.530  67.688  1.00  0.00    -0.210 C  
HETATM    9  C   UNL     1      -8.815  16.280  66.545  1.00  0.00    -0.283 C  
HETATM   10  C   UNL     1      -9.864  16.495  65.431  1.00  0.00     0.140 C  
HETATM   11  C   UNL     1      -9.879  15.098  64.792  1.00  0.00     0.382 C  
HETATM   12  C   UNL     1      -8.599   8.275  69.499  1.00  0.00    -0.134 C  
HETATM   13  C   UNL     1      -9.429  11.183  70.287  1.00  0.00     2.110 C  
HETATM   14  C   UNL     1     -10.800  14.202  65.686  1.00  0.00    -0.306 C  
HETATM   15  C   UNL     1     -11.060  12.836  65.055  1.00  0.00    -0.317 C  
HETATM   16  C   UNL     1     -10.197  12.588  69.415  1.00  0.00     0.552 C  
HETATM   17  C   UNL     1     -10.037  11.784  65.414  1.00  0.00    -0.291 C  
HETATM   18  C   UNL     1      -9.877  12.841  67.816  1.00  0.00    -0.220 C  
HETATM   19  C   UNL     1     -10.080  11.512  66.919  1.00  0.00    -0.241 C  
ENDROOT
BRANCH   3  20
HETATM   20  N   UNL     1      -6.849  11.999  69.727  1.00  0.00     0.071 N  
HETATM   21  C   UNL     1      -6.084  11.515  71.138  1.00  0.00     0.686 C  
HETATM   22  C   UNL     1      -5.178  12.605  71.690  1.00  0.00    -0.051 C  
HETATM   23  C   UNL     1      -7.487  13.317  69.997  1.00  0.00     1.389 C  
HETATM   24  C   UNL     1      -5.980  13.876  71.916  1.00  0.00     0.181 C  
HETATM   25  C   UNL     1      -5.607  12.106  68.738  1.00  0.00    -0.050 C  
HETATM   26  C   UNL     1      -6.564  14.352  70.603  1.00  0.00     0.110 C  
ENDBRANCH   3  20
BRANCH   5  27
HETATM   27  O   UNL     1     -10.636   9.291  70.173  1.00  0.00    -0.206 OA 
BRANCH  27  28
HETATM   28  C   UNL     1     -11.330   9.505  71.319  1.00  0.00    -0.376 C  
HETATM   29  C   UNL     1     -12.412  10.520  71.056  1.00  0.00    -0.501 C  
HETATM   30  O   UNL     1     -11.235   8.808  72.316  1.00  0.00    -0.354 OA 
ENDBRANCH  27  28
ENDBRANCH   5  27
BRANCH  10  31
HETATM   31  O   UNL     1     -11.258  16.816  65.614  1.00  0.00     0.082 OA 
BRANCH  31  32
HETATM   32  C   UNL     1     -11.916  17.024  64.394  1.00  0.00     2.198 C  
HETATM   33  C   UNL     1     -12.988  16.002  64.236  1.00  0.00     1.826 C  
HETATM   34  O   UNL     1     -11.687  17.950  63.625  1.00  0.00     3.845 OA 
ENDBRANCH  31  32
ENDBRANCH  10  31
BRANCH   9  35
HETATM   35  N   UNL     1      -7.974  17.727  66.902  1.00  0.00    -0.217 N  
HETATM   36  C   UNL     1      -6.719  17.861  65.942  1.00  0.00    -0.277 C  
HETATM   37  C   UNL     1      -8.360  20.238  67.320  1.00  0.00    -0.404 C  
HETATM   38  C   UNL     1      -8.884  18.949  66.686  1.00  0.00    -0.316 C  
HETATM   39  C   UNL     1      -8.025  20.041  68.785  1.00  0.00    -0.040 C  
HETATM   40  C   UNL     1      -6.912  19.019  68.881  1.00  0.00    -0.357 C  
HETATM   41  C   UNL     1      -7.379  17.670  68.323  1.00  0.00    -0.234 C  
ENDBRANCH   9  35
TORSDOF 6
ENDMDL
MODEL       80
REMARK 921   NORMALIZED FREE ENERGY PREDICTED BY IDOCK:    6.47 KCAL/MOL
REMARK 922        TOTAL FREE ENERGY PREDICTED BY IDOCK:    7.15 KCAL/MOL
REMARK 923 INTER-LIGAND FREE ENERGY PREDICTED BY IDOCK:    5.67 KCAL/MOL
REMARK 924 INTRA-LIGAND FREE ENERGY PREDICTED BY IDOCK:    1.48 KCAL/MOL
REMARK 927      BINDING AFFINITY PREDICTED BY RF-SCORE:    0.00 PKD
ROOT
HETATM    1  C   UNL     1     -11.444   8.449  66.419  1.00  0.00     3.481 C  
HETATM    2  C   UNL     1     -11.702   8.107  67.819  1.00  0.00     2.320 C  
HETATM    3  C   UNL     1     -10.583   9.136  68.016  1.00  0.00    -0.197 C  
HETATM    4  C   UNL     1      -7.011   5.851  65.887  1.00  0.00    -0.062 C  
HETATM    5  C   UNL     1      -9.727   9.555  66.177  1.00  0.00    -0.258 C  
HETATM    6  C   UNL     1     -10.729  10.071  66.807  1.00  0.00    -0.172 C  
HETATM    7  C   UNL     1      -8.267   5.576  66.774  1.00  0.00    -0.105 C  
HETATM    8  C   UNL     1      -7.684   5.075  68.249  1.00  0.00    -0.083 C  
HETATM    9  C   UNL     1      -8.296   3.771  68.833  1.00  0.00    -0.073 C  
HETATM   10  C   UNL     1      -8.298   2.749  67.674  1.00  0.00    -0.083 C  
HETATM   11  C   UNL     1      -9.529   3.225  66.887  1.00  0.00    -0.145 C  
HETATM   12  C   UNL     1     -11.511  11.371  66.651  1.00  0.00    -0.124 C  
HETATM   13  C   UNL     1      -8.834   9.933  67.383  1.00  0.00    -0.137 C  
HETATM   14  C   UNL     1      -9.063   4.436  66.010  1.00  0.00    -0.131 C  
HETATM   15  C   UNL     1     -10.144   4.882  65.029  1.00  0.00     0.175 C  
HETATM   16  C   UNL     1      -8.109   8.298  67.029  1.00  0.00    -0.104 C  
HETATM   17  C   UNL     1     -11.095   5.917  65.584  1.00  0.00     1.617 C  
HETATM   18  C   UNL     1      -9.083   6.972  66.907  1.00  0.00    -0.156 C  
HETATM   19  C   UNL     1     -10.331   7.202  65.907  1.00  0.00     1.163 C  
ENDROOT
BRANCH   3  20
HETATM   20  N   UNL     1      -9.998   9.117  69.752  1.00  0.00    -0.184 N  
HETATM   21  C   UNL     1      -8.397   8.820  70.146  1.00  0.00    -0.131 C  
HETATM   22  C   UNL     1      -8.176   8.826  71.652  1.00  0.00    -0.171 C  
HETATM   23  C   UNL     1     -10.834   8.176  70.548  1.00  0.00    -0.240 C  
HETATM   24  C   UNL     1      -9.095   7.810  72.311  1.00  0.00    -0.201 C  
HETATM   25  C   UNL     1     -10.146  10.627  70.230  1.00  0.00     0.544 C  
HETATM   26  C   UNL     1     -10.539   8.170  72.032  1.00  0.00    -0.334 C  
ENDBRANCH   3  20
BRANCH   5  27
HETATM   27  O   UNL     1      -9.438  11.061  65.536  1.00  0.00    -0.200 OA 
BRANCH  27  28
HETATM   28  C   UNL     1      -9.189  11.411  64.249  1.00  0.00     0.021 C  
HETATM   29  C   UNL     1      -9.183  10.169  63.395  1.00  0.00    -0.324 C  
HETATM   30  O   UNL     1      -9.212  12.558  63.835  1.00  0.00     0.315 OA 
ENDBRANCH  27  28
ENDBRANCH   5  27
BRANCH  10  31
HETATM   31  O   UNL     1      -7.276   2.586  66.670  1.00  0.00    -0.055 OA 
BRANCH  31  32
HETATM   32  C   UNL     1      -5.986   2.676  67.212  1.00  0.00    -0.023 C  
HETATM   33  C   UNL     1      -5.200   1.479  66.803  1.00  0.00    -0.005 C  
HETATM   34  O   UNL     1      -5.562   3.630  67.852  1.00  0.00    -0.019 OA 
ENDBRANCH  31  32
ENDBRANCH  10  31
BRANCH   9  35
HETATM   35  N   UNL     1      -7.629   3.102  70.259  1.00  0.00    -0.044 N  
HETATM   36  C   UNL     1      -7.908   1.541  70.293  1.00  0.00    -0.038 C  
HETATM   37  C   UNL     1      -5.480   3.099  71.677  1.00  0.00    -0.008 C  
HETATM   38  C   UNL     1      -6.106   3.324  70.301  1.00  0.00    -0.023 C  
HETATM   39  C   UNL     1      -6.192   3.898  72.750  1.00  0.00    -0.013 C  
HETATM   40  C   UNL     1      -7.623   3.408  72.832  1.00  0.00    -0.060 C  
HETATM   41  C   UNL     1      -8.346   3.657  71.505  1.00  0.00    -0.069 C  
ENDBRANCH   9  35
TORSDOF 6
ENDMDL
MODEL       81
REMARK 921   NORMALIZED FREE ENERGY PREDICTED BY IDOCK:    6.82 KCAL/MOL
REMARK 922        TOTAL FREE ENERGY PREDICTED BY IDOCK:    7.62 KCAL/MOL
REMARK 923 INTER-LIGAND FREE ENERGY PREDICTED BY IDOCK:    6.24 KCAL/MOL
REMARK 924 INTRA-LIGAND FREE ENERGY PREDICTED BY IDOCK:    1.38 KCAL/MOL
REMARK 927      BINDING AFFINITY PREDICTED BY RF-SCORE:    0.00 PKD
ROOT
HETATM    1  C   UNL     1     -10.986  12.536  64.976  1.00  0.00    -0.329 C  
HETATM    2  C   UNL     1      -9.562  12.712  64.685  1.00  0.00     0.203 C  
HETATM    3  C   UNL     1      -9.454  11.822  65.928  1.00  0.00    -0.223 C  
HETATM    4  C   UNL     1     -11.248  15.723  69.033  1.00  0.00    -0.319 C  
HETATM    5  C   UNL     1     -11.317  11.688  66.821  1.00  0.00    -0.286 C  
HETATM    6  C   UNL     1     -10.744  10.992  65.898  1.00  0.00    -0.226 C  
HETATM    7  C   UNL     1     -10.348  15.751  67.757  1.00  0.00    -0.275 C  
HETATM    8  C   UNL     1      -8.830  16.185  68.279  1.00  0.00    -0.188 C  
HETATM    9  C   UNL     1      -8.132  17.339  67.507  1.00  0.00    -0.186 C  
HETATM   10  C   UNL     1      -9.192  18.455  67.366  1.00  0.00    -0.271 C  
HETATM   11  C   UNL     1     -10.027  17.898  66.203  1.00  0.00    -0.288 C  
HETATM   12  C   UNL     1     -11.024   9.621  65.290  1.00  0.00     2.260 C  
HETATM   13  C   UNL     1     -10.146  11.320  67.762  1.00  0.00    -0.199 C  
HETATM   14  C   UNL     1     -11.009  16.844  66.816  1.00  0.00     0.132 C  
HETATM   15  C   UNL     1     -12.034  16.353  65.797  1.00  0.00     1.716 C  
HETATM   16  C   UNL     1     -10.343  13.060  68.268  1.00  0.00    -0.256 C  
HETATM   17  C   UNL     1     -11.582  15.158  64.991  1.00  0.00    -0.294 C  
HETATM   18  C   UNL     1     -10.349  14.255  67.130  1.00  0.00    -0.262 C  
HETATM   19  C   UNL     1     -11.374  13.958  65.916  1.00  0.00    -0.314 C  
ENDROOT
BRANCH   3  20
HETATM   20  N   UNL     1      -7.720  11.757  66.515  1.00  0.00    -0.026 N  
HETATM   21  C   UNL     1      -7.263  10.829  67.834  1.00  0.00    -0.087 C  
HETATM   22  C   UNL     1      -5.779  10.972  68.139  1.00  0.00    -0.046 C  
HETATM   23  C   UNL     1      -7.222  13.140  66.752  1.00  0.00     0.821 C  
HETATM   24  C   UNL     1      -5.438  12.437  68.361  1.00  0.00    -0.053 C  
HETATM   25  C   UNL     1      -6.939  11.013  65.345  1.00  0.00     0.296 C  
HETATM   26  C   UNL     1      -5.755  13.231  67.111  1.00  0.00     0.483 C  
ENDBRANCH   3  20
BRANCH   5  27
HETATM   27  O   UNL     1     -12.093  10.298  67.299  1.00  0.00     1.127 OA 
BRANCH  27  28
HETATM   28  C   UNL     1     -11.607   9.244  68.002  1.00  0.00     1.275 C  
HETATM   29  C   UNL     1     -11.742   7.994  67.170  1.00  0.00     2.843 C  
HETATM   30  O   UNL     1     -10.957   9.348  69.029  1.00  0.00    -0.176 OA 
ENDBRANCH  27  28
ENDBRANCH   5  27
BRANCH  10  31
HETATM   31  O   UNL     1     -10.170  18.840  68.353  1.00  0.00    -0.368 OA 
BRANCH  31  32
HETATM   32  C   UNL     1      -9.680  19.822  69.225  1.00  0.00    -0.179 C  
HETATM   33  C   UNL     1      -9.273  21.018  68.436  1.00  0.00     0.801 C  
HETATM   34  O   UNL     1      -9.667  19.728  70.447  1.00  0.00     0.422 OA 
ENDBRANCH  31  32
ENDBRANCH  10  31
BRANCH   9  35
HETATM   35  N   UNL     1      -6.646  17.956  68.089  1.00  0.00    -0.193 N  
HETATM   36  C   UNL     1      -5.488  16.913  67.794  1.00  0.00    -0.125 C  
HETATM   37  C   UNL     1      -5.201  20.087  68.085  1.00  0.00    -0.204 C  
HETATM   38  C   UNL     1      -6.297  19.280  67.387  1.00  0.00    -0.195 C  
HETATM   39  C   UNL     1      -5.513  20.296  69.553  1.00  0.00    -0.318 C  
HETATM   40  C   UNL     1      -5.556  18.939  70.224  1.00  0.00    -0.249 C  
HETATM   41  C   UNL     1      -6.678  18.085  69.624  1.00  0.00    -0.001 C  
ENDBRANCH   9  35
TORSDOF 6
ENDMDL
MODEL       82
REMARK 921   NORMALIZED FREE ENERGY PREDICTED BY IDOCK:   10.03 KCAL/MOL
REMARK 922        TOTAL FREE ENERGY PREDICTED BY IDOCK:   11.96 KCAL/MOL
REMARK 923 INTER-LIGAND FREE ENERGY PREDICTED BY IDOCK:   12.57 KCAL/MOL
REMARK 924 INTRA-LIGAND FREE ENERGY PREDICTED BY IDOCK:   -0.61 KCAL/MOL
REMARK 927      BINDING AFFINITY PREDICTED BY RF-SCORE:    0.00 PKD
ROOT
HETATM    1  C   UNL     1      -8.279  12.405  69.863  1.00  0.00     2.441 C  
HETATM    2  C   UNL     1      -7.266  11.676  69.097  1.00  0.00    -0.064 C  
HETATM    3  C   UNL     1      -8.248  11.998  67.967  1.00  0.00    -0.156 C  
HETATM    4  C   UNL     1     -11.857   8.682  69.980  1.00  0.00     0.410 C  
HETATM    5  C   UNL     1     -10.005  12.723  68.789  1.00  0.00    -0.003 C  
HETATM    6  C   UNL     1      -8.913  13.305  68.420  1.00  0.00    -0.124 C  
HETATM    7  C   UNL     1     -10.297   8.611  69.944  1.00  0.00    -0.213 C  
HETATM    8  C   UNL     1      -9.919   7.383  68.888  1.00  0.00    -0.169 C  
HETATM    9  C   UNL     1      -8.900   6.322  69.391  1.00  0.00    -0.127 C  
HETATM   10  C   UNL     1      -9.361   5.934  70.814  1.00  0.00    -0.160 C  
HETATM   11  C   UNL     1      -8.830   7.132  71.614  1.00  0.00    -0.121 C  
HETATM   12  C   UNL     1      -8.543  14.756  68.130  1.00  0.00    -0.159 C  
HETATM   13  C   UNL     1     -10.162  12.201  67.342  1.00  0.00    -0.211 C  
HETATM   14  C   UNL     1      -9.868   8.290  71.437  1.00  0.00    -0.240 C  
HETATM   15  C   UNL     1      -9.560   9.481  72.341  1.00  0.00     2.103 C  
HETATM   16  C   UNL     1     -10.706  10.697  68.216  1.00  0.00    -0.260 C  
HETATM   17  C   UNL     1      -8.630  10.500  71.727  1.00  0.00     6.388 C  
HETATM   18  C   UNL     1      -9.759  10.042  69.397  1.00  0.00    -0.240 C  
HETATM   19  C   UNL     1      -9.289  11.128  70.498  1.00  0.00     3.249 C  
ENDROOT
BRANCH   3  20
HETATM   20  N   UNL     1      -7.806  11.065  66.453  1.00  0.00    -0.154 N  
HETATM   21  C   UNL     1      -8.925  10.746  65.247  1.00  0.00    -0.211 C  
HETATM   22  C   UNL     1      -8.319   9.928  64.116  1.00  0.00    -0.168 C  
HETATM   23  C   UNL     1      -7.182   9.768  66.834  1.00  0.00    -0.090 C  
HETATM   24  C   UNL     1      -7.735   8.638  64.670  1.00  0.00    -0.121 C  
HETATM   25  C   UNL     1      -6.802  12.027  65.680  1.00  0.00     2.238 C  
HETATM   26  C   UNL     1      -6.647   8.959  65.673  1.00  0.00    -0.064 C  
ENDBRANCH   3  20
BRANCH   5  27
HETATM   27  O   UNL     1     -10.816  14.104  68.343  1.00  0.00    -0.241 OA 
BRANCH  27  28
HETATM   28  C   UNL     1     -11.874  14.243  67.505  1.00  0.00    -0.395 C  
HETATM   29  C   UNL     1     -11.365  14.538  66.117  1.00  0.00    -0.348 C  
HETATM   30  O   UNL     1     -13.020  13.938  67.793  1.00  0.00     0.952 OA 
ENDBRANCH  27  28
ENDBRANCH   5  27
BRANCH  10  31
HETATM   31  O   UNL     1     -10.723   5.782  71.264  1.00  0.00    -0.246 OA 
BRANCH  31  32
HETATM   32  C   UNL     1     -10.814   4.968  72.402  1.00  0.00    -0.169 C  
HETATM   33  C   UNL     1     -10.598   3.549  72.006  1.00  0.00     0.207 C  
HETATM   34  O   UNL     1     -10.968   5.379  73.545  1.00  0.00    -0.285 OA 
ENDBRANCH  31  32
ENDBRANCH  10  31
BRANCH   9  35
HETATM   35  N   UNL     1      -8.593   4.939  68.431  1.00  0.00    -0.097 N  
HETATM   36  C   UNL     1      -8.674   5.330  66.897  1.00  0.00    -0.111 C  
HETATM   37  C   UNL     1      -6.957   2.965  68.199  1.00  0.00    -0.049 C  
HETATM   38  C   UNL     1      -7.185   4.384  68.717  1.00  0.00    -0.056 C  
HETATM   39  C   UNL     1      -8.040   2.017  68.674  1.00  0.00    -0.065 C  
HETATM   40  C   UNL     1      -9.361   2.487  68.104  1.00  0.00    -0.261 C  
HETATM   41  C   UNL     1      -9.700   3.886  68.629  1.00  0.00    -0.043 C  
ENDBRANCH   9  35
TORSDOF 6
ENDMDL
MODEL       83
REMARK 921   NORMALIZED FREE ENERGY PREDICTED BY IDOCK:   10.79 KCAL/MOL
REMARK 922        TOTAL FREE ENERGY PREDICTED BY IDOCK:   12.99 KCAL/MOL
REMARK 923 INTER-LIGAND FREE ENERGY PREDICTED BY IDOCK:   12.35 KCAL/MOL
REMARK 924 INTRA-LIGAND FREE ENERGY PREDICTED BY IDOCK:    0.64 KCAL/MOL
REMARK 927      BINDING AFFINITY PREDICTED BY RF-SCORE:    0.00 PKD
ROOT
HETATM    1  C   UNL     1     -11.527  10.087  66.342  1.00  0.00     1.426 C  
HETATM    2  C   UNL     1     -10.399  10.738  65.672  1.00  0.00    -0.297 C  
HETATM    3  C   UNL     1      -9.632   9.698  66.495  1.00  0.00    -0.196 C  
HETATM    4  C   UNL     1     -10.846  12.185  71.013  1.00  0.00     3.808 C  
HETATM    5  C   UNL     1     -10.928   8.834  67.860  1.00  0.00     0.125 C  
HETATM    6  C   UNL     1     -10.628   8.538  66.639  1.00  0.00    -0.118 C  
HETATM    7  C   UNL     1     -10.542  12.733  69.583  1.00  0.00     0.577 C  
HETATM    8  C   UNL     1      -9.067  13.495  69.690  1.00  0.00     1.580 C  
HETATM    9  C   UNL     1      -8.983  14.934  69.110  1.00  0.00    -0.140 C  
HETATM   10  C   UNL     1     -10.221  15.682  69.652  1.00  0.00    -0.291 C  
HETATM   11  C   UNL     1     -11.307  15.138  68.712  1.00  0.00    -0.313 C  
HETATM   12  C   UNL     1     -10.830   7.295  65.780  1.00  0.00     3.001 C  
HETATM   13  C   UNL     1      -9.434   8.660  68.221  1.00  0.00    -0.150 C  
HETATM   14  C   UNL     1     -11.729  13.738  69.270  1.00  0.00    -0.376 C  
HETATM   15  C   UNL     1     -12.943  13.170  68.539  1.00  0.00     2.061 C  
HETATM   16  C   UNL     1      -9.777  10.125  69.251  1.00  0.00    -0.238 C  
HETATM   17  C   UNL     1     -12.602  12.350  67.317  1.00  0.00     1.414 C  
HETATM   18  C   UNL     1     -10.475  11.460  68.579  1.00  0.00    -0.223 C  
HETATM   19  C   UNL     1     -11.805  11.112  67.731  1.00  0.00    -0.098 C  
ENDROOT
BRANCH   3  20
HETATM   20  N   UNL     1      -7.834  10.045  66.445  1.00  0.00    -0.111 N  
HETATM   21  C   UNL     1      -6.712   9.023  67.154  1.00  0.00    -0.066 C  
HETATM   22  C   UNL     1      -5.293   9.550  67.004  1.00  0.00    -0.039 C  
HETATM   23  C   UNL     1      -7.578  11.416  66.967  1.00  0.00    -0.151 C  
HETATM   24  C   UNL     1      -5.199  10.949  67.590  1.00  0.00    -0.040 C  
HETATM   25  C   UNL     1      -7.449   9.889  64.909  1.00  0.00    -0.135 C  
HETATM   26  C   UNL     1      -6.141  11.877  66.853  1.00  0.00    -0.120 C  
ENDBRANCH   3  20
BRANCH   5  27
HETATM   27  O   UNL     1     -11.148   7.209  68.131  1.00  0.00    -0.087 OA 
BRANCH  27  28
HETATM   28  C   UNL     1     -10.451   6.374  68.943  1.00  0.00    -0.223 C  
HETATM   29  C   UNL     1     -11.319   5.990  70.114  1.00  0.00    -0.351 C  
HETATM   30  O   UNL     1      -9.396   5.844  68.636  1.00  0.00    -0.117 OA 
ENDBRANCH  27  28
ENDBRANCH   5  27
BRANCH  10  31
HETATM   31  O   UNL     1     -10.795  15.552  70.969  1.00  0.00    -0.321 OA 
BRANCH  31  32
HETATM   32  C   UNL     1     -11.905  16.389  71.145  1.00  0.00    -0.090 C  
HETATM   33  C   UNL     1     -13.151  15.591  70.975  1.00  0.00    -0.551 C  
HETATM   34  O   UNL     1     -11.846  17.570  71.464  1.00  0.00     1.943 OA 
ENDBRANCH  31  32
ENDBRANCH  10  31
BRANCH   9  35
HETATM   35  N   UNL     1      -7.551  15.843  69.336  1.00  0.00    -0.230 N  
HETATM   36  C   UNL     1      -6.612  15.103  70.377  1.00  0.00     0.045 C  
HETATM   37  C   UNL     1      -5.710  17.072  68.022  1.00  0.00    -0.124 C  
HETATM   38  C   UNL     1      -6.786  15.987  68.008  1.00  0.00    -0.129 C  
HETATM   39  C   UNL     1      -6.264  18.401  68.495  1.00  0.00    -0.203 C  
HETATM   40  C   UNL     1      -6.739  18.232  69.923  1.00  0.00     0.203 C  
HETATM   41  C   UNL     1      -7.870  17.202  69.989  1.00  0.00     1.698 C  
ENDBRANCH   9  35
TORSDOF 6
ENDMDL
MODEL       84
REMARK 921   NORMALIZED FREE ENERGY PREDICTED BY IDOCK:   10.93 KCAL/MOL
REMARK 922        TOTAL FREE ENERGY PREDICTED BY IDOCK:   13.17 KCAL/MOL
REMARK 923 INTER-LIGAND FREE ENERGY PREDICTED BY IDOCK:    8.53 KCAL/MOL
REMARK 924 INTRA-LIGAND FREE ENERGY PREDICTED BY IDOCK:    4.65 KCAL/MOL
REMARK 927      BINDING AFFINITY PREDICTED BY RF-SCORE:    0.00 PKD
ROOT
HETATM    1  C   UNL     1      -6.734  14.632  67.110  1.00  0.00     0.388 C  
HETATM    2  C   UNL     1      -7.524  14.016  66.042  1.00  0.00     3.890 C  
HETATM    3  C   UNL     1      -8.654  14.671  66.842  1.00  0.00    -0.204 C  
HETATM    4  C   UNL     1      -7.942  11.294  70.862  1.00  0.00     4.777 C  
HETATM    5  C   UNL     1      -7.900  15.331  68.654  1.00  0.00    -0.142 C  
HETATM    6  C   UNL     1      -7.985  15.889  67.493  1.00  0.00    -0.166 C  
HETATM    7  C   UNL     1      -7.806  11.103  69.318  1.00  0.00    -0.007 C  
HETATM    8  C   UNL     1      -9.071  10.123  68.865  1.00  0.00    -0.165 C  
HETATM    9  C   UNL     1      -8.717   8.894  67.982  1.00  0.00    -0.133 C  
HETATM   10  C   UNL     1      -7.495   8.229  68.653  1.00  0.00    -0.097 C  
HETATM   11  C   UNL     1      -6.373   9.162  68.173  1.00  0.00    -0.055 C  
HETATM   12  C   UNL     1      -7.874  17.332  67.011  1.00  0.00    -0.243 C  
HETATM   13  C   UNL     1      -9.439  15.171  68.639  1.00  0.00    -0.206 C  
HETATM   14  C   UNL     1      -6.392  10.412  69.115  1.00  0.00    -0.046 C  
HETATM   15  C   UNL     1      -5.199  11.333  68.871  1.00  0.00    -0.040 C  
HETATM   16  C   UNL     1      -9.021  13.557  69.376  1.00  0.00     0.975 C  
HETATM   17  C   UNL     1      -5.435  12.385  67.813  1.00  0.00    -0.097 C  
HETATM   18  C   UNL     1      -7.925  12.571  68.635  1.00  0.00    -0.029 C  
HETATM   19  C   UNL     1      -6.549  13.332  68.264  1.00  0.00    -0.099 C  
ENDROOT
BRANCH   3  20
HETATM   20  N   UNL     1     -10.282  14.077  66.247  1.00  0.00    -0.288 N  
HETATM   21  C   UNL     1     -10.421  12.969  64.997  1.00  0.00    -0.345 C  
HETATM   22  C   UNL     1     -11.876  12.665  64.671  1.00  0.00    -0.437 C  
HETATM   23  C   UNL     1     -11.142  15.243  65.904  1.00  0.00    -0.287 C  
HETATM   24  C   UNL     1     -12.609  13.954  64.338  1.00  0.00    -0.213 C  
HETATM   25  C   UNL     1     -10.855  13.226  67.463  1.00  0.00    -0.263 C  
HETATM   26  C   UNL     1     -12.565  14.890  65.527  1.00  0.00     0.188 C  
ENDBRANCH   3  20
BRANCH   5  27
HETATM   27  O   UNL     1      -8.097  16.840  69.323  1.00  0.00    -0.167 OA 
BRANCH  27  28
HETATM   28  C   UNL     1      -7.244  17.895  69.325  1.00  0.00    -0.065 C  
HETATM   29  C   UNL     1      -6.724  18.104  70.724  1.00  0.00     1.898 C  
HETATM   30  O   UNL     1      -6.801  18.418  68.315  1.00  0.00    -0.225 OA 
ENDBRANCH  27  28
ENDBRANCH   5  27
BRANCH  10  31
HETATM   31  O   UNL     1      -7.261   8.092  70.070  1.00  0.00    -0.059 OA 
BRANCH  31  32
HETATM   32  C   UNL     1      -7.448   6.774  70.509  1.00  0.00    -0.086 C  
HETATM   33  C   UNL     1      -6.751   5.844  69.578  1.00  0.00    -0.059 C  
HETATM   34  O   UNL     1      -8.028   6.457  71.541  1.00  0.00    -0.103 OA 
ENDBRANCH  31  32
ENDBRANCH  10  31
BRANCH   9  35
HETATM   35  N   UNL     1      -9.936   7.748  67.619  1.00  0.00    -0.166 N  
HETATM   36  C   UNL     1     -11.010   8.404  66.656  1.00  0.00     0.702 C  
HETATM   37  C   UNL     1     -10.253   5.303  66.879  1.00  0.00    -0.279 C  
HETATM   38  C   UNL     1      -9.332   6.522  66.911  1.00  0.00    -0.146 C  
HETATM   39  C   UNL     1     -10.765   4.955  68.262  1.00  0.00     0.399 C  
HETATM   40  C   UNL     1     -11.592   6.119  68.766  1.00  0.00     0.358 C  
HETATM   41  C   UNL     1     -10.722   7.374  68.891  1.00  0.00    -0.130 C  
ENDBRANCH   9  35
TORSDOF 6
ENDMDL
MODEL       85
REMARK 921   NORMALIZED FREE ENERGY PREDICTED BY IDOCK:   11.21 KCAL/MOL
REMARK 922        TOTAL FREE ENERGY PREDICTED BY IDOCK:   13.55 KCAL/MOL
REMARK 923 INTER-LIGAND FREE ENERGY PREDICTED BY IDOCK:   11.32 KCAL/MOL
REMARK 924 INTRA-LIGAND FREE ENERGY PREDICTED BY IDOCK:    2.23 KCAL/MOL
REMARK 927      BINDING AFFINITY PREDICTED BY RF-SCORE:    0.00 PKD
ROOT
HETATM    1  C   UNL     1      -8.479  16.395  70.089  1.00  0.00     1.641 C  
HETATM    2  C   UNL     1      -8.458  16.615  68.641  1.00  0.00    -0.253 C  
HETATM    3  C   UNL     1      -9.948  16.311  68.824  1.00  0.00    -0.237 C  
HETATM    4  C   UNL     1      -8.906  11.248  69.987  1.00  0.00     1.823 C  
HETATM    5  C   UNL     1     -10.255  15.583  70.738  1.00  0.00     0.424 C  
HETATM    6  C   UNL     1     -10.245  16.780  70.256  1.00  0.00     0.668 C  
HETATM    7  C   UNL     1      -8.215  12.244  69.003  1.00  0.00     0.318 C  
HETATM    8  C   UNL     1      -8.578  11.702  67.473  1.00  0.00    -0.149 C  
HETATM    9  C   UNL     1      -7.386  11.552  66.487  1.00  0.00    -0.012 C  
HETATM   10  C   UNL     1      -6.280  10.811  67.270  1.00  0.00    -0.061 C  
HETATM   11  C   UNL     1      -5.714  11.966  68.109  1.00  0.00    -0.048 C  
HETATM   12  C   UNL     1     -10.746  18.125  70.771  1.00  0.00     2.316 C  
HETATM   13  C   UNL     1     -11.396  15.243  69.751  1.00  0.00    -0.306 C  
HETATM   14  C   UNL     1      -6.667  12.141  69.339  1.00  0.00    -0.056 C  
HETATM   15  C   UNL     1      -6.112  13.130  70.360  1.00  0.00    -0.049 C  
HETATM   16  C   UNL     1     -10.464  13.682  69.612  1.00  0.00     0.440 C  
HETATM   17  C   UNL     1      -6.509  14.566  70.111  1.00  0.00    -0.156 C  
HETATM   18  C   UNL     1      -8.850  13.713  69.273  1.00  0.00     0.664 C  
HETATM   19  C   UNL     1      -8.026  14.713  70.238  1.00  0.00     0.921 C  
ENDROOT
BRANCH   3  20
HETATM   20  N   UNL     1     -10.755  16.077  67.196  1.00  0.00    -0.308 N  
HETATM   21  C   UNL     1     -10.925  14.562  66.499  1.00  0.00    -0.321 C  
HETATM   22  C   UNL     1     -11.596  14.640  65.136  1.00  0.00    -0.371 C  
HETATM   23  C   UNL     1     -10.106  16.959  66.188  1.00  0.00    -0.333 C  
HETATM   24  C   UNL     1     -10.809  15.570  64.227  1.00  0.00     0.335 C  
HETATM   25  C   UNL     1     -12.278  16.456  67.457  1.00  0.00     1.587 C  
HETATM   26  C   UNL     1     -10.769  16.959  64.828  1.00  0.00     0.223 C  
ENDBRANCH   3  20
BRANCH   5  27
HETATM   27  O   UNL     1     -11.399  16.101  71.828  1.00  0.00    -0.317 OA 
BRANCH  27  28
HETATM   28  C   UNL     1     -12.496  15.452  72.292  1.00  0.00    -0.375 C  
HETATM   29  C   UNL     1     -12.055  14.300  73.158  1.00  0.00     0.158 C  
HETATM   30  O   UNL     1     -13.633  15.886  72.211  1.00  0.00    -0.440 OA 
ENDBRANCH  27  28
ENDBRANCH   5  27
BRANCH  10  31
HETATM   31  O   UNL     1      -6.468   9.742  68.219  1.00  0.00    -0.055 OA 
BRANCH  31  32
HETATM   32  C   UNL     1      -6.796   8.532  67.591  1.00  0.00    -0.071 C  
HETATM   33  C   UNL     1      -6.174   7.406  68.341  1.00  0.00    -0.036 C  
HETATM   34  O   UNL     1      -7.543   8.426  66.625  1.00  0.00    -0.087 OA 
ENDBRANCH  31  32
ENDBRANCH  10  31
BRANCH   9  35
HETATM   35  N   UNL     1      -7.655  10.840  64.954  1.00  0.00     0.103 N  
HETATM   36  C   UNL     1      -7.085  11.790  63.821  1.00  0.00     3.341 C  
HETATM   37  C   UNL     1      -7.410   8.610  63.692  1.00  0.00    -0.104 C  
HETATM   38  C   UNL     1      -6.939   9.481  64.856  1.00  0.00    -0.106 C  
HETATM   39  C   UNL     1      -8.917   8.449  63.691  1.00  0.00     0.664 C  
HETATM   40  C   UNL     1      -9.537   9.817  63.496  1.00  0.00     0.163 C  
HETATM   41  C   UNL     1      -9.165  10.740  64.661  1.00  0.00    -0.219 C  
ENDBRANCH   9  35
TORSDOF 6
ENDMDL
MODEL       86
REMARK 921   NORMALIZED FREE ENERGY PREDICTED BY IDOCK:   12.27 KCAL/MOL
REMARK 922        TOTAL FREE ENERGY PREDICTED BY IDOCK:   14.98 KCAL/MOL
REMARK 923 INTER-LIGAND FREE ENERGY PREDICTED BY IDOCK:   14.68 KCAL/MOL
REMARK 924 INTRA-LIGAND FREE ENERGY PREDICTED BY IDOCK:    0.30 KCAL/MOL
REMARK 927      BINDING AFFINITY PREDICTED BY RF-SCORE:    0.00 PKD
ROOT
HETATM    1  C   UNL     1      -8.990   8.398  71.904  1.00  0.00    -0.280 C  
HETATM    2  C   UNL     1      -9.485   9.774  71.978  1.00  0.00     2.470 C  
HETATM    3  C   UNL     1     -10.815   9.042  71.772  1.00  0.00    -0.367 C  
HETATM    4  C   UNL     1      -9.491   7.768  66.802  1.00  0.00    -0.251 C  
HETATM    5  C   UNL     1     -10.425   7.075  71.255  1.00  0.00    -0.206 C  
HETATM    6  C   UNL     1     -10.573   7.660  72.395  1.00  0.00    -0.313 C  
HETATM    7  C   UNL     1      -9.185   9.037  67.658  1.00  0.00    -0.150 C  
HETATM    8  C   UNL     1     -10.079  10.268  66.986  1.00  0.00    -0.268 C  
HETATM    9  C   UNL     1      -9.322  11.590  66.678  1.00  0.00    -0.189 C  
HETATM   10  C   UNL     1      -8.018  11.173  65.962  1.00  0.00    -0.041 C  
HETATM   11  C   UNL     1      -7.174  10.723  67.164  1.00  0.00    -0.100 C  
HETATM   12  C   UNL     1     -10.839   7.153  73.809  1.00  0.00    -0.038 C  
HETATM   13  C   UNL     1     -11.849   7.549  70.878  1.00  0.00    -0.293 C  
HETATM   14  C   UNL     1      -7.622   9.263  67.509  1.00  0.00    -0.088 C  
HETATM   15  C   UNL     1      -6.724   8.622  68.564  1.00  0.00    -0.060 C  
HETATM   16  C   UNL     1     -11.049   7.835  69.265  1.00  0.00     0.095 C  
HETATM   17  C   UNL     1      -7.166   8.872  69.987  1.00  0.00    -0.054 C  
HETATM   18  C   UNL     1      -9.663   8.725  69.177  1.00  0.00    -0.175 C  
HETATM   19  C   UNL     1      -8.535   8.233  70.224  1.00  0.00    -0.125 C  
ENDROOT
BRANCH   3  20
HETATM   20  N   UNL     1     -12.155  10.241  71.418  1.00  0.00    -0.377 N  
HETATM   21  C   UNL     1     -12.052  11.342  70.160  1.00  0.00    -0.439 C  
HETATM   22  C   UNL     1     -13.274  12.246  70.098  1.00  0.00     1.151 C  
HETATM   23  C   UNL     1     -12.474  11.007  72.654  1.00  0.00     2.427 C  
HETATM   24  C   UNL     1     -13.455  12.958  71.429  1.00  0.00    -0.015 C  
HETATM   25  C   UNL     1     -13.367   9.337  70.923  1.00  0.00     0.036 C  
HETATM   26  C   UNL     1     -13.660  11.939  72.530  1.00  0.00     0.341 C  
ENDBRANCH   3  20
BRANCH   5  27
HETATM   27  O   UNL     1     -11.096   5.715  71.937  1.00  0.00    -0.256 OA 
BRANCH  27  28
HETATM   28  C   UNL     1     -12.330   5.183  71.751  1.00  0.00     1.947 C  
HETATM   29  C   UNL     1     -12.374   4.504  70.406  1.00  0.00     9.978 C  
HETATM   30  O   UNL     1     -13.167   5.072  72.632  1.00  0.00     0.621 OA 
ENDBRANCH  27  28
ENDBRANCH   5  27
BRANCH  10  31
HETATM   31  O   UNL     1      -7.867  10.107  65.003  1.00  0.00    -0.134 OA 
BRANCH  31  32
HETATM   32  C   UNL     1      -7.027  10.468  63.940  1.00  0.00     0.123 C  
HETATM   33  C   UNL     1      -6.958   9.343  62.967  1.00  0.00    -0.097 C  
HETATM   34  O   UNL     1      -6.503  11.567  63.807  1.00  0.00     1.436 OA 
ENDBRANCH  31  32
ENDBRANCH  10  31
BRANCH   9  35
HETATM   35  N   UNL     1     -10.132  12.838  65.831  1.00  0.00    -0.274 N  
HETATM   36  C   UNL     1      -9.233  14.144  65.827  1.00  0.00     0.253 C  
HETATM   37  C   UNL     1     -11.416  13.294  63.647  1.00  0.00    -0.287 C  
HETATM   38  C   UNL     1     -10.391  12.422  64.372  1.00  0.00    -0.343 C  
HETATM   39  C   UNL     1     -12.706  13.410  64.435  1.00  0.00    -0.156 C  
HETATM   40  C   UNL     1     -12.396  14.094  65.750  1.00  0.00    -0.481 C  
HETATM   41  C   UNL     1     -11.419  13.248  66.572  1.00  0.00    -0.337 C  
ENDBRANCH   9  35
TORSDOF 6
ENDMDL
MODEL       87
REMARK 921   NORMALIZED FREE ENERGY PREDICTED BY IDOCK:   12.38 KCAL/MOL
REMARK 922        TOTAL FREE ENERGY PREDICTED BY IDOCK:   15.14 KCAL/MOL
REMARK 923 INTER-LIGAND FREE ENERGY PREDICTED BY IDOCK:   14.71 KCAL/MOL
REMARK 924 INTRA-LIGAND FREE ENERGY PREDICTED BY IDOCK:    0.43 KCAL/MOL
REMARK 927      BINDING AFFINITY PREDICTED BY RF-SCORE:    0.00 PKD
ROOT
HETATM    1  C   UNL     1      -8.801  15.709  66.806  1.00  0.00    -0.304 C  
HETATM    2  C   UNL     1      -9.533  14.579  66.230  1.00  0.00    -0.310 C  
HETATM    3  C   UNL     1     -10.480  14.928  67.383  1.00  0.00    -0.255 C  
HETATM    4  C   UNL     1      -6.943  13.271  70.963  1.00  0.00     2.642 C  
HETATM    5  C   UNL     1      -9.540  16.278  68.640  1.00  0.00    -0.237 C  
HETATM    6  C   UNL     1     -10.270  16.435  67.588  1.00  0.00    -0.272 C  
HETATM    7  C   UNL     1      -7.281  12.752  69.529  1.00  0.00     0.379 C  
HETATM    8  C   UNL     1      -8.019  11.276  69.739  1.00  0.00     0.712 C  
HETATM    9  C   UNL     1      -7.470  10.097  68.889  1.00  0.00    -0.086 C  
HETATM   10  C   UNL     1      -5.932  10.158  69.023  1.00  0.00    -0.037 C  
HETATM   11  C   UNL     1      -5.614  11.293  68.038  1.00  0.00    -0.042 C  
HETATM   12  C   UNL     1     -11.012  17.627  66.993  1.00  0.00     0.065 C  
HETATM   13  C   UNL     1     -10.727  15.535  69.298  1.00  0.00    -0.245 C  
HETATM   14  C   UNL     1      -5.879  12.637  68.796  1.00  0.00    -0.068 C  
HETATM   15  C   UNL     1      -5.414  13.850  67.994  1.00  0.00    -0.116 C  
HETATM   16  C   UNL     1      -9.385  14.463  69.909  1.00  0.00     0.884 C  
HETATM   17  C   UNL     1      -6.460  14.412  67.060  1.00  0.00     0.966 C  
HETATM   18  C   UNL     1      -8.293  13.824  68.851  1.00  0.00     0.111 C  
HETATM   19  C   UNL     1      -7.650  14.933  67.868  1.00  0.00    -0.146 C  
ENDROOT
BRANCH   3  20
HETATM   20  N   UNL     1     -11.742  13.615  67.590  1.00  0.00    -0.342 N  
HETATM   21  C   UNL     1     -11.936  12.790  69.036  1.00  0.00    -0.288 C  
HETATM   22  C   UNL     1     -13.023  11.730  68.940  1.00  0.00     2.065 C  
HETATM   23  C   UNL     1     -11.581  12.597  66.516  1.00  0.00    -0.381 C  
HETATM   24  C   UNL     1     -12.706  10.770  67.805  1.00  0.00     4.125 C  
HETATM   25  C   UNL     1     -13.129  14.390  67.502  1.00  0.00     2.504 C  
HETATM   26  C   UNL     1     -12.650  11.527  66.495  1.00  0.00     3.034 C  
ENDBRANCH   3  20
BRANCH   5  27
HETATM   27  O   UNL     1     -10.164  17.709  69.209  1.00  0.00    -0.303 OA 
BRANCH  27  28
HETATM   28  C   UNL     1      -9.514  18.790  69.709  1.00  0.00     0.710 C  
HETATM   29  C   UNL     1      -8.063  18.719  69.307  1.00  0.00     0.065 C  
HETATM   30  O   UNL     1     -10.072  19.762  70.192  1.00  0.00     0.084 OA 
ENDBRANCH  27  28
ENDBRANCH   5  27
BRANCH  10  31
HETATM   31  O   UNL     1      -5.185  10.499  70.209  1.00  0.00    -0.039 OA 
BRANCH  31  32
HETATM   32  C   UNL     1      -5.713   9.889  71.356  1.00  0.00    -0.030 C  
HETATM   33  C   UNL     1      -5.188   8.499  71.457  1.00  0.00    -0.034 C  
HETATM   34  O   UNL     1      -6.428  10.449  72.178  1.00  0.00     0.635 OA 
ENDBRANCH  31  32
ENDBRANCH  10  31
BRANCH   9  35
HETATM   35  N   UNL     1      -8.062   8.516  69.174  1.00  0.00    -0.115 N  
HETATM   36  C   UNL     1      -8.910   8.501  70.513  1.00  0.00    -0.154 C  
HETATM   37  C   UNL     1      -9.246   6.559  67.992  1.00  0.00    -0.111 C  
HETATM   38  C   UNL     1      -8.971   8.062  68.018  1.00  0.00    -0.130 C  
HETATM   39  C   UNL     1      -7.961   5.757  68.041  1.00  0.00    -0.101 C  
HETATM   40  C   UNL     1      -7.268   6.056  69.354  1.00  0.00    -0.074 C  
HETATM   41  C   UNL     1      -6.897   7.541  69.433  1.00  0.00    -0.048 C  
ENDBRANCH   9  35
TORSDOF 6
ENDMDL
MODEL       88
REMARK 921   NORMALIZED FREE ENERGY PREDICTED BY IDOCK:   14.02 KCAL/MOL
REMARK 922        TOTAL FREE ENERGY PREDICTED BY IDOCK:   17.35 KCAL/MOL
REMARK 923 INTER-LIGAND FREE ENERGY PREDICTED BY IDOCK:   17.04 KCAL/MOL
REMARK 924 INTRA-LIGAND FREE ENERGY PREDICTED BY IDOCK:    0.32 KCAL/MOL
REMARK 927      BINDING AFFINITY PREDICTED BY RF-SCORE:    0.00 PKD
ROOT
HETATM    1  C   UNL     1      -9.564  13.129  64.587  1.00  0.00     0.343 C  
HETATM    2  C   UNL     1      -8.517  12.308  65.198  1.00  0.00     1.565 C  
HETATM    3  C   UNL     1      -9.743  11.701  65.887  1.00  0.00    -0.235 C  
HETATM    4  C   UNL     1     -10.539  16.140  68.669  1.00  0.00    -0.283 C  
HETATM    5  C   UNL     1     -11.388  12.901  65.511  1.00  0.00    -0.307 C  
HETATM    6  C   UNL     1     -10.875  11.906  64.870  1.00  0.00    -0.356 C  
HETATM    7  C   UNL     1      -9.226  15.441  68.194  1.00  0.00    -0.186 C  
HETATM    8  C   UNL     1      -8.504  14.842  69.568  1.00  0.00     0.087 C  
HETATM    9  C   UNL     1      -7.000  15.178  69.768  1.00  0.00    -0.174 C  
HETATM   10  C   UNL     1      -6.864  16.691  69.484  1.00  0.00    -0.157 C  
HETATM   11  C   UNL     1      -6.876  16.686  67.948  1.00  0.00    -0.158 C  
HETATM   12  C   UNL     1     -11.392  10.987  63.769  1.00  0.00     0.327 C  
HETATM   13  C   UNL     1     -11.563  11.967  66.731  1.00  0.00    -0.341 C  
HETATM   14  C   UNL     1      -8.376  16.592  67.509  1.00  0.00    -0.179 C  
HETATM   15  C   UNL     1      -8.546  16.775  66.003  1.00  0.00    -0.213 C  
HETATM   16  C   UNL     1     -11.032  13.462  67.629  1.00  0.00    -0.277 C  
HETATM   17  C   UNL     1      -8.448  15.494  65.208  1.00  0.00     2.880 C  
HETATM   18  C   UNL     1      -9.650  14.244  67.184  1.00  0.00    -0.245 C  
HETATM   19  C   UNL     1      -9.589  14.554  65.599  1.00  0.00    -0.189 C  
ENDROOT
BRANCH   3  20
HETATM   20  N   UNL     1      -9.224  10.592  67.250  1.00  0.00    -0.143 N  
HETATM   21  C   UNL     1      -9.855  10.729  68.797  1.00  0.00    -0.200 C  
HETATM   22  C   UNL     1      -9.239   9.717  69.750  1.00  0.00    -0.237 C  
HETATM   23  C   UNL     1      -7.741  10.615  67.372  1.00  0.00    -0.106 C  
HETATM   24  C   UNL     1      -7.727   9.878  69.765  1.00  0.00    -0.159 C  
HETATM   25  C   UNL     1      -9.785   9.164  66.827  1.00  0.00    -0.210 C  
HETATM   26  C   UNL     1      -7.174   9.635  68.376  1.00  0.00    -0.074 C  
ENDBRANCH   3  20
BRANCH   5  27
HETATM   27  O   UNL     1     -12.876  12.406  64.961  1.00  0.00    -0.673 OA 
BRANCH  27  28
HETATM   28  C   UNL     1     -13.481  12.666  63.775  1.00  0.00     1.241 C  
HETATM   29  C   UNL     1     -13.127  14.064  63.338  1.00  0.00     1.845 C  
HETATM   30  O   UNL     1     -14.017  11.818  63.080  1.00  0.00     0.745 OA 
ENDBRANCH  27  28
ENDBRANCH   5  27
BRANCH  10  31
HETATM   31  O   UNL     1      -7.807  17.721  69.843  1.00  0.00     0.854 OA 
BRANCH  31  32
HETATM   32  C   UNL     1      -7.280  19.006  69.654  1.00  0.00     0.073 C  
HETATM   33  C   UNL     1      -8.287  19.848  68.949  1.00  0.00    -0.046 C  
HETATM   34  O   UNL     1      -6.195  19.386  70.076  1.00  0.00    -0.268 OA 
ENDBRANCH  31  32
ENDBRANCH  10  31
BRANCH   9  35
HETATM   35  N   UNL     1      -6.235  14.743  71.236  1.00  0.00     0.148 N  
HETATM   36  C   UNL     1      -5.142  13.630  70.954  1.00  0.00    -0.120 C  
HETATM   37  C   UNL     1      -5.147  15.774  73.329  1.00  0.00     1.952 C  
HETATM   38  C   UNL     1      -5.536  15.963  71.863  1.00  0.00     0.456 C  
HETATM   39  C   UNL     1      -6.327  15.314  74.163  1.00  0.00     3.107 C  
HETATM   40  C   UNL     1      -6.770  13.961  73.647  1.00  0.00     2.502 C  
HETATM   41  C   UNL     1      -7.241  14.075  72.193  1.00  0.00     4.445 C  
ENDBRANCH   9  35
TORSDOF 6
ENDMDL
MODEL       89
REMARK 921   NORMALIZED FREE ENERGY PREDICTED BY IDOCK:   14.47 KCAL/MOL
REMARK 922        TOTAL FREE ENERGY PREDICTED BY IDOCK:   17.96 KCAL/MOL
REMARK 923 INTER-LIGAND FREE ENERGY PREDICTED BY IDOCK:   12.90 KCAL/MOL
REMARK 924 INTRA-LIGAND FREE ENERGY PREDICTED BY IDOCK:    5.06 KCAL/MOL
REMARK 927      BINDING AFFINITY PREDICTED BY RF-SCORE:    0.00 PKD
ROOT
HETATM    1  C   UNL     1      -9.375   8.673  70.842  1.00  0.00    -0.235 C  
HETATM    2  C   UNL     1      -9.429  10.081  71.241  1.00  0.00     1.520 C  
HETATM    3  C   UNL     1     -10.927   9.760  71.260  1.00  0.00    -0.261 C  
HETATM    4  C   UNL     1     -11.023   9.280  65.984  1.00  0.00     1.343 C  
HETATM    5  C   UNL     1     -11.228   7.913  70.374  1.00  0.00    -0.234 C  
HETATM    6  C   UNL     1     -10.976   8.262  71.590  1.00  0.00    -0.327 C  
HETATM    7  C   UNL     1     -10.203  10.224  66.919  1.00  0.00    -0.286 C  
HETATM    8  C   UNL     1     -10.818  11.751  66.681  1.00  0.00    -0.318 C  
HETATM    9  C   UNL     1      -9.788  12.880  66.397  1.00  0.00    -0.268 C  
HETATM   10  C   UNL     1      -8.825  12.316  65.329  1.00  0.00     0.773 C  
HETATM   11  C   UNL     1      -7.929  11.428  66.205  1.00  0.00    -0.037 C  
HETATM   12  C   UNL     1     -11.095   7.549  72.933  1.00  0.00    -0.426 C  
HETATM   13  C   UNL     1     -12.500   8.792  70.433  1.00  0.00     0.503 C  
HETATM   14  C   UNL     1      -8.701  10.084  66.426  1.00  0.00    -0.140 C  
HETATM   15  C   UNL     1      -7.839   9.034  67.120  1.00  0.00    -0.099 C  
HETATM   16  C   UNL     1     -11.983   9.206  68.735  1.00  0.00     1.777 C  
HETATM   17  C   UNL     1      -7.903   9.078  68.629  1.00  0.00    -0.101 C  
HETATM   18  C   UNL     1     -10.444   9.726  68.445  1.00  0.00    -0.250 C  
HETATM   19  C   UNL     1      -9.324   8.761  69.097  1.00  0.00    -0.149 C  
ENDROOT
BRANCH   3  20
HETATM   20  N   UNL     1     -11.906  11.299  71.431  1.00  0.00     0.280 N  
HETATM   21  C   UNL     1     -13.578  11.305  71.317  1.00  0.00     0.479 C  
HETATM   22  C   UNL     1     -14.149  12.708  71.460  1.00  0.00     1.209 C  
HETATM   23  C   UNL     1     -11.393  12.323  70.479  1.00  0.00     0.845 C  
HETATM   24  C   UNL     1     -13.531  13.624  70.416  1.00  0.00     0.692 C  
HETATM   25  C   UNL     1     -11.711  11.719  72.953  1.00  0.00     7.670 C  
HETATM   26  C   UNL     1     -12.031  13.688  70.616  1.00  0.00    -0.328 C  
ENDBRANCH   3  20
BRANCH   5  27
HETATM   27  O   UNL     1     -12.115   6.648  70.988  1.00  0.00    -0.369 OA 
BRANCH  27  28
HETATM   28  C   UNL     1     -13.280   6.676  71.683  1.00  0.00    -0.026 C  
HETATM   29  C   UNL     1     -14.335   7.354  70.847  1.00  0.00     0.195 C  
HETATM   30  O   UNL     1     -13.481   6.042  72.705  1.00  0.00     0.392 OA 
ENDBRANCH  27  28
ENDBRANCH   5  27
BRANCH  10  31
HETATM   31  O   UNL     1      -9.178  11.472  64.213  1.00  0.00    -0.064 OA 
BRANCH  31  32
HETATM   32  C   UNL     1      -8.102  10.679  63.792  1.00  0.00     0.044 C  
HETATM   33  C   UNL     1      -8.347  10.224  62.395  1.00  0.00    -0.196 C  
HETATM   34  O   UNL     1      -7.091  10.465  64.450  1.00  0.00    -0.101 OA 
ENDBRANCH  31  32
ENDBRANCH  10  31
BRANCH   9  35
HETATM   35  N   UNL     1     -10.353  14.439  65.973  1.00  0.00    -0.297 N  
HETATM   36  C   UNL     1     -10.983  14.396  64.519  1.00  0.00    -0.276 C  
HETATM   37  C   UNL     1     -11.737  16.406  66.892  1.00  0.00     0.982 C  
HETATM   38  C   UNL     1     -11.438  14.908  66.959  1.00  0.00    -0.326 C  
HETATM   39  C   UNL     1     -10.472  17.232  67.016  1.00  0.00    -0.287 C  
HETATM   40  C   UNL     1      -9.579  16.907  65.836  1.00  0.00    -0.170 C  
HETATM   41  C   UNL     1      -9.178  15.429  65.865  1.00  0.00    -0.239 C  
ENDBRANCH   9  35
TORSDOF 6
ENDMDL
MODEL       90
REMARK 921   NORMALIZED FREE ENERGY PREDICTED BY IDOCK:   15.53 KCAL/MOL
REMARK 922        TOTAL FREE ENERGY PREDICTED BY IDOCK:   19.39 KCAL/MOL
REMARK 923 INTER-LIGAND FREE ENERGY PREDICTED BY IDOCK:   20.02 KCAL/MOL
REMARK 924 INTRA-LIGAND FREE ENERGY PREDICTED BY IDOCK:   -0.63 KCAL/MOL
REMARK 927      BINDING AFFINITY PREDICTED BY RF-SCORE:    0.00 PKD
ROOT
HETATM    1  C   UNL     1      -6.004  10.432  68.507  1.00  0.00    -0.043 C  
HETATM    2  C   UNL     1      -5.774  11.844  68.196  1.00  0.00    -0.048 C  
HETATM    3  C   UNL     1      -6.564  12.002  69.499  1.00  0.00    -0.079 C  
HETATM    4  C   UNL     1     -10.993  10.244  67.182  1.00  0.00    -0.233 C  
HETATM    5  C   UNL     1      -7.372  10.168  70.021  1.00  0.00    -0.165 C  
HETATM    6  C   UNL     1      -6.237  10.723  70.283  1.00  0.00    -0.146 C  
HETATM    7  C   UNL     1      -9.812  11.105  66.631  1.00  0.00    -0.231 C  
HETATM    8  C   UNL     1     -10.429  12.632  66.400  1.00  0.00    -0.267 C  
HETATM    9  C   UNL     1     -10.160  13.290  65.017  1.00  0.00    -0.227 C  
HETATM   10  C   UNL     1     -10.493  12.211  63.963  1.00  0.00    -0.386 C  
HETATM   11  C   UNL     1      -9.223  11.349  64.038  1.00  0.00     0.000 C  
HETATM   12  C   UNL     1      -5.144  10.446  71.311  1.00  0.00    -0.085 C  
HETATM   13  C   UNL     1      -8.066  11.372  70.700  1.00  0.00     4.188 C  
HETATM   14  C   UNL     1      -9.392  10.402  65.273  1.00  0.00    -0.263 C  
HETATM   15  C   UNL     1      -8.284   9.354  65.348  1.00  0.00    -0.126 C  
HETATM   16  C   UNL     1      -9.221  11.165  69.305  1.00  0.00     0.141 C  
HETATM   17  C   UNL     1      -7.063   9.799  66.118  1.00  0.00    -0.099 C  
HETATM   18  C   UNL     1      -8.646  11.108  67.759  1.00  0.00    -0.131 C  
HETATM   19  C   UNL     1      -7.436  10.051  67.580  1.00  0.00    -0.090 C  
ENDROOT
BRANCH   3  20
HETATM   20  N   UNL     1      -7.040  13.754  69.747  1.00  0.00     0.175 N  
HETATM   21  C   UNL     1      -8.607  14.292  69.498  1.00  0.00     0.524 C  
HETATM   22  C   UNL     1      -8.735  15.789  69.738  1.00  0.00     0.103 C  
HETATM   23  C   UNL     1      -6.138  14.631  68.953  1.00  0.00    -0.086 C  
HETATM   24  C   UNL     1      -7.756  16.538  68.849  1.00  0.00    -0.236 C  
HETATM   25  C   UNL     1      -6.895  13.979  71.316  1.00  0.00     1.558 C  
HETATM   26  C   UNL     1      -6.340  16.114  69.177  1.00  0.00    -0.159 C  
ENDBRANCH   3  20
BRANCH   5  27
HETATM   27  O   UNL     1      -7.280   9.427  71.506  1.00  0.00    -0.325 OA 
BRANCH  27  28
HETATM   28  C   UNL     1      -8.267   8.856  72.241  1.00  0.00     0.235 C  
HETATM   29  C   UNL     1      -7.748   8.581  73.630  1.00  0.00    -0.072 C  
HETATM   30  O   UNL     1      -9.435   8.804  71.895  1.00  0.00    -0.274 OA 
ENDBRANCH  27  28
ENDBRANCH   5  27
BRANCH  10  31
HETATM   31  O   UNL     1     -11.573  11.256  64.022  1.00  0.00    -0.173 OA 
BRANCH  31  32
HETATM   32  C   UNL     1     -12.826  11.882  64.082  1.00  0.00    -0.091 C  
HETATM   33  C   UNL     1     -13.284  12.193  62.699  1.00  0.00     1.596 C  
HETATM   34  O   UNL     1     -13.466  12.067  65.110  1.00  0.00     0.824 OA 
ENDBRANCH  31  32
ENDBRANCH  10  31
BRANCH   9  35
HETATM   35  N   UNL     1     -10.906  14.784  64.643  1.00  0.00    -0.350 N  
HETATM   36  C   UNL     1      -9.818  15.937  64.657  1.00  0.00     1.446 C  
HETATM   37  C   UNL     1     -12.535  15.865  62.969  1.00  0.00     4.431 C  
HETATM   38  C   UNL     1     -11.544  14.735  63.243  1.00  0.00     1.988 C  
HETATM   39  C   UNL     1     -13.584  15.964  64.059  1.00  0.00     3.551 C  
HETATM   40  C   UNL     1     -12.882  16.298  65.359  1.00  0.00     3.485 C  
HETATM   41  C   UNL     1     -11.911  15.177  65.743  1.00  0.00     0.165 C  
ENDBRANCH   9  35
TORSDOF 6
ENDMDL
MODEL       91
REMARK 921   NORMALIZED FREE ENERGY PREDICTED BY IDOCK:   15.62 KCAL/MOL
REMARK 922        TOTAL FREE ENERGY PREDICTED BY IDOCK:   19.51 KCAL/MOL
REMARK 923 INTER-LIGAND FREE ENERGY PREDICTED BY IDOCK:   19.51 KCAL/MOL
REMARK 924 INTRA-LIGAND FREE ENERGY PREDICTED BY IDOCK:    0.00 KCAL/MOL
REMARK 927      BINDING AFFINITY PREDICTED BY RF-SCORE:    0.00 PKD
ROOT
HETATM    1  C   UNL     1      -9.403  16.347  70.297  1.00  0.00     1.474 C  
HETATM    2  C   UNL     1      -8.009  16.025  69.983  1.00  0.00     0.768 C  
HETATM    3  C   UNL     1      -8.264  17.093  68.915  1.00  0.00    -0.192 C  
HETATM    4  C   UNL     1     -11.583  13.883  66.314  1.00  0.00    -0.378 C  
HETATM    5  C   UNL     1     -10.292  17.504  68.846  1.00  0.00    -0.338 C  
HETATM    6  C   UNL     1      -9.329  17.999  69.548  1.00  0.00     0.524 C  
HETATM    7  C   UNL     1     -10.280  13.585  67.122  1.00  0.00    -0.247 C  
HETATM    8  C   UNL     1      -9.140  13.132  66.000  1.00  0.00     0.191 C  
HETATM    9  C   UNL     1      -8.358  11.821  66.292  1.00  0.00     0.024 C  
HETATM   10  C   UNL     1      -9.421  10.777  66.701  1.00  0.00    -0.175 C  
HETATM   11  C   UNL     1      -9.677  11.198  68.156  1.00  0.00    -0.186 C  
HETATM   12  C   UNL     1      -9.180  19.270  70.376  1.00  0.00     1.648 C  
HETATM   13  C   UNL     1      -9.525  17.933  67.573  1.00  0.00    -0.258 C  
HETATM   14  C   UNL     1     -10.672  12.405  68.108  1.00  0.00    -0.243 C  
HETATM   15  C   UNL     1     -11.165  12.798  69.498  1.00  0.00    -0.147 C  
HETATM   16  C   UNL     1     -10.121  16.315  66.979  1.00  0.00    -0.270 C  
HETATM   17  C   UNL     1     -10.293  13.812  70.201  1.00  0.00     1.350 C  
HETATM   18  C   UNL     1      -9.851  14.957  67.876  1.00  0.00    -0.214 C  
HETATM   19  C   UNL     1     -10.296  15.127  69.420  1.00  0.00    -0.259 C  
ENDROOT
BRANCH   3  20
HETATM   20  N   UNL     1      -6.886  17.127  67.707  1.00  0.00    -0.149 N  
HETATM   21  C   UNL     1      -6.900  18.138  66.372  1.00  0.00    -0.265 C  
HETATM   22  C   UNL     1      -5.660  17.953  65.510  1.00  0.00    -0.130 C  
HETATM   23  C   UNL     1      -6.622  15.746  67.216  1.00  0.00    -0.134 C  
HETATM   24  C   UNL     1      -5.540  16.498  65.087  1.00  0.00     4.574 C  
HETATM   25  C   UNL     1      -5.664  17.733  68.527  1.00  0.00    -0.168 C  
HETATM   26  C   UNL     1      -5.414  15.618  66.313  1.00  0.00     2.802 C  
ENDBRANCH   3  20
BRANCH   5  27
HETATM   27  O   UNL     1     -11.005  19.005  68.881  1.00  0.00     0.686 OA 
BRANCH  27  28
HETATM   28  C   UNL     1     -10.830  20.057  68.042  1.00  0.00     0.093 C  
HETATM   29  C   UNL     1     -11.400  19.707  66.691  1.00  0.00     0.307 C  
HETATM   30  O   UNL     1     -10.488  21.171  68.403  1.00  0.00     0.537 OA 
ENDBRANCH  27  28
ENDBRANCH   5  27
BRANCH  10  31
HETATM   31  O   UNL     1     -10.740  10.627  66.137  1.00  0.00    -0.180 OA 
BRANCH  31  32
HETATM   32  C   UNL     1     -10.711   9.986  64.891  1.00  0.00     1.066 C  
HETATM   33  C   UNL     1     -10.908  10.998  63.816  1.00  0.00    -0.201 C  
HETATM   34  O   UNL     1     -10.480   8.795  64.723  1.00  0.00     2.725 OA 
ENDBRANCH  31  32
ENDBRANCH  10  31
BRANCH   9  35
HETATM   35  N   UNL     1      -7.293  11.201  65.104  1.00  0.00     0.441 N  
HETATM   36  C   UNL     1      -5.860  11.855  65.284  1.00  0.00     2.690 C  
HETATM   37  C   UNL     1      -6.532   8.988  64.031  1.00  0.00    -0.087 C  
HETATM   38  C   UNL     1      -7.153   9.675  65.247  1.00  0.00    -0.109 C  
HETATM   39  C   UNL     1      -7.250   9.366  62.751  1.00  0.00    -0.101 C  
HETATM   40  C   UNL     1      -7.091  10.858  62.544  1.00  0.00     0.016 C  
HETATM   41  C   UNL     1      -7.747  11.628  63.695  1.00  0.00     2.024 C  
ENDBRANCH   9  35
TORSDOF 6
ENDMDL
MODEL       92
REMARK 921   NORMALIZED FREE ENERGY PREDICTED BY IDOCK:   18.41 KCAL/MOL
REMARK 922        TOTAL FREE ENERGY PREDICTED BY IDOCK:   23.27 KCAL/MOL
REMARK 923 INTER-LIGAND FREE ENERGY PREDICTED BY IDOCK:   17.62 KCAL/MOL
REMARK 924 INTRA-LIGAND FREE ENERGY PREDICTED BY IDOCK:    5.65 KCAL/MOL
REMARK 927      BINDING AFFINITY PREDICTED BY RF-SCORE:    0.00 PKD
ROOT
HETATM    1  C   UNL     1     -13.562  15.462  70.657  1.00  0.00    -0.130 C  
HETATM    2  C   UNL     1     -13.931  14.126  70.185  1.00  0.00     2.057 C  
HETATM    3  C   UNL     1     -13.088  13.736  71.404  1.00  0.00    -0.337 C  
HETATM    4  C   UNL     1      -8.657  15.423  69.039  1.00  0.00    -0.227 C  
HETATM    5  C   UNL     1     -12.095  15.415  72.098  1.00  0.00    -0.407 C  
HETATM    6  C   UNL     1     -13.259  14.923  72.362  1.00  0.00    -0.476 C  
HETATM    7  C   UNL     1      -9.937  14.739  68.464  1.00  0.00    -0.228 C  
HETATM    8  C   UNL     1      -9.470  13.211  68.001  1.00  0.00    -0.220 C  
HETATM    9  C   UNL     1      -9.872  12.764  66.568  1.00  0.00    -0.258 C  
HETATM   10  C   UNL     1      -9.503  13.942  65.639  1.00  0.00     0.083 C  
HETATM   11  C   UNL     1     -10.687  14.885  65.905  1.00  0.00    -0.329 C  
HETATM   12  C   UNL     1     -14.264  15.149  73.486  1.00  0.00     2.330 C  
HETATM   13  C   UNL     1     -11.473  14.081  72.573  1.00  0.00     1.928 C  
HETATM   14  C   UNL     1     -10.368  15.646  67.236  1.00  0.00    -0.277 C  
HETATM   15  C   UNL     1     -11.373  16.760  67.515  1.00  0.00     0.226 C  
HETATM   16  C   UNL     1     -10.383  14.376  71.142  1.00  0.00     2.123 C  
HETATM   17  C   UNL     1     -12.585  16.316  68.302  1.00  0.00     1.823 C  
HETATM   18  C   UNL     1     -11.035  14.681  69.657  1.00  0.00    -0.255 C  
HETATM   19  C   UNL     1     -12.155  15.845  69.692  1.00  0.00    -0.216 C  
ENDROOT
BRANCH   3  20
HETATM   20  N   UNL     1     -12.754  11.934  71.397  1.00  0.00    -0.345 N  
HETATM   21  C   UNL     1     -11.655  11.231  72.448  1.00  0.00     4.748 C  
HETATM   22  C   UNL     1     -11.536   9.732  72.220  1.00  0.00     0.888 C  
HETATM   23  C   UNL     1     -12.391  11.501  70.020  1.00  0.00    -0.213 C  
HETATM   24  C   UNL     1     -11.153   9.460  70.774  1.00  0.00    -0.365 C  
HETATM   25  C   UNL     1     -14.113  11.284  71.909  1.00  0.00     1.004 C  
HETATM   26  C   UNL     1     -12.222  10.007  69.851  1.00  0.00     0.040 C  
ENDBRANCH   3  20
BRANCH   5  27
HETATM   27  O   UNL     1     -12.040  15.960  73.668  1.00  0.00    -0.443 OA 
BRANCH  27  28
HETATM   28  C   UNL     1     -12.327  17.192  74.158  1.00  0.00     0.284 C  
HETATM   29  C   UNL     1     -13.778  17.232  74.564  1.00  0.00     3.530 C  
HETATM   30  O   UNL     1     -11.486  18.030  74.439  1.00  0.00     0.349 OA 
ENDBRANCH  27  28
ENDBRANCH   5  27
BRANCH  10  31
HETATM   31  O   UNL     1      -8.342  14.791  65.746  1.00  0.00     1.103 OA 
BRANCH  31  32
HETATM   32  C   UNL     1      -8.658  16.143  65.548  1.00  0.00     1.040 C  
HETATM   33  C   UNL     1      -7.546  16.986  66.067  1.00  0.00    -0.138 C  
HETATM   34  O   UNL     1      -9.657  16.549  64.967  1.00  0.00     0.101 OA 
ENDBRANCH  31  32
ENDBRANCH  10  31
BRANCH   9  35
HETATM   35  N   UNL     1      -9.281  11.277  65.960  1.00  0.00    -0.204 N  
HETATM   36  C   UNL     1      -9.746  10.095  66.909  1.00  0.00    -0.187 C  
HETATM   37  C   UNL     1      -9.090   9.918  63.782  1.00  0.00    -0.293 C  
HETATM   38  C   UNL     1      -9.833  11.013  64.548  1.00  0.00    -0.290 C  
HETATM   39  C   UNL     1      -7.595  10.169  63.761  1.00  0.00    -0.133 C  
HETATM   40  C   UNL     1      -7.091  10.129  65.189  1.00  0.00    -0.137 C  
HETATM   41  C   UNL     1      -7.742  11.243  66.014  1.00  0.00     0.070 C  
ENDBRANCH   9  35
TORSDOF 6
ENDMDL
MODEL       93
REMARK 921   NORMALIZED FREE ENERGY PREDICTED BY IDOCK:   19.66 KCAL/MOL
REMARK 922        TOTAL FREE ENERGY PREDICTED BY IDOCK:   24.96 KCAL/MOL
REMARK 923 INTER-LIGAND FREE ENERGY PREDICTED BY IDOCK:   11.70 KCAL/MOL
REMARK 924 INTRA-LIGAND FREE ENERGY PREDICTED BY IDOCK:   13.26 KCAL/MOL
REMARK 927      BINDING AFFINITY PREDICTED BY RF-SCORE:    0.00 PKD
ROOT
HETATM    1  C   UNL     1      -6.040   5.333  69.289  1.00  0.00    -0.025 C  
HETATM    2  C   UNL     1      -5.464   6.539  68.691  1.00  0.00    -0.016 C  
HETATM    3  C   UNL     1      -6.272   7.183  69.822  1.00  0.00    -0.031 C  
HETATM    4  C   UNL     1     -10.842   5.895  67.470  1.00  0.00    -0.335 C  
HETATM    5  C   UNL     1      -7.521   5.756  70.653  1.00  0.00    -0.086 C  
HETATM    6  C   UNL     1      -6.305   6.102  70.911  1.00  0.00    -0.040 C  
HETATM    7  C   UNL     1      -9.459   6.317  66.878  1.00  0.00    -0.157 C  
HETATM    8  C   UNL     1      -9.683   7.833  66.232  1.00  0.00    -0.149 C  
HETATM    9  C   UNL     1      -9.181   8.051  64.777  1.00  0.00     0.920 C  
HETATM   10  C   UNL     1      -9.696   6.840  63.967  1.00  0.00     3.681 C  
HETATM   11  C   UNL     1      -8.673   5.773  64.385  1.00  0.00     0.139 C  
HETATM   12  C   UNL     1      -5.374   5.862  72.095  1.00  0.00    -0.022 C  
HETATM   13  C   UNL     1      -7.951   7.211  70.952  1.00  0.00    -0.096 C  
HETATM   14  C   UNL     1      -9.136   5.223  65.776  1.00  0.00    -0.161 C  
HETATM   15  C   UNL     1      -8.314   4.015  66.218  1.00  0.00    -0.105 C  
HETATM   16  C   UNL     1      -9.035   6.915  69.517  1.00  0.00    -0.143 C  
HETATM   17  C   UNL     1      -7.071   4.366  67.002  1.00  0.00    -0.068 C  
HETATM   18  C   UNL     1      -8.396   6.351  68.104  1.00  0.00    -0.116 C  
HETATM   19  C   UNL     1      -7.462   5.049  68.313  1.00  0.00    -0.075 C  
ENDROOT
BRANCH   3  20
HETATM   20  N   UNL     1      -6.335   9.002  69.605  1.00  0.00    -0.039 N  
HETATM   21  C   UNL     1      -6.001   9.733  68.135  1.00  0.00    -0.046 C  
HETATM   22  C   UNL     1      -6.088  11.249  68.225  1.00  0.00    -0.045 C  
HETATM   23  C   UNL     1      -5.476   9.655  70.631  1.00  0.00    -0.049 C  
HETATM   24  C   UNL     1      -5.149  11.755  69.308  1.00  0.00    -0.052 C  
HETATM   25  C   UNL     1      -7.876   9.362  69.772  1.00  0.00    -0.115 C  
HETATM   26  C   UNL     1      -5.547  11.166  70.645  1.00  0.00    -0.131 C  
ENDBRANCH   3  20
BRANCH   5  27
HETATM   27  O   UNL     1      -7.697   5.407  72.269  1.00  0.00    -0.098 OA 
BRANCH  27  28
HETATM   28  C   UNL     1      -8.834   5.238  72.990  1.00  0.00    -0.116 C  
HETATM   29  C   UNL     1      -9.856   4.531  72.137  1.00  0.00    -0.237 C  
HETATM   30  O   UNL     1      -8.913   5.415  74.194  1.00  0.00    -0.119 OA 
ENDBRANCH  27  28
ENDBRANCH   5  27
BRANCH  10  31
HETATM   31  O   UNL     1     -10.972   6.185  64.117  1.00  0.00     5.726 OA 
BRANCH  31  32
HETATM   32  C   UNL     1     -10.849   4.919  64.704  1.00  0.00     0.733 C  
HETATM   33  C   UNL     1     -10.341   3.955  63.688  1.00  0.00    -0.200 C  
HETATM   34  O   UNL     1     -11.054   4.674  65.887  1.00  0.00    -0.068 OA 
ENDBRANCH  31  32
ENDBRANCH  10  31
BRANCH   9  35
HETATM   35  N   UNL     1      -9.529   9.528  63.986  1.00  0.00     0.037 N  
HETATM   36  C   UNL     1      -9.262   9.372  62.431  1.00  0.00    -0.075 C  
HETATM   37  C   UNL     1     -11.319  11.373  63.846  1.00  0.00    -0.302 C  
HETATM   38  C   UNL     1     -11.004   9.917  64.189  1.00  0.00     3.488 C  
HETATM   39  C   UNL     1     -10.385  12.329  64.561  1.00  0.00    -0.339 C  
HETATM   40  C   UNL     1      -8.975  12.057  64.080  1.00  0.00     0.734 C  
HETATM   41  C   UNL     1      -8.554  10.630  64.444  1.00  0.00    -0.106 C  
ENDBRANCH   9  35
TORSDOF 6
ENDMDL
MODEL       94
REMARK 921   NORMALIZED FREE ENERGY PREDICTED BY IDOCK:   21.21 KCAL/MOL
REMARK 922        TOTAL FREE ENERGY PREDICTED BY IDOCK:   27.05 KCAL/MOL
REMARK 923 INTER-LIGAND FREE ENERGY PREDICTED BY IDOCK:   25.52 KCAL/MOL
REMARK 924 INTRA-LIGAND FREE ENERGY PREDICTED BY IDOCK:    1.53 KCAL/MOL
REMARK 927      BINDING AFFINITY PREDICTED BY RF-SCORE:    0.00 PKD
ROOT
HETATM    1  C   UNL     1     -11.095  15.751  72.024  1.00  0.00     0.037 C  
HETATM    2  C   UNL     1      -9.750  15.400  72.484  1.00  0.00     5.547 C  
HETATM    3  C   UNL     1      -9.410  15.889  71.073  1.00  0.00     2.832 C  
HETATM    4  C   UNL     1     -11.823  11.700  68.902  1.00  0.00    -0.392 C  
HETATM    5  C   UNL     1     -11.167  16.121  70.001  1.00  0.00    -0.357 C  
HETATM    6  C   UNL     1     -10.505  16.921  70.768  1.00  0.00     1.217 C  
HETATM    7  C   UNL     1     -11.004  11.849  70.223  1.00  0.00     0.855 C  
HETATM    8  C   UNL     1      -9.584  11.019  69.976  1.00  0.00     1.074 C  
HETATM    9  C   UNL     1      -9.169  10.005  71.078  1.00  0.00     1.179 C  
HETATM   10  C   UNL     1     -10.438   9.183  71.396  1.00  0.00    -0.344 C  
HETATM   11  C   UNL     1     -11.192  10.175  72.295  1.00  0.00     2.269 C  
HETATM   12  C   UNL     1     -10.527  18.431  70.979  1.00  0.00     2.672 C  
HETATM   13  C   UNL     1      -9.906  16.001  69.114  1.00  0.00    -0.247 C  
HETATM   14  C   UNL     1     -11.912  11.189  71.344  1.00  0.00     0.087 C  
HETATM   15  C   UNL     1     -12.859  12.115  72.103  1.00  0.00    -0.128 C  
HETATM   16  C   UNL     1     -10.430  14.256  69.050  1.00  0.00    -0.212 C  
HETATM   17  C   UNL     1     -12.209  13.377  72.618  1.00  0.00     0.992 C  
HETATM   18  C   UNL     1     -10.727  13.432  70.448  1.00  0.00     1.642 C  
HETATM   19  C   UNL     1     -11.723  14.226  71.443  1.00  0.00    -0.029 C  
ENDROOT
BRANCH   3  20
HETATM   20  N   UNL     1      -7.675  15.474  70.655  1.00  0.00     1.219 N  
HETATM   21  C   UNL     1      -7.119  15.466  69.074  1.00  0.00    -0.144 C  
HETATM   22  C   UNL     1      -5.656  15.057  68.992  1.00  0.00    -0.097 C  
HETATM   23  C   UNL     1      -7.319  14.160  71.258  1.00  0.00     2.855 C  
HETATM   24  C   UNL     1      -5.464  13.696  69.642  1.00  0.00    -0.091 C  
HETATM   25  C   UNL     1      -6.829  16.678  71.261  1.00  0.00     3.661 C  
HETATM   26  C   UNL     1      -5.867  13.765  71.100  1.00  0.00    -0.172 C  
ENDBRANCH   3  20
BRANCH   5  27
HETATM   27  O   UNL     1     -11.623  17.451  69.115  1.00  0.00     0.910 OA 
BRANCH  27  28
HETATM   28  C   UNL     1     -11.129  17.905  67.936  1.00  0.00     0.107 C  
HETATM   29  C   UNL     1     -10.941  16.739  67.000  1.00  0.00     0.043 C  
HETATM   30  O   UNL     1     -11.082  19.083  67.622  1.00  0.00    -0.340 OA 
ENDBRANCH  27  28
ENDBRANCH   5  27
BRANCH  10  31
HETATM   31  O   UNL     1     -11.431   8.735  70.450  1.00  0.00    -0.240 OA 
BRANCH  31  32
HETATM   32  C   UNL     1     -10.911   7.801  69.544  1.00  0.00    -0.153 C  
HETATM   33  C   UNL     1     -10.346   8.521  68.369  1.00  0.00    -0.241 C  
HETATM   34  O   UNL     1     -10.864   6.592  69.736  1.00  0.00    -0.239 OA 
ENDBRANCH  31  32
ENDBRANCH  10  31
BRANCH   9  35
HETATM   35  N   UNL     1      -7.815   8.992  70.815  1.00  0.00    -0.123 N  
HETATM   36  C   UNL     1      -8.019   7.623  71.588  1.00  0.00    -0.091 C  
HETATM   37  C   UNL     1      -6.287   8.108  68.941  1.00  0.00    -0.040 C  
HETATM   38  C   UNL     1      -7.652   8.685  69.316  1.00  0.00    -0.094 C  
HETATM   39  C   UNL     1      -5.155   8.971  69.461  1.00  0.00    -0.035 C  
HETATM   40  C   UNL     1      -5.229   8.983  70.974  1.00  0.00    -0.029 C  
HETATM   41  C   UNL     1      -6.548   9.611  71.437  1.00  0.00     0.160 C  
ENDBRANCH   9  35
TORSDOF 6
ENDMDL
MODEL       95
REMARK 921   NORMALIZED FREE ENERGY PREDICTED BY IDOCK:   21.25 KCAL/MOL
REMARK 922        TOTAL FREE ENERGY PREDICTED BY IDOCK:   27.11 KCAL/MOL
REMARK 923 INTER-LIGAND FREE ENERGY PREDICTED BY IDOCK:   24.56 KCAL/MOL
REMARK 924 INTRA-LIGAND FREE ENERGY PREDICTED BY IDOCK:    2.55 KCAL/MOL
REMARK 927      BINDING AFFINITY PREDICTED BY RF-SCORE:    0.00 PKD
ROOT
HETATM    1  C   UNL     1      -9.817  13.363  64.657  1.00  0.00     0.021 C  
HETATM    2  C   UNL     1      -8.558  12.965  65.291  1.00  0.00     2.019 C  
HETATM    3  C   UNL     1      -9.545  12.323  66.272  1.00  0.00    -0.242 C  
HETATM    4  C   UNL     1     -11.121  17.078  68.000  1.00  0.00    -0.149 C  
HETATM    5  C   UNL     1     -11.451  13.018  65.857  1.00  0.00    -0.337 C  
HETATM    6  C   UNL     1     -10.775  12.016  65.406  1.00  0.00    -0.330 C  
HETATM    7  C   UNL     1      -9.726  16.564  67.524  1.00  0.00    -0.242 C  
HETATM    8  C   UNL     1      -8.770  16.510  68.884  1.00  0.00    -0.247 C  
HETATM    9  C   UNL     1      -7.376  17.188  68.783  1.00  0.00    -0.241 C  
HETATM   10  C   UNL     1      -7.622  18.567  68.130  1.00  0.00    -0.274 C  
HETATM   11  C   UNL     1      -7.763  18.154  66.657  1.00  0.00    -0.264 C  
HETATM   12  C   UNL     1     -11.154  10.753  64.640  1.00  0.00     0.313 C  
HETATM   13  C   UNL     1     -11.298  12.424  67.277  1.00  0.00    -0.384 C  
HETATM   14  C   UNL     1      -9.231  17.642  66.470  1.00  0.00    -0.286 C  
HETATM   15  C   UNL     1      -9.565  17.382  65.003  1.00  0.00     2.172 C  
HETATM   16  C   UNL     1     -11.059  14.179  67.708  1.00  0.00    -0.292 C  
HETATM   17  C   UNL     1      -9.237  15.985  64.532  1.00  0.00     4.262 C  
HETATM   18  C   UNL     1      -9.941  15.082  66.898  1.00  0.00    -0.247 C  
HETATM   19  C   UNL     1     -10.089  14.968  65.293  1.00  0.00    -0.378 C  
ENDROOT
BRANCH   3  20
HETATM   20  N   UNL     1      -8.667  11.745  67.772  1.00  0.00    -0.149 N  
HETATM   21  C   UNL     1      -7.638  12.743  68.640  1.00  0.00    -0.085 C  
HETATM   22  C   UNL     1      -7.008  12.017  69.820  1.00  0.00     0.270 C  
HETATM   23  C   UNL     1      -7.916  10.498  67.459  1.00  0.00    -0.107 C  
HETATM   24  C   UNL     1      -6.277  10.777  69.331  1.00  0.00    -0.059 C  
HETATM   25  C   UNL     1      -9.825  11.514  68.838  1.00  0.00    -0.075 C  
HETATM   26  C   UNL     1      -7.255   9.842  68.652  1.00  0.00    -0.073 C  
ENDBRANCH   3  20
BRANCH   5  27
HETATM   27  O   UNL     1     -12.823  12.101  65.658  1.00  0.00     0.062 OA 
BRANCH  27  28
HETATM   28  C   UNL     1     -13.558  11.892  64.537  1.00  0.00     2.079 C  
HETATM   29  C   UNL     1     -13.011  12.748  63.424  1.00  0.00     0.218 C  
HETATM   30  O   UNL     1     -14.364  10.985  64.406  1.00  0.00     3.799 OA 
ENDBRANCH  27  28
ENDBRANCH   5  27
BRANCH  10  31
HETATM   31  O   UNL     1      -8.747  19.439  68.364  1.00  0.00    -0.336 OA 
BRANCH  31  32
HETATM   32  C   UNL     1      -8.686  20.599  67.578  1.00  0.00    -0.165 C  
HETATM   33  C   UNL     1      -7.348  21.232  67.745  1.00  0.00     0.154 C  
HETATM   34  O   UNL     1      -9.570  20.977  66.820  1.00  0.00    -0.107 OA 
ENDBRANCH  31  32
ENDBRANCH  10  31
BRANCH   9  35
HETATM   35  N   UNL     1      -6.409  17.323  70.189  1.00  0.00     0.072 N  
HETATM   36  C   UNL     1      -5.257  16.234  70.145  1.00  0.00    -0.168 C  
HETATM   37  C   UNL     1      -5.187  19.063  71.641  1.00  0.00    -0.316 C  
HETATM   38  C   UNL     1      -5.758  18.716  70.266  1.00  0.00    -0.210 C  
HETATM   39  C   UNL     1      -6.213  18.863  72.737  1.00  0.00     2.905 C  
HETATM   40  C   UNL     1      -6.586  17.395  72.772  1.00  0.00     6.127 C  
HETATM   41  C   UNL     1      -7.230  16.978  71.446  1.00  0.00     5.849 C  
ENDBRANCH   9  35
TORSDOF 6
ENDMDL
MODEL       96
REMARK 921   NORMALIZED FREE ENERGY PREDICTED BY IDOCK:   21.26 KCAL/MOL
REMARK 922        TOTAL FREE ENERGY PREDICTED BY IDOCK:   27.12 KCAL/MOL
REMARK 923 INTER-LIGAND FREE ENERGY PREDICTED BY IDOCK:   16.08 KCAL/MOL
REMARK 924 INTRA-LIGAND FREE ENERGY PREDICTED BY IDOCK:   11.04 KCAL/MOL
REMARK 927      BINDING AFFINITY PREDICTED BY RF-SCORE:    0.00 PKD
ROOT
HETATM    1  C   UNL     1      -9.757   9.734  69.704  1.00  0.00    -0.242 C  
HETATM    2  C   UNL     1      -9.483  11.020  70.349  1.00  0.00     2.236 C  
HETATM    3  C   UNL     1     -10.978  10.899  70.661  1.00  0.00     0.495 C  
HETATM    4  C   UNL     1     -12.231  11.567  65.556  1.00  0.00     1.084 C  
HETATM    5  C   UNL     1     -11.770   9.338  69.556  1.00  0.00     0.484 C  
HETATM    6  C   UNL     1     -11.218   9.384  70.721  1.00  0.00    -0.367 C  
HETATM    7  C   UNL     1     -11.086  12.177  66.426  1.00  0.00    -0.358 C  
HETATM    8  C   UNL     1     -11.462  13.786  66.614  1.00  0.00    -0.362 C  
HETATM    9  C   UNL     1     -10.331  14.806  66.302  1.00  0.00    -0.297 C  
HETATM   10  C   UNL     1      -9.720  14.361  64.955  1.00  0.00     0.313 C  
HETATM   11  C   UNL     1      -8.832  13.199  65.424  1.00  0.00     1.375 C  
HETATM   12  C   UNL     1     -11.183   8.424  71.906  1.00  0.00    -0.379 C  
HETATM   13  C   UNL     1     -12.830  10.341  70.068  1.00  0.00     0.071 C  
HETATM   14  C   UNL     1      -9.765  11.951  65.577  1.00  0.00    -0.237 C  
HETATM   15  C   UNL     1      -8.975  10.674  65.851  1.00  0.00    -0.192 C  
HETATM   16  C   UNL     1     -12.607  11.036  68.397  1.00  0.00     1.392 C  
HETATM   17  C   UNL     1      -8.720  10.405  67.315  1.00  0.00    -0.125 C  
HETATM   18  C   UNL     1     -11.093  11.401  67.851  1.00  0.00    -0.320 C  
HETATM   19  C   UNL     1     -10.049  10.183  68.039  1.00  0.00    -0.186 C  
ENDROOT
BRANCH   3  20
HETATM   20  N   UNL     1     -11.619  12.481  71.328  1.00  0.00     1.409 N  
HETATM   21  C   UNL     1     -12.342  12.581  72.836  1.00  0.00     3.279 C  
HETATM   22  C   UNL     1     -12.818  13.993  73.142  1.00  0.00    -0.143 C  
HETATM   23  C   UNL     1     -12.556  13.091  70.345  1.00  0.00    -0.095 C  
HETATM   24  C   UNL     1     -13.769  14.463  72.052  1.00  0.00    -0.533 C  
HETATM   25  C   UNL     1     -10.315  13.362  71.565  1.00  0.00     7.244 C  
HETATM   26  C   UNL     1     -13.053  14.471  70.718  1.00  0.00    -0.363 C  
ENDBRANCH   3  20
BRANCH   5  27
HETATM   27  O   UNL     1     -12.719   8.097  70.125  1.00  0.00     0.860 OA 
BRANCH  27  28
HETATM   28  C   UNL     1     -13.561   8.082  71.189  1.00  0.00    -0.029 C  
HETATM   29  C   UNL     1     -14.140   6.698  71.337  1.00  0.00     0.072 C  
HETATM   30  O   UNL     1     -13.637   8.976  72.015  1.00  0.00    -0.385 OA 
ENDBRANCH  27  28
ENDBRANCH   5  27
BRANCH  10  31
HETATM   31  O   UNL     1     -10.434  13.827  63.822  1.00  0.00     0.177 OA 
BRANCH  31  32
HETATM   32  C   UNL     1     -11.806  14.112  63.881  1.00  0.00    -0.177 C  
HETATM   33  C   UNL     1     -12.575  12.841  63.775  1.00  0.00    -0.387 C  
HETATM   34  O   UNL     1     -12.280  15.225  64.071  1.00  0.00    -0.625 OA 
ENDBRANCH  31  32
ENDBRANCH  10  31
BRANCH   9  35
HETATM   35  N   UNL     1     -10.691  16.479  66.307  1.00  0.00    -0.210 N  
HETATM   36  C   UNL     1     -11.379  16.876  64.935  1.00  0.00     0.286 C  
HETATM   37  C   UNL     1     -11.750  18.314  67.770  1.00  0.00     1.710 C  
HETATM   38  C   UNL     1     -11.659  16.821  67.454  1.00  0.00     0.664 C  
HETATM   39  C   UNL     1     -10.379  18.920  67.995  1.00  0.00    -0.457 C  
HETATM   40  C   UNL     1      -9.589  18.788  66.710  1.00  0.00    -0.342 C  
HETATM   41  C   UNL     1      -9.395  17.311  66.353  1.00  0.00    -0.258 C  
ENDBRANCH   9  35
TORSDOF 6
ENDMDL
MODEL       97
REMARK 921   NORMALIZED FREE ENERGY PREDICTED BY IDOCK:   22.29 KCAL/MOL
REMARK 922        TOTAL FREE ENERGY PREDICTED BY IDOCK:   28.52 KCAL/MOL
REMARK 923 INTER-LIGAND FREE ENERGY PREDICTED BY IDOCK:   19.51 KCAL/MOL
REMARK 924 INTRA-LIGAND FREE ENERGY PREDICTED BY IDOCK:    9.00 KCAL/MOL
REMARK 927      BINDING AFFINITY PREDICTED BY RF-SCORE:    0.00 PKD
ROOT
HETATM    1  C   UNL     1      -7.723   9.946  67.213  1.00  0.00    -0.095 C  
HETATM    2  C   UNL     1      -7.403  10.345  68.586  1.00  0.00    -0.085 C  
HETATM    3  C   UNL     1      -8.300   9.138  68.880  1.00  0.00    -0.124 C  
HETATM    4  C   UNL     1     -12.573  11.719  67.102  1.00  0.00     2.247 C  
HETATM    5  C   UNL     1      -9.234   8.552  67.127  1.00  0.00    -0.142 C  
HETATM    6  C   UNL     1      -8.104   8.228  67.660  1.00  0.00    -0.126 C  
HETATM    7  C   UNL     1     -11.310  12.221  67.871  1.00  0.00    -0.356 C  
HETATM    8  C   UNL     1     -11.834  12.631  69.395  1.00  0.00    -0.356 C  
HETATM    9  C   UNL     1     -11.410  14.029  69.925  1.00  0.00    -0.145 C  
HETATM   10  C   UNL     1     -11.693  15.021  68.775  1.00  0.00    -0.334 C  
HETATM   11  C   UNL     1     -10.476  14.758  67.876  1.00  0.00    -0.246 C  
HETATM   12  C   UNL     1      -7.124   7.083  67.428  1.00  0.00    -0.088 C  
HETATM   13  C   UNL     1      -9.933   8.039  68.408  1.00  0.00    -0.204 C  
HETATM   14  C   UNL     1     -10.799  13.474  67.041  1.00  0.00    -0.287 C  
HETATM   15  C   UNL     1      -9.751  13.211  65.963  1.00  0.00    -0.234 C  
HETATM   16  C   UNL     1     -10.963   9.517  68.130  1.00  0.00    -0.144 C  
HETATM   17  C   UNL     1      -8.587  12.367  66.425  1.00  0.00     0.076 C  
HETATM   18  C   UNL     1     -10.252  10.991  67.923  1.00  0.00    -0.207 C  
HETATM   19  C   UNL     1      -9.080  10.971  66.811  1.00  0.00    -0.172 C  
ENDROOT
BRANCH   3  20
HETATM   20  N   UNL     1      -8.719   9.076  70.663  1.00  0.00    -0.193 N  
HETATM   21  C   UNL     1      -9.498   7.759  71.347  1.00  0.00    -0.173 C  
HETATM   22  C   UNL     1      -9.760   7.967  72.831  1.00  0.00    -0.339 C  
HETATM   23  C   UNL     1      -9.492  10.292  71.035  1.00  0.00     1.860 C  
HETATM   24  C   UNL     1     -10.563   9.241  73.038  1.00  0.00     2.568 C  
HETATM   25  C   UNL     1      -7.307   8.997  71.393  1.00  0.00    -0.036 C  
HETATM   26  C   UNL     1      -9.784  10.428  72.514  1.00  0.00     8.520 C  
ENDBRANCH   3  20
BRANCH   5  27
HETATM   27  O   UNL     1      -9.312   7.011  66.509  1.00  0.00    -0.160 OA 
BRANCH  27  28
HETATM   28  C   UNL     1     -10.036   6.543  65.462  1.00  0.00     1.344 C  
HETATM   29  C   UNL     1      -9.149   6.467  64.246  1.00  0.00     1.111 C  
HETATM   30  O   UNL     1     -11.146   6.046  65.565  1.00  0.00     1.417 OA 
ENDBRANCH  27  28
ENDBRANCH   5  27
BRANCH  10  31
HETATM   31  O   UNL     1     -12.816  14.989  67.870  1.00  0.00     0.935 OA 
BRANCH  31  32
HETATM   32  C   UNL     1     -12.417  14.769  66.544  1.00  0.00     0.273 C  
HETATM   33  C   UNL     1     -11.333  15.728  66.194  1.00  0.00     0.143 C  
HETATM   34  O   UNL     1     -12.845  13.874  65.825  1.00  0.00    -0.501 OA 
ENDBRANCH  31  32
ENDBRANCH  10  31
BRANCH   9  35
HETATM   35  N   UNL     1     -12.051  14.589  71.410  1.00  0.00    -0.354 N  
HETATM   36  C   UNL     1     -11.768  13.520  72.546  1.00  0.00     2.484 C  
HETATM   37  C   UNL     1     -12.138  16.677  72.913  1.00  0.00    -0.330 C  
HETATM   38  C   UNL     1     -11.390  15.918  71.818  1.00  0.00    -0.251 C  
HETATM   39  C   UNL     1     -13.601  16.864  72.563  1.00  0.00     3.126 C  
HETATM   40  C   UNL     1     -14.239  15.494  72.460  1.00  0.00    -0.502 C  
HETATM   41  C   UNL     1     -13.587  14.686  71.334  1.00  0.00    -0.404 C  
ENDBRANCH   9  35
TORSDOF 6
ENDMDL
MODEL       98
REMARK 921   NORMALIZED FREE ENERGY PREDICTED BY IDOCK:   22.36 KCAL/MOL
REMARK 922        TOTAL FREE ENERGY PREDICTED BY IDOCK:   28.61 KCAL/MOL
REMARK 923 INTER-LIGAND FREE ENERGY PREDICTED BY IDOCK:   16.66 KCAL/MOL
REMARK 924 INTRA-LIGAND FREE ENERGY PREDICTED BY IDOCK:   11.96 KCAL/MOL
REMARK 927      BINDING AFFINITY PREDICTED BY RF-SCORE:    0.00 PKD
ROOT
HETATM    1  C   UNL     1      -7.629   9.202  68.985  1.00  0.00    -0.074 C  
HETATM    2  C   UNL     1      -8.181   9.826  70.190  1.00  0.00    -0.202 C  
HETATM    3  C   UNL     1      -9.439   9.116  69.679  1.00  0.00    -0.172 C  
HETATM    4  C   UNL     1      -9.761  12.395  65.529  1.00  0.00    -0.150 C  
HETATM    5  C   UNL     1      -9.087   8.425  67.759  1.00  0.00    -0.135 C  
HETATM    6  C   UNL     1      -8.891   7.899  68.921  1.00  0.00    -0.142 C  
HETATM    7  C   UNL     1      -9.289  12.633  66.999  1.00  0.00    -0.220 C  
HETATM    8  C   UNL     1     -10.453  13.590  67.703  1.00  0.00    -0.239 C  
HETATM    9  C   UNL     1      -9.953  14.853  68.457  1.00  0.00    -0.223 C  
HETATM   10  C   UNL     1      -8.936  15.534  67.514  1.00  0.00    -0.189 C  
HETATM   11  C   UNL     1      -7.704  14.647  67.750  1.00  0.00    -0.169 C  
HETATM   12  C   UNL     1      -8.625   6.475  69.397  1.00  0.00    -0.134 C  
HETATM   13  C   UNL     1     -10.588   8.542  68.116  1.00  0.00    -0.181 C  
HETATM   14  C   UNL     1      -7.891  13.370  66.863  1.00  0.00     0.230 C  
HETATM   15  C   UNL     1      -6.642  12.491  66.853  1.00  0.00     0.241 C  
HETATM   16  C   UNL     1     -10.402  10.146  67.269  1.00  0.00    -0.291 C  
HETATM   17  C   UNL     1      -6.599  11.464  67.959  1.00  0.00    -0.058 C  
HETATM   18  C   UNL     1      -9.202  11.183  67.723  1.00  0.00    -0.153 C  
HETATM   19  C   UNL     1      -7.753  10.473  67.792  1.00  0.00    -0.093 C  
ENDROOT
BRANCH   3  20
HETATM   20  N   UNL     1     -10.911   9.681  70.612  1.00  0.00    -0.293 N  
HETATM   21  C   UNL     1     -11.522   8.820  71.914  1.00  0.00    -0.428 C  
HETATM   22  C   UNL     1     -12.765   9.479  72.494  1.00  0.00    -0.207 C  
HETATM   23  C   UNL     1     -12.038   9.915  69.667  1.00  0.00     0.286 C  
HETATM   24  C   UNL     1     -13.816   9.638  71.408  1.00  0.00    -0.184 C  
HETATM   25  C   UNL     1     -10.428  11.012  71.337  1.00  0.00     4.271 C  
HETATM   26  C   UNL     1     -13.276  10.515  70.297  1.00  0.00     0.104 C  
ENDBRANCH   3  20
BRANCH   5  27
HETATM   27  O   UNL     1      -9.378   6.893  67.185  1.00  0.00    -0.133 OA 
BRANCH  27  28
HETATM   28  C   UNL     1     -10.529   6.364  66.699  1.00  0.00    -0.170 C  
HETATM   29  C   UNL     1     -11.690   7.202  67.167  1.00  0.00     1.503 C  
HETATM   30  O   UNL     1     -10.575   5.501  65.837  1.00  0.00    -0.031 OA 
ENDBRANCH  27  28
ENDBRANCH   5  27
BRANCH  10  31
HETATM   31  O   UNL     1      -9.030  15.636  66.079  1.00  0.00    -0.334 OA 
BRANCH  31  32
HETATM   32  C   UNL     1     -10.361  15.638  65.637  1.00  0.00    -0.385 C  
HETATM   33  C   UNL     1     -11.017  14.368  66.056  1.00  0.00    -0.316 C  
HETATM   34  O   UNL     1     -10.907  16.574  65.067  1.00  0.00    -0.622 OA 
ENDBRANCH  31  32
ENDBRANCH  10  31
BRANCH   9  35
HETATM   35  N   UNL     1     -11.098  15.974  69.059  1.00  0.00    -0.297 N  
HETATM   36  C   UNL     1     -10.404  16.917  70.128  1.00  0.00     0.388 C  
HETATM   37  C   UNL     1     -12.920  17.617  68.280  1.00  0.00     6.653 C  
HETATM   38  C   UNL     1     -11.646  16.852  67.920  1.00  0.00     0.481 C  
HETATM   39  C   UNL     1     -13.985  16.695  68.838  1.00  0.00     7.299 C  
HETATM   40  C   UNL     1     -13.458  16.089  70.122  1.00  0.00     1.747 C  
HETATM   41  C   UNL     1     -12.210  15.246  69.839  1.00  0.00    -0.323 C  
ENDBRANCH   9  35
TORSDOF 6
ENDMDL
MODEL       99
REMARK 921   NORMALIZED FREE ENERGY PREDICTED BY IDOCK:   22.90 KCAL/MOL
REMARK 922        TOTAL FREE ENERGY PREDICTED BY IDOCK:   29.34 KCAL/MOL
REMARK 923 INTER-LIGAND FREE ENERGY PREDICTED BY IDOCK:   28.38 KCAL/MOL
REMARK 924 INTRA-LIGAND FREE ENERGY PREDICTED BY IDOCK:    0.96 KCAL/MOL
REMARK 927      BINDING AFFINITY PREDICTED BY RF-SCORE:    0.00 PKD
ROOT
HETATM    1  C   UNL     1      -9.295  11.517  70.949  1.00  0.00     6.835 C  
HETATM    2  C   UNL     1      -9.809  12.647  71.727  1.00  0.00    14.675 C  
HETATM    3  C   UNL     1     -11.040  12.362  70.861  1.00  0.00     2.616 C  
HETATM    4  C   UNL     1      -8.526  14.044  66.510  1.00  0.00     0.273 C  
HETATM    5  C   UNL     1     -10.514  11.030  69.364  1.00  0.00    -0.142 C  
HETATM    6  C   UNL     1     -10.943  10.858  70.569  1.00  0.00     0.221 C  
HETATM    7  C   UNL     1      -8.453  14.523  67.994  1.00  0.00    -0.161 C  
HETATM    8  C   UNL     1      -9.168  16.024  68.026  1.00  0.00    -0.193 C  
HETATM    9  C   UNL     1      -8.373  17.160  68.728  1.00  0.00    -0.236 C  
HETATM   10  C   UNL     1      -6.929  17.062  68.188  1.00  0.00    -0.172 C  
HETATM   11  C   UNL     1      -6.400  15.886  69.024  1.00  0.00    -0.133 C  
HETATM   12  C   UNL     1     -11.541   9.667  71.310  1.00  0.00    -0.466 C  
HETATM   13  C   UNL     1     -11.807  11.826  69.066  1.00  0.00    -0.379 C  
HETATM   14  C   UNL     1      -6.903  14.576  68.330  1.00  0.00    -0.113 C  
HETATM   15  C   UNL     1      -6.284  13.325  68.948  1.00  0.00    -0.088 C  
HETATM   16  C   UNL     1     -10.640  12.882  68.146  1.00  0.00    -0.249 C  
HETATM   17  C   UNL     1      -7.063  12.760  70.113  1.00  0.00     1.176 C  
HETATM   18  C   UNL     1      -9.284  13.456  68.891  1.00  0.00     0.234 C  
HETATM   19  C   UNL     1      -8.441  12.298  69.638  1.00  0.00     1.743 C  
ENDROOT
BRANCH   3  20
HETATM   20  N   UNL     1     -12.265  13.714  71.030  1.00  0.00    -0.341 N  
HETATM   21  C   UNL     1     -13.010  14.409  69.701  1.00  0.00     0.468 C  
HETATM   22  C   UNL     1     -13.957  15.529  70.105  1.00  0.00     1.390 C  
HETATM   23  C   UNL     1     -11.678  14.818  71.838  1.00  0.00    -0.221 C  
HETATM   24  C   UNL     1     -13.204  16.573  70.913  1.00  0.00     3.211 C  
HETATM   25  C   UNL     1     -13.510  13.025  71.742  1.00  0.00    -0.314 C  
HETATM   26  C   UNL     1     -12.638  15.940  72.167  1.00  0.00    -0.522 C  
ENDBRANCH   3  20
BRANCH   5  27
HETATM   27  O   UNL     1     -11.316   9.636  68.947  1.00  0.00    -0.044 OA 
BRANCH  27  28
HETATM   28  C   UNL     1     -10.832   8.375  68.817  1.00  0.00     0.052 C  
HETATM   29  C   UNL     1     -10.225   8.222  67.446  1.00  0.00    -0.326 C  
HETATM   30  O   UNL     1     -10.703   7.593  69.744  1.00  0.00    -0.243 OA 
ENDBRANCH  27  28
ENDBRANCH   5  27
BRANCH  10  31
HETATM   31  O   UNL     1      -6.537  16.741  66.837  1.00  0.00    -0.180 OA 
BRANCH  31  32
HETATM   32  C   UNL     1      -7.158  17.575  65.897  1.00  0.00    -0.177 C  
HETATM   33  C   UNL     1      -6.338  18.806  65.718  1.00  0.00    -0.276 C  
HETATM   34  O   UNL     1      -8.172  17.290  65.272  1.00  0.00     0.501 OA 
ENDBRANCH  31  32
ENDBRANCH  10  31
BRANCH   9  35
HETATM   35  N   UNL     1      -8.964  18.764  68.652  1.00  0.00    -0.344 N  
HETATM   36  C   UNL     1      -9.316  19.269  70.113  1.00  0.00     1.108 C  
HETATM   37  C   UNL     1      -8.448  21.060  67.607  1.00  0.00     0.086 C  
HETATM   38  C   UNL     1      -7.901  19.704  68.056  1.00  0.00    -0.306 C  
HETATM   39  C   UNL     1      -9.638  20.902  66.682  1.00  0.00     0.065 C  
HETATM   40  C   UNL     1     -10.745  20.213  67.452  1.00  0.00    -0.239 C  
HETATM   41  C   UNL     1     -10.300  18.813  67.886  1.00  0.00    -0.406 C  
ENDBRANCH   9  35
TORSDOF 6
ENDMDL
MODEL      100
REMARK 921   NORMALIZED FREE ENERGY PREDICTED BY IDOCK:   25.36 KCAL/MOL
REMARK 922        TOTAL FREE ENERGY PREDICTED BY IDOCK:   32.66 KCAL/MOL
REMARK 923 INTER-LIGAND FREE ENERGY PREDICTED BY IDOCK:   29.36 KCAL/MOL
REMARK 924 INTRA-LIGAND FREE ENERGY PREDICTED BY IDOCK:    3.30 KCAL/MOL
REMARK 927      BINDING AFFINITY PREDICTED BY RF-SCORE:    0.00 PKD
ROOT
HETATM    1  C   UNL     1      -7.763  10.343  71.364  1.00  0.00     2.953 C  
HETATM    2  C   UNL     1      -6.745  10.250  70.315  1.00  0.00    -0.143 C  
HETATM    3  C   UNL     1      -7.797  11.076  69.568  1.00  0.00     0.096 C  
HETATM    4  C   UNL     1     -11.101   6.938  69.377  1.00  0.00    -0.249 C  
HETATM    5  C   UNL     1      -9.554  11.076  70.665  1.00  0.00     3.142 C  
HETATM    6  C   UNL     1      -8.518  11.846  70.684  1.00  0.00     6.282 C  
HETATM    7  C   UNL     1      -9.543   7.019  69.300  1.00  0.00    -0.154 C  
HETATM    8  C   UNL     1      -9.142   6.630  67.733  1.00  0.00    -0.113 C  
HETATM    9  C   UNL     1      -8.039   5.551  67.545  1.00  0.00    -0.101 C  
HETATM   10  C   UNL     1      -8.408   4.396  68.502  1.00  0.00    -0.084 C  
HETATM   11  C   UNL     1      -7.912   4.974  69.837  1.00  0.00    -0.074 C  
HETATM   12  C   UNL     1      -8.250  13.232  71.260  1.00  0.00     9.289 C  
HETATM   13  C   UNL     1      -9.747  11.448  69.176  1.00  0.00     0.065 C  
HETATM   14  C   UNL     1      -9.026   5.948  70.349  1.00  0.00    -0.154 C  
HETATM   15  C   UNL     1      -8.748   6.443  71.766  1.00  0.00    -0.132 C  
HETATM   16  C   UNL     1     -10.158   9.676  69.052  1.00  0.00    -0.193 C  
HETATM   17  C   UNL     1      -7.911   7.699  71.830  1.00  0.00    -0.102 C  
HETATM   18  C   UNL     1      -9.118   8.545  69.653  1.00  0.00    -0.149 C  
HETATM   19  C   UNL     1      -8.664   8.857  71.172  1.00  0.00    -0.280 C  
ENDROOT
BRANCH   3  20
HETATM   20  N   UNL     1      -7.372  11.192  67.790  1.00  0.00    -0.090 N  
HETATM   21  C   UNL     1      -7.084  12.662  67.039  1.00  0.00     0.074 C  
HETATM   22  C   UNL     1      -6.785  12.491  65.557  1.00  0.00     4.684 C  
HETATM   23  C   UNL     1      -8.400  10.476  66.985  1.00  0.00    -0.128 C  
HETATM   24  C   UNL     1      -7.930  11.752  64.883  1.00  0.00     1.683 C  
HETATM   25  C   UNL     1      -5.933  10.520  67.688  1.00  0.00    -0.044 C  
HETATM   26  C   UNL     1      -8.092  10.381  65.507  1.00  0.00    -0.156 C  
ENDBRANCH   3  20
BRANCH   5  27
HETATM   27  O   UNL     1     -10.467  12.402  71.080  1.00  0.00     4.342 OA 
BRANCH  27  28
HETATM   28  C   UNL     1     -11.585  12.891  70.487  1.00  0.00     0.310 C  
HETATM   29  C   UNL     1     -11.860  14.273  71.023  1.00  0.00    -0.306 C  
HETATM   30  O   UNL     1     -12.121  12.386  69.515  1.00  0.00    -0.268 OA 
ENDBRANCH  27  28
ENDBRANCH   5  27
BRANCH  10  31
HETATM   31  O   UNL     1      -9.736   3.914  68.796  1.00  0.00    -0.150 OA 
BRANCH  31  32
HETATM   32  C   UNL     1      -9.771   3.150  69.971  1.00  0.00     0.018 C  
HETATM   33  C   UNL     1      -9.897   1.710  69.614  1.00  0.00     0.132 C  
HETATM   34  O   UNL     1      -9.638   3.601  71.102  1.00  0.00    -0.156 OA 
ENDBRANCH  31  32
ENDBRANCH  10  31
BRANCH   9  35
HETATM   35  N   UNL     1      -7.694   4.975  65.970  1.00  0.00    -0.090 N  
HETATM   36  C   UNL     1      -8.256   5.998  64.897  1.00  0.00    -0.130 C  
HETATM   37  C   UNL     1      -5.781   4.000  64.550  1.00  0.00    -0.014 C  
HETATM   38  C   UNL     1      -6.175   4.841  65.765  1.00  0.00    -0.031 C  
HETATM   39  C   UNL     1      -6.467   2.648  64.563  1.00  0.00    -0.027 C  
HETATM   40  C   UNL     1      -7.961   2.876  64.476  1.00  0.00    -0.082 C  
HETATM   41  C   UNL     1      -8.451   3.662  65.697  1.00  0.00    -0.110 C  
ENDBRANCH   9  35
TORSDOF 6
ENDMDL
MODEL      101
REMARK 921   NORMALIZED FREE ENERGY PREDICTED BY IDOCK:   26.01 KCAL/MOL
REMARK 922        TOTAL FREE ENERGY PREDICTED BY IDOCK:   33.54 KCAL/MOL
REMARK 923 INTER-LIGAND FREE ENERGY PREDICTED BY IDOCK:   27.67 KCAL/MOL
REMARK 924 INTRA-LIGAND FREE ENERGY PREDICTED BY IDOCK:    5.87 KCAL/MOL
REMARK 927      BINDING AFFINITY PREDICTED BY RF-SCORE:    0.00 PKD
ROOT
HETATM    1  C   UNL     1      -9.633   4.692  64.620  1.00  0.00    -0.021 C  
HETATM    2  C   UNL     1      -9.853   6.127  64.421  1.00  0.00     2.484 C  
HETATM    3  C   UNL     1      -8.326   6.123  64.534  1.00  0.00    -0.021 C  
HETATM    4  C   UNL     1      -8.581   4.861  69.674  1.00  0.00    -0.098 C  
HETATM    5  C   UNL     1      -7.706   4.261  65.196  1.00  0.00    -0.085 C  
HETATM    6  C   UNL     1      -7.923   4.736  64.015  1.00  0.00    -0.102 C  
HETATM    7  C   UNL     1      -9.503   5.752  68.783  1.00  0.00    -0.147 C  
HETATM    8  C   UNL     1      -9.259   7.316  69.294  1.00  0.00    -0.144 C  
HETATM    9  C   UNL     1     -10.531   8.155  69.602  1.00  0.00    -0.224 C  
HETATM   10  C   UNL     1     -11.436   7.248  70.466  1.00  0.00    -0.279 C  
HETATM   11  C   UNL     1     -12.038   6.343  69.381  1.00  0.00     0.899 C  
HETATM   12  C   UNL     1      -7.536   4.279  62.613  1.00  0.00    -0.048 C  
HETATM   13  C   UNL     1      -6.656   5.379  65.403  1.00  0.00    -0.040 C  
HETATM   14  C   UNL     1     -10.975   5.236  69.075  1.00  0.00     0.362 C  
HETATM   15  C   UNL     1     -11.525   4.152  68.151  1.00  0.00     6.940 C  
HETATM   16  C   UNL     1      -7.395   5.411  67.069  1.00  0.00    -0.083 C  
HETATM   17  C   UNL     1     -11.343   4.442  66.680  1.00  0.00     3.038 C  
HETATM   18  C   UNL     1      -9.029   5.556  67.244  1.00  0.00    -0.111 C  
HETATM   19  C   UNL     1      -9.852   4.496  66.343  1.00  0.00    -0.245 C  
ENDROOT
BRANCH   3  20
HETATM   20  N   UNL     1      -7.694   7.836  64.686  1.00  0.00    -0.114 N  
HETATM   21  C   UNL     1      -7.029   8.415  66.111  1.00  0.00    -0.072 C  
HETATM   22  C   UNL     1      -6.612   9.873  65.988  1.00  0.00    -0.086 C  
HETATM   23  C   UNL     1      -8.754   8.795  64.269  1.00  0.00    -0.004 C  
HETATM   24  C   UNL     1      -7.804  10.715  65.565  1.00  0.00    -0.099 C  
HETATM   25  C   UNL     1      -6.423   7.870  63.729  1.00  0.00    -0.062 C  
HETATM   26  C   UNL     1      -8.313  10.242  64.220  1.00  0.00    -0.165 C  
ENDBRANCH   3  20
BRANCH   5  27
HETATM   27  O   UNL     1      -6.515   3.314  64.527  1.00  0.00    -0.032 OA 
BRANCH  27  28
HETATM   28  C   UNL     1      -6.269   3.042  63.221  1.00  0.00    -0.014 C  
HETATM   29  C   UNL     1      -5.183   3.963  62.724  1.00  0.00    -0.005 C  
HETATM   30  O   UNL     1      -6.690   2.059  62.635  1.00  0.00    -0.020 OA 
ENDBRANCH  27  28
ENDBRANCH   5  27
BRANCH  10  31
HETATM   31  O   UNL     1     -11.004   6.332  71.493  1.00  0.00    -0.250 OA 
BRANCH  31  32
HETATM   32  C   UNL     1     -12.068   5.908  72.302  1.00  0.00    -0.078 C  
HETATM   33  C   UNL     1     -12.247   6.875  73.421  1.00  0.00     1.756 C  
HETATM   34  O   UNL     1     -12.780   4.938  72.069  1.00  0.00     1.853 OA 
ENDBRANCH  31  32
ENDBRANCH  10  31
BRANCH   9  35
HETATM   35  N   UNL     1     -10.358   9.711  70.294  1.00  0.00    -0.261 N  
HETATM   36  C   UNL     1      -8.945  10.312  69.899  1.00  0.00     0.046 C  
HETATM   37  C   UNL     1     -11.611  11.940  70.591  1.00  0.00     0.272 C  
HETATM   38  C   UNL     1     -11.452  10.659  69.772  1.00  0.00    -0.302 C  
HETATM   39  C   UNL     1     -11.787  11.639  72.066  1.00  0.00     2.431 C  
HETATM   40  C   UNL     1     -10.531  10.953  72.561  1.00  0.00     9.993 C  
HETATM   41  C   UNL     1     -10.332   9.620  71.832  1.00  0.00     0.808 C  
ENDBRANCH   9  35
TORSDOF 6
ENDMDL
MODEL      102
REMARK 921   NORMALIZED FREE ENERGY PREDICTED BY IDOCK:   26.25 KCAL/MOL
REMARK 922        TOTAL FREE ENERGY PREDICTED BY IDOCK:   33.87 KCAL/MOL
REMARK 923 INTER-LIGAND FREE ENERGY PREDICTED BY IDOCK:   27.98 KCAL/MOL
REMARK 924 INTRA-LIGAND FREE ENERGY PREDICTED BY IDOCK:    5.89 KCAL/MOL
REMARK 927      BINDING AFFINITY PREDICTED BY RF-SCORE:    0.00 PKD
ROOT
HETATM    1  C   UNL     1      -9.870   9.290  69.210  1.00  0.00    -0.172 C  
HETATM    2  C   UNL     1     -10.311   9.451  67.822  1.00  0.00    -0.291 C  
HETATM    3  C   UNL     1      -8.795   9.433  67.601  1.00  0.00    -0.115 C  
HETATM    4  C   UNL     1      -8.262  14.137  69.981  1.00  0.00     1.287 C  
HETATM    5  C   UNL     1      -7.847   9.586  69.436  1.00  0.00    -0.097 C  
HETATM    6  C   UNL     1      -8.266   8.572  68.757  1.00  0.00    -0.122 C  
HETATM    7  C   UNL     1      -9.399  13.560  69.079  1.00  0.00     0.321 C  
HETATM    8  C   UNL     1      -9.316  14.400  67.646  1.00  0.00    -0.200 C  
HETATM    9  C   UNL     1     -10.647  15.001  67.114  1.00  0.00    -0.295 C  
HETATM   10  C   UNL     1     -11.308  15.701  68.323  1.00  0.00    -0.356 C  
HETATM   11  C   UNL     1     -11.902  14.488  69.054  1.00  0.00    -0.354 C  
HETATM   12  C   UNL     1      -7.988   7.074  68.827  1.00  0.00    -0.120 C  
HETATM   13  C   UNL     1      -6.947   9.961  68.235  1.00  0.00    -0.072 C  
HETATM   14  C   UNL     1     -10.739  13.844  69.880  1.00  0.00     0.334 C  
HETATM   15  C   UNL     1     -11.237  12.741  70.810  1.00  0.00     1.700 C  
HETATM   16  C   UNL     1      -7.481  11.644  68.689  1.00  0.00    -0.117 C  
HETATM   17  C   UNL     1     -11.273  11.368  70.180  1.00  0.00    -0.076 C  
HETATM   18  C   UNL     1      -9.087  11.983  68.855  1.00  0.00     0.193 C  
HETATM   19  C   UNL     1      -9.854  10.931  69.811  1.00  0.00     0.304 C  
ENDROOT
BRANCH   3  20
HETATM   20  N   UNL     1      -8.396   9.928  65.883  1.00  0.00    -0.121 N  
HETATM   21  C   UNL     1      -8.730   8.939  64.573  1.00  0.00    -0.120 C  
HETATM   22  C   UNL     1      -8.272   9.563  63.263  1.00  0.00    -0.162 C  
HETATM   23  C   UNL     1      -6.959  10.309  65.797  1.00  0.00    -0.128 C  
HETATM   24  C   UNL     1      -6.788   9.884  63.336  1.00  0.00    -0.125 C  
HETATM   25  C   UNL     1      -9.375  11.148  65.591  1.00  0.00    -0.219 C  
HETATM   26  C   UNL     1      -6.533  10.869  64.457  1.00  0.00     0.460 C  
ENDBRANCH   3  20
BRANCH   5  27
HETATM   27  O   UNL     1      -6.624   8.617  70.008  1.00  0.00    -0.037 OA 
BRANCH  27  28
HETATM   28  C   UNL     1      -6.661   7.676  70.984  1.00  0.00    -0.038 C  
HETATM   29  C   UNL     1      -7.086   6.361  70.383  1.00  0.00    -0.068 C  
HETATM   30  O   UNL     1      -6.193   7.830  72.100  1.00  0.00    -0.039 OA 
ENDBRANCH  27  28
ENDBRANCH   5  27
BRANCH  10  31
HETATM   31  O   UNL     1     -10.634  16.445  69.359  1.00  0.00    -0.276 OA 
BRANCH  31  32
HETATM   32  C   UNL     1     -11.533  17.164  70.160  1.00  0.00     1.267 C  
HETATM   33  C   UNL     1     -12.882  16.541  70.061  1.00  0.00     2.611 C  
HETATM   34  O   UNL     1     -11.227  18.104  70.883  1.00  0.00     2.225 OA 
ENDBRANCH  31  32
ENDBRANCH  10  31
BRANCH   9  35
HETATM   35  N   UNL     1     -10.613  16.021  65.740  1.00  0.00    -0.356 N  
HETATM   36  C   UNL     1      -9.587  17.205  65.985  1.00  0.00    -0.163 C  
HETATM   37  C   UNL     1     -10.449  15.946  63.172  1.00  0.00     7.778 C  
HETATM   38  C   UNL     1     -10.162  15.236  64.495  1.00  0.00     0.578 C  
HETATM   39  C   UNL     1     -11.901  16.369  63.071  1.00  0.00     5.815 C  
HETATM   40  C   UNL     1     -12.178  17.368  64.176  1.00  0.00     5.381 C  
HETATM   41  C   UNL     1     -11.976  16.714  65.546  1.00  0.00     1.961 C  
ENDBRANCH   9  35
TORSDOF 6
ENDMDL
MODEL      103
REMARK 921   NORMALIZED FREE ENERGY PREDICTED BY IDOCK:   26.95 KCAL/MOL
REMARK 922        TOTAL FREE ENERGY PREDICTED BY IDOCK:   34.81 KCAL/MOL
REMARK 923 INTER-LIGAND FREE ENERGY PREDICTED BY IDOCK:   14.10 KCAL/MOL
REMARK 924 INTRA-LIGAND FREE ENERGY PREDICTED BY IDOCK:   20.71 KCAL/MOL
REMARK 927      BINDING AFFINITY PREDICTED BY RF-SCORE:    0.00 PKD
ROOT
HETATM    1  C   UNL     1     -11.237   9.232  65.407  1.00  0.00     4.250 C  
HETATM    2  C   UNL     1     -11.749   8.506  66.571  1.00  0.00     4.657 C  
HETATM    3  C   UNL     1     -11.262   9.780  67.267  1.00  0.00     0.285 C  
HETATM    4  C   UNL     1      -6.203   8.521  66.320  1.00  0.00    -0.053 C  
HETATM    5  C   UNL     1     -10.131  10.886  65.930  1.00  0.00    -0.252 C  
HETATM    6  C   UNL     1     -11.396  10.863  66.187  1.00  0.00     0.284 C  
HETATM    7  C   UNL     1      -7.445   7.631  66.643  1.00  0.00    -0.093 C  
HETATM    8  C   UNL     1      -7.191   7.032  68.174  1.00  0.00    -0.091 C  
HETATM    9  C   UNL     1      -7.369   5.499  68.360  1.00  0.00    -0.076 C  
HETATM   10  C   UNL     1      -6.602   4.839  67.192  1.00  0.00    -0.050 C  
HETATM   11  C   UNL     1      -7.615   5.032  66.053  1.00  0.00    -0.087 C  
HETATM   12  C   UNL     1     -12.548  11.812  65.877  1.00  0.00     1.970 C  
HETATM   13  C   UNL     1      -9.883  11.255  67.412  1.00  0.00    -0.201 C  
HETATM   14  C   UNL     1      -7.436   6.498  65.533  1.00  0.00    -0.083 C  
HETATM   15  C   UNL     1      -8.248   6.761  64.267  1.00  0.00     0.036 C  
HETATM   16  C   UNL     1      -8.488  10.101  67.199  1.00  0.00    -0.125 C  
HETATM   17  C   UNL     1      -9.656   7.245  64.525  1.00  0.00     2.639 C  
HETATM   18  C   UNL     1      -8.754   8.588  66.596  1.00  0.00    -0.139 C  
HETATM   19  C   UNL     1      -9.616   8.601  65.230  1.00  0.00     0.350 C  
ENDROOT
BRANCH   3  20
HETATM   20  N   UNL     1     -11.281   9.560  69.086  1.00  0.00    -0.049 N  
HETATM   21  C   UNL     1      -9.943   9.004  69.928  1.00  0.00    -0.203 C  
HETATM   22  C   UNL     1     -10.225   8.876  71.417  1.00  0.00    -0.375 C  
HETATM   23  C   UNL     1     -12.435   8.702  69.471  1.00  0.00     2.407 C  
HETATM   24  C   UNL     1     -11.422   7.966  71.638  1.00  0.00    -0.304 C  
HETATM   25  C   UNL     1     -11.397  11.040  69.658  1.00  0.00    -0.292 C  
HETATM   26  C   UNL     1     -12.643   8.553  70.962  1.00  0.00    -0.060 C  
ENDBRANCH   3  20
BRANCH   5  27
HETATM   27  O   UNL     1     -10.296  12.505  65.590  1.00  0.00    -0.261 OA 
BRANCH  27  28
HETATM   28  C   UNL     1     -10.058  13.165  64.428  1.00  0.00    -0.199 C  
HETATM   29  C   UNL     1     -10.796  14.478  64.450  1.00  0.00    -0.076 C  
HETATM   30  O   UNL     1      -9.198  12.845  63.624  1.00  0.00     0.749 OA 
ENDBRANCH  27  28
ENDBRANCH   5  27
BRANCH  10  31
HETATM   31  O   UNL     1      -5.348   5.278  66.631  1.00  0.00    -0.008 OA 
BRANCH  31  32
HETATM   32  C   UNL     1      -5.375   6.634  66.278  1.00  0.00    -0.017 C  
HETATM   33  C   UNL     1      -5.303   6.755  64.795  1.00  0.00    -0.027 C  
HETATM   34  O   UNL     1      -5.515   7.560  67.068  1.00  0.00    -0.028 OA 
ENDBRANCH  31  32
ENDBRANCH  10  31
BRANCH   9  35
HETATM   35  N   UNL     1      -6.960   4.787  69.862  1.00  0.00    -0.051 N  
HETATM   36  C   UNL     1      -5.450   5.121  70.212  1.00  0.00    -0.004 C  
HETATM   37  C   UNL     1      -7.823   4.517  72.272  1.00  0.00    -0.092 C  
HETATM   38  C   UNL     1      -7.853   5.342  70.985  1.00  0.00    -0.102 C  
HETATM   39  C   UNL     1      -8.107   3.053  72.002  1.00  0.00    -0.059 C  
HETATM   40  C   UNL     1      -7.008   2.517  71.108  1.00  0.00    -0.032 C  
HETATM   41  C   UNL     1      -7.011   3.250  69.763  1.00  0.00    -0.041 C  
ENDBRANCH   9  35
TORSDOF 6
ENDMDL
MODEL      104
REMARK 921   NORMALIZED FREE ENERGY PREDICTED BY IDOCK:   30.63 KCAL/MOL
REMARK 922        TOTAL FREE ENERGY PREDICTED BY IDOCK:   39.79 KCAL/MOL
REMARK 923 INTER-LIGAND FREE ENERGY PREDICTED BY IDOCK:   39.81 KCAL/MOL
REMARK 924 INTRA-LIGAND FREE ENERGY PREDICTED BY IDOCK:   -0.02 KCAL/MOL
REMARK 927      BINDING AFFINITY PREDICTED BY RF-SCORE:    0.00 PKD
ROOT
HETATM    1  C   UNL     1      -7.277  13.872  70.419  1.00  0.00     0.972 C  
HETATM    2  C   UNL     1      -6.658  13.651  69.110  1.00  0.00    -0.109 C  
HETATM    3  C   UNL     1      -7.989  14.257  68.656  1.00  0.00    -0.139 C  
HETATM    4  C   UNL     1     -10.641   9.957  70.253  1.00  0.00    -0.359 C  
HETATM    5  C   UNL     1      -9.273  14.351  70.279  1.00  0.00     1.697 C  
HETATM    6  C   UNL     1      -8.391  15.174  69.820  1.00  0.00     0.041 C  
HETATM    7  C   UNL     1      -9.218  10.120  69.631  1.00  0.00    -0.206 C  
HETATM    8  C   UNL     1      -9.312   9.473  68.102  1.00  0.00    -0.141 C  
HETATM    9  C   UNL     1      -8.209   8.449  67.710  1.00  0.00    -0.126 C  
HETATM   10  C   UNL     1      -8.099   7.471  68.901  1.00  0.00    -0.127 C  
HETATM   11  C   UNL     1      -7.265   8.315  69.877  1.00  0.00    -0.059 C  
HETATM   12  C   UNL     1      -8.119  16.657  70.050  1.00  0.00     1.476 C  
HETATM   13  C   UNL     1      -9.990  14.428  68.910  1.00  0.00    -0.183 C  
HETATM   14  C   UNL     1      -8.258   9.295  70.587  1.00  0.00    -0.224 C  
HETATM   15  C   UNL     1      -7.591  10.061  71.727  1.00  0.00     2.270 C  
HETATM   16  C   UNL     1     -10.199  12.641  69.208  1.00  0.00     0.380 C  
HETATM   17  C   UNL     1      -6.939  11.357  71.305  1.00  0.00     3.506 C  
HETATM   18  C   UNL     1      -8.890  11.708  69.578  1.00  0.00     1.002 C  
HETATM   19  C   UNL     1      -8.002  12.323  70.779  1.00  0.00     6.409 C  
ENDROOT
BRANCH   3  20
HETATM   20  N   UNL     1      -8.191  14.068  66.845  1.00  0.00    -0.043 N  
HETATM   21  C   UNL     1      -7.489  15.131  65.757  1.00  0.00     4.388 C  
HETATM   22  C   UNL     1      -7.833  14.777  64.318  1.00  0.00    14.703 C  
HETATM   23  C   UNL     1      -9.640  13.985  66.512  1.00  0.00    -0.293 C  
HETATM   24  C   UNL     1      -9.343  14.741  64.144  1.00  0.00     5.086 C  
HETATM   25  C   UNL     1      -7.403  12.729  66.502  1.00  0.00     0.995 C  
HETATM   26  C   UNL     1      -9.938  13.691  65.058  1.00  0.00    -0.205 C  
ENDBRANCH   3  20
BRANCH   5  27
HETATM   27  O   UNL     1     -10.153  15.670  70.776  1.00  0.00     0.163 OA 
BRANCH  27  28
HETATM   28  C   UNL     1     -11.126  15.745  71.718  1.00  0.00    -0.003 C  
HETATM   29  C   UNL     1     -12.470  15.632  71.045  1.00  0.00    -0.501 C  
HETATM   30  O   UNL     1     -10.924  15.673  72.919  1.00  0.00     0.386 OA 
ENDBRANCH  27  28
ENDBRANCH   5  27
BRANCH  10  31
HETATM   31  O   UNL     1      -9.186   6.969  69.705  1.00  0.00    -0.148 OA 
BRANCH  31  32
HETATM   32  C   UNL     1      -8.857   5.765  70.343  1.00  0.00    -0.142 C  
HETATM   33  C   UNL     1      -8.893   4.658  69.347  1.00  0.00    -0.124 C  
HETATM   34  O   UNL     1      -8.520   5.665  71.516  1.00  0.00    -0.125 OA 
ENDBRANCH  31  32
ENDBRANCH  10  31
BRANCH   9  35
HETATM   35  N   UNL     1      -8.335   7.614  66.222  1.00  0.00    -0.126 N  
HETATM   36  C   UNL     1      -9.207   8.467  65.208  1.00  0.00     0.185 C  
HETATM   37  C   UNL     1      -6.911   6.360  64.482  1.00  0.00    -0.043 C  
HETATM   38  C   UNL     1      -6.942   7.400  65.602  1.00  0.00    -0.060 C  
HETATM   39  C   UNL     1      -7.537   5.051  64.919  1.00  0.00    -0.078 C  
HETATM   40  C   UNL     1      -8.994   5.310  65.239  1.00  0.00    -0.130 C  
HETATM   41  C   UNL     1      -9.116   6.298  66.403  1.00  0.00    -0.153 C  
ENDBRANCH   9  35
TORSDOF 6
ENDMDL
MODEL      105
REMARK 921   NORMALIZED FREE ENERGY PREDICTED BY IDOCK:   31.22 KCAL/MOL
REMARK 922        TOTAL FREE ENERGY PREDICTED BY IDOCK:   40.59 KCAL/MOL
REMARK 923 INTER-LIGAND FREE ENERGY PREDICTED BY IDOCK:   37.22 KCAL/MOL
REMARK 924 INTRA-LIGAND FREE ENERGY PREDICTED BY IDOCK:    3.37 KCAL/MOL
REMARK 927      BINDING AFFINITY PREDICTED BY RF-SCORE:    0.00 PKD
ROOT
HETATM    1  C   UNL     1     -11.158  15.856  72.369  1.00  0.00     0.452 C  
HETATM    2  C   UNL     1      -9.880  15.195  72.644  1.00  0.00     5.176 C  
HETATM    3  C   UNL     1      -9.413  16.220  71.605  1.00  0.00     5.795 C  
HETATM    4  C   UNL     1     -12.053  13.715  67.754  1.00  0.00    -0.325 C  
HETATM    5  C   UNL     1     -11.073  17.090  70.725  1.00  0.00     0.728 C  
HETATM    6  C   UNL     1     -10.390  17.390  71.779  1.00  0.00     4.230 C  
HETATM    7  C   UNL     1     -11.306  13.173  69.014  1.00  0.00    -0.332 C  
HETATM    8  C   UNL     1      -9.953  12.392  68.442  1.00  0.00    -0.210 C  
HETATM    9  C   UNL     1      -9.699  10.956  68.980  1.00  0.00    -0.166 C  
HETATM   10  C   UNL     1     -11.054  10.220  68.878  1.00  0.00    -0.231 C  
HETATM   11  C   UNL     1     -11.770  10.784  70.114  1.00  0.00    -0.425 C  
HETATM   12  C   UNL     1     -10.289  18.643  72.643  1.00  0.00     4.208 C  
HETATM   13  C   UNL     1      -9.776  17.242  69.897  1.00  0.00     0.844 C  
HETATM   14  C   UNL     1     -12.336  12.186  69.707  1.00  0.00    -0.091 C  
HETATM   15  C   UNL     1     -13.242  12.774  70.786  1.00  0.00     0.307 C  
HETATM   16  C   UNL     1     -10.449  15.774  69.051  1.00  0.00    -0.225 C  
HETATM   17  C   UNL     1     -12.514  13.599  71.822  1.00  0.00    -0.207 C  
HETATM   18  C   UNL     1     -10.903  14.452  69.928  1.00  0.00    -0.030 C  
HETATM   19  C   UNL     1     -11.883  14.824  71.158  1.00  0.00    -0.387 C  
ENDROOT
BRANCH   3  20
HETATM   20  N   UNL     1      -7.699  15.849  71.072  1.00  0.00     2.873 N  
HETATM   21  C   UNL     1      -7.054  16.474  69.657  1.00  0.00     0.038 C  
HETATM   22  C   UNL     1      -5.631  15.992  69.424  1.00  0.00    -0.121 C  
HETATM   23  C   UNL     1      -7.497  14.375  71.039  1.00  0.00     2.141 C  
HETATM   24  C   UNL     1      -5.598  14.472  69.410  1.00  0.00    -0.090 C  
HETATM   25  C   UNL     1      -6.788  16.572  72.158  1.00  0.00     6.221 C  
HETATM   26  C   UNL     1      -6.078  13.938  70.743  1.00  0.00    -0.117 C  
ENDBRANCH   3  20
BRANCH   5  27
HETATM   27  O   UNL     1     -11.353  18.715  70.521  1.00  0.00     3.385 OA 
BRANCH  27  28
HETATM   28  C   UNL     1     -10.743  19.592  69.685  1.00  0.00     1.185 C  
HETATM   29  C   UNL     1     -10.551  18.936  68.341  1.00  0.00    -0.128 C  
HETATM   30  O   UNL     1     -10.602  20.780  69.923  1.00  0.00     0.338 OA 
ENDBRANCH  27  28
ENDBRANCH   5  27
BRANCH  10  31
HETATM   31  O   UNL     1     -12.023  10.347  67.817  1.00  0.00    -0.063 OA 
BRANCH  31  32
HETATM   32  C   UNL     1     -11.441  10.191  66.551  1.00  0.00     1.213 C  
HETATM   33  C   UNL     1     -10.813  11.477  66.140  1.00  0.00    -0.330 C  
HETATM   34  O   UNL     1     -11.396   9.138  65.928  1.00  0.00     2.193 OA 
ENDBRANCH  31  32
ENDBRANCH  10  31
BRANCH   9  35
HETATM   35  N   UNL     1      -8.427  10.027  68.312  1.00  0.00    -0.110 N  
HETATM   36  C   UNL     1      -8.784   8.486  68.420  1.00  0.00    -0.143 C  
HETATM   37  C   UNL     1      -6.900   9.884  66.244  1.00  0.00    -0.091 C  
HETATM   38  C   UNL     1      -8.225  10.375  66.826  1.00  0.00    -0.126 C  
HETATM   39  C   UNL     1      -5.722  10.327  67.088  1.00  0.00    -0.045 C  
HETATM   40  C   UNL     1      -5.861   9.699  68.459  1.00  0.00    -0.040 C  
HETATM   41  C   UNL     1      -7.140  10.193  69.143  1.00  0.00    -0.073 C  
ENDBRANCH   9  35
TORSDOF 6
ENDMDL
MODEL      106
REMARK 921   NORMALIZED FREE ENERGY PREDICTED BY IDOCK:   31.68 KCAL/MOL
REMARK 922        TOTAL FREE ENERGY PREDICTED BY IDOCK:   41.21 KCAL/MOL
REMARK 923 INTER-LIGAND FREE ENERGY PREDICTED BY IDOCK:   19.65 KCAL/MOL
REMARK 924 INTRA-LIGAND FREE ENERGY PREDICTED BY IDOCK:   21.55 KCAL/MOL
REMARK 927      BINDING AFFINITY PREDICTED BY RF-SCORE:    0.00 PKD
ROOT
HETATM    1  C   UNL     1     -11.301  14.500  71.322  1.00  0.00     0.100 C  
HETATM    2  C   UNL     1     -10.204  14.178  72.237  1.00  0.00     5.836 C  
HETATM    3  C   UNL     1      -9.425  14.972  71.184  1.00  0.00     2.466 C  
HETATM    4  C   UNL     1     -10.096  11.126  67.601  1.00  0.00    -0.203 C  
HETATM    5  C   UNL     1     -10.639  15.268  69.532  1.00  0.00    -0.267 C  
HETATM    6  C   UNL     1     -10.465  15.947  70.616  1.00  0.00     0.129 C  
HETATM    7  C   UNL     1      -9.890  11.071  69.148  1.00  0.00    -0.117 C  
HETATM    8  C   UNL     1      -8.373  10.433  69.385  1.00  0.00    -0.152 C  
HETATM    9  C   UNL     1      -8.262   9.254  70.391  1.00  0.00    -0.178 C  
HETATM   10  C   UNL     1      -9.405   8.279  70.028  1.00  0.00    -0.162 C  
HETATM   11  C   UNL     1     -10.598   8.998  70.675  1.00  0.00    -0.290 C  
HETATM   12  C   UNL     1     -10.809  17.375  71.026  1.00  0.00     1.585 C  
HETATM   13  C   UNL     1      -9.130  15.440  69.237  1.00  0.00    -0.260 C  
HETATM   14  C   UNL     1     -11.044  10.121  69.679  1.00  0.00    -0.308 C  
HETATM   15  C   UNL     1     -12.347  10.788  70.112  1.00  0.00    -0.401 C  
HETATM   16  C   UNL     1      -9.300  13.707  68.697  1.00  0.00    -0.057 C  
HETATM   17  C   UNL     1     -12.161  11.969  71.035  1.00  0.00    -0.245 C  
HETATM   18  C   UNL     1      -9.981  12.592  69.705  1.00  0.00     1.372 C  
HETATM   19  C   UNL     1     -11.399  13.078  70.309  1.00  0.00     0.296 C  
ENDROOT
BRANCH   3  20
HETATM   20  N   UNL     1      -7.622  14.800  71.461  1.00  0.00     2.558 N  
HETATM   21  C   UNL     1      -6.839  13.325  71.328  1.00  0.00     2.803 C  
HETATM   22  C   UNL     1      -5.354  13.443  71.638  1.00  0.00    -0.168 C  
HETATM   23  C   UNL     1      -7.266  15.373  72.789  1.00  0.00     6.023 C  
HETATM   24  C   UNL     1      -5.164  14.034  73.026  1.00  0.00    -0.263 C  
HETATM   25  C   UNL     1      -6.963  15.596  70.251  1.00  0.00     0.334 C  
HETATM   26  C   UNL     1      -5.782  15.416  73.082  1.00  0.00     1.016 C  
ENDBRANCH   3  20
BRANCH   5  27
HETATM   27  O   UNL     1     -10.921  16.708  68.751  1.00  0.00    -0.328 OA 
BRANCH  27  28
HETATM   28  C   UNL     1     -10.033  17.573  68.201  1.00  0.00    -0.321 C  
HETATM   29  C   UNL     1     -10.314  17.693  66.725  1.00  0.00    -0.331 C  
HETATM   30  O   UNL     1      -9.298  18.302  68.847  1.00  0.00    -0.278 OA 
ENDBRANCH  27  28
ENDBRANCH   5  27
BRANCH  10  31
HETATM   31  O   UNL     1      -9.866   7.951  68.701  1.00  0.00    -0.162 OA 
BRANCH  31  32
HETATM   32  C   UNL     1     -10.690   8.952  68.168  1.00  0.00    -0.092 C  
HETATM   33  C   UNL     1     -10.267   9.241  66.770  1.00  0.00    -0.325 C  
HETATM   34  O   UNL     1     -11.652   9.446  68.744  1.00  0.00     0.318 OA 
ENDBRANCH  31  32
ENDBRANCH  10  31
BRANCH   9  35
HETATM   35  N   UNL     1      -6.769   8.435  70.559  1.00  0.00    -0.036 N  
HETATM   36  C   UNL     1      -5.672   9.145  69.660  1.00  0.00    -0.033 C  
HETATM   37  C   UNL     1      -5.183   7.470  72.343  1.00  0.00    -0.036 C  
HETATM   38  C   UNL     1      -6.294   8.470  72.023  1.00  0.00    -0.071 C  
HETATM   39  C   UNL     1      -5.554   6.066  71.907  1.00  0.00    -0.026 C  
HETATM   40  C   UNL     1      -5.725   6.069  70.403  1.00  0.00    -0.014 C  
HETATM   41  C   UNL     1      -6.871   7.003  69.999  1.00  0.00    -0.057 C  
ENDBRANCH   9  35
TORSDOF 6
ENDMDL
MODEL      107
REMARK 921   NORMALIZED FREE ENERGY PREDICTED BY IDOCK:   33.93 KCAL/MOL
REMARK 922        TOTAL FREE ENERGY PREDICTED BY IDOCK:   44.24 KCAL/MOL
REMARK 923 INTER-LIGAND FREE ENERGY PREDICTED BY IDOCK:   41.07 KCAL/MOL
REMARK 924 INTRA-LIGAND FREE ENERGY PREDICTED BY IDOCK:    3.17 KCAL/MOL
REMARK 927      BINDING AFFINITY PREDICTED BY RF-SCORE:    0.00 PKD
ROOT
HETATM    1  C   UNL     1      -9.806   9.861  69.902  1.00  0.00    -0.285 C  
HETATM    2  C   UNL     1     -10.943  10.534  69.270  1.00  0.00    -0.291 C  
HETATM    3  C   UNL     1     -10.235  10.014  68.016  1.00  0.00    -0.181 C  
HETATM    4  C   UNL     1      -6.204  13.376  68.739  1.00  0.00    -0.090 C  
HETATM    5  C   UNL     1      -8.359   9.314  68.546  1.00  0.00    -0.119 C  
HETATM    6  C   UNL     1      -9.517   8.746  68.500  1.00  0.00    -0.149 C  
HETATM    7  C   UNL     1      -7.733  13.522  69.022  1.00  0.00     0.118 C  
HETATM    8  C   UNL     1      -8.301  14.618  67.907  1.00  0.00    -0.153 C  
HETATM    9  C   UNL     1      -9.164  15.787  68.457  1.00  0.00    -0.198 C  
HETATM   10  C   UNL     1      -8.399  16.337  69.682  1.00  0.00     0.322 C  
HETATM   11  C   UNL     1      -8.773  15.285  70.736  1.00  0.00     2.040 C  
HETATM   12  C   UNL     1      -9.973   7.291  68.501  1.00  0.00    -0.168 C  
HETATM   13  C   UNL     1      -8.505   9.630  67.039  1.00  0.00    -0.124 C  
HETATM   14  C   UNL     1      -7.823  14.061  70.511  1.00  0.00     2.232 C  
HETATM   15  C   UNL     1      -7.957  13.019  71.619  1.00  0.00    11.163 C  
HETATM   16  C   UNL     1      -7.752  11.207  67.558  1.00  0.00    -0.116 C  
HETATM   17  C   UNL     1      -9.020  11.977  71.363  1.00  0.00    13.782 C  
HETATM   18  C   UNL     1      -8.408  12.062  68.808  1.00  0.00     0.048 C  
HETATM   19  C   UNL     1      -8.655  11.158  70.124  1.00  0.00     1.928 C  
ENDROOT
BRANCH   3  20
HETATM   20  N   UNL     1     -10.970  10.760  66.513  1.00  0.00    -0.141 N  
HETATM   21  C   UNL     1     -12.580  10.533  66.105  1.00  0.00     6.829 C  
HETATM   22  C   UNL     1     -12.935  11.226  64.798  1.00  0.00     2.851 C  
HETATM   23  C   UNL     1     -10.155  10.389  65.324  1.00  0.00    -0.300 C  
HETATM   24  C   UNL     1     -12.019  10.733  63.689  1.00  0.00     2.097 C  
HETATM   25  C   UNL     1     -10.956  12.324  66.806  1.00  0.00    -0.276 C  
HETATM   26  C   UNL     1     -10.580  11.055  64.033  1.00  0.00    -0.395 C  
ENDBRANCH   3  20
BRANCH   5  27
HETATM   27  O   UNL     1      -7.693   7.846  68.139  1.00  0.00    -0.119 OA 
BRANCH  27  28
HETATM   28  C   UNL     1      -7.778   7.161  66.971  1.00  0.00    -0.107 C  
HETATM   29  C   UNL     1      -7.009   7.905  65.909  1.00  0.00    -0.057 C  
HETATM   30  O   UNL     1      -8.201   6.021  66.875  1.00  0.00    -0.105 OA 
ENDBRANCH  27  28
ENDBRANCH   5  27
BRANCH  10  31
HETATM   31  O   UNL     1      -6.969  16.476  69.811  1.00  0.00    -0.127 OA 
BRANCH  31  32
HETATM   32  C   UNL     1      -6.527  17.749  69.426  1.00  0.00    -0.226 C  
HETATM   33  C   UNL     1      -5.866  18.408  70.587  1.00  0.00     0.023 C  
HETATM   34  O   UNL     1      -6.608  18.204  68.292  1.00  0.00    -0.196 OA 
ENDBRANCH  31  32
ENDBRANCH  10  31
BRANCH   9  35
HETATM   35  N   UNL     1      -9.639  17.045  67.398  1.00  0.00    -0.243 N  
HETATM   36  C   UNL     1     -11.161  16.853  66.998  1.00  0.00     0.357 C  
HETATM   37  C   UNL     1      -9.527  19.601  67.118  1.00  0.00    -0.443 C  
HETATM   38  C   UNL     1      -9.485  18.415  68.081  1.00  0.00    -0.310 C  
HETATM   39  C   UNL     1      -8.541  19.430  65.980  1.00  0.00    -0.196 C  
HETATM   40  C   UNL     1      -8.945  18.204  65.187  1.00  0.00     2.558 C  
HETATM   41  C   UNL     1      -8.867  16.952  66.067  1.00  0.00    -0.159 C  
ENDBRANCH   9  35
TORSDOF 6
ENDMDL
MODEL      108
REMARK 921   NORMALIZED FREE ENERGY PREDICTED BY IDOCK:   34.99 KCAL/MOL
REMARK 922        TOTAL FREE ENERGY PREDICTED BY IDOCK:   45.67 KCAL/MOL
REMARK 923 INTER-LIGAND FREE ENERGY PREDICTED BY IDOCK:   40.50 KCAL/MOL
REMARK 924 INTRA-LIGAND FREE ENERGY PREDICTED BY IDOCK:    5.17 KCAL/MOL
REMARK 927      BINDING AFFINITY PREDICTED BY RF-SCORE:    0.00 PKD
ROOT
HETATM    1  C   UNL     1     -11.583   9.694  67.543  1.00  0.00     1.332 C  
HETATM    2  C   UNL     1     -11.796  10.843  66.660  1.00  0.00     1.157 C  
HETATM    3  C   UNL     1     -10.667  10.146  65.894  1.00  0.00     0.144 C  
HETATM    4  C   UNL     1      -7.183  11.309  69.713  1.00  0.00     0.124 C  
HETATM    5  C   UNL     1      -9.870   8.652  67.086  1.00  0.00    -0.207 C  
HETATM    6  C   UNL     1     -10.848   8.663  66.244  1.00  0.00     1.042 C  
HETATM    7  C   UNL     1      -8.410  12.100  69.160  1.00  0.00     0.480 C  
HETATM    8  C   UNL     1      -7.782  13.406  68.343  1.00  0.00    -0.138 C  
HETATM    9  C   UNL     1      -8.380  14.797  68.689  1.00  0.00    -0.165 C  
HETATM   10  C   UNL     1      -8.425  14.867  70.232  1.00  0.00     0.958 C  
HETATM   11  C   UNL     1      -9.678  14.024  70.511  1.00  0.00     2.839 C  
HETATM   12  C   UNL     1     -11.628   7.566  65.527  1.00  0.00     7.882 C  
HETATM   13  C   UNL     1      -8.936   9.099  65.937  1.00  0.00    -0.231 C  
HETATM   14  C   UNL     1      -9.237  12.523  70.447  1.00  0.00     5.712 C  
HETATM   15  C   UNL     1     -10.347  11.578  70.899  1.00  0.00     4.032 C  
HETATM   16  C   UNL     1      -8.230  10.139  67.258  1.00  0.00    -0.117 C  
HETATM   17  C   UNL     1     -11.274  11.137  69.791  1.00  0.00    -0.318 C  
HETATM   18  C   UNL     1      -9.215  11.111  68.157  1.00  0.00    -0.166 C  
HETATM   19  C   UNL     1     -10.494  10.325  68.755  1.00  0.00    -0.222 C  
ENDROOT
BRANCH   3  20
HETATM   20  N   UNL     1     -10.025  11.240  64.571  1.00  0.00    -0.264 N  
HETATM   21  C   UNL     1      -9.163  12.636  64.913  1.00  0.00     0.696 C  
HETATM   22  C   UNL     1      -8.773  13.383  63.647  1.00  0.00     6.785 C  
HETATM   23  C   UNL     1     -11.137  11.618  63.656  1.00  0.00    -0.425 C  
HETATM   24  C   UNL     1     -10.016  13.699  62.831  1.00  0.00     6.317 C  
HETATM   25  C   UNL     1      -8.905  10.368  63.853  1.00  0.00    -0.210 C  
HETATM   26  C   UNL     1     -10.712  12.412  62.440  1.00  0.00     2.977 C  
ENDBRANCH   3  20
BRANCH   5  27
HETATM   27  O   UNL     1      -9.595   7.072  66.649  1.00  0.00    -0.168 OA 
BRANCH  27  28
HETATM   28  C   UNL     1      -9.765   5.940  67.376  1.00  0.00    -0.117 C  
HETATM   29  C   UNL     1     -10.313   4.859  66.480  1.00  0.00    -0.311 C  
HETATM   30  O   UNL     1      -9.319   5.775  68.500  1.00  0.00    -0.119 OA 
ENDBRANCH  27  28
ENDBRANCH   5  27
BRANCH  10  31
HETATM   31  O   UNL     1      -7.437  14.347  71.145  1.00  0.00     1.503 OA 
BRANCH  31  32
HETATM   32  C   UNL     1      -6.130  14.624  70.721  1.00  0.00    -0.115 C  
HETATM   33  C   UNL     1      -5.189  14.385  71.850  1.00  0.00    -0.174 C  
HETATM   34  O   UNL     1      -5.818  14.938  69.579  1.00  0.00    -0.096 OA 
ENDBRANCH  31  32
ENDBRANCH  10  31
BRANCH   9  35
HETATM   35  N   UNL     1      -7.670  16.203  68.018  1.00  0.00    -0.135 N  
HETATM   36  C   UNL     1      -6.513  16.718  68.972  1.00  0.00    -0.195 C  
HETATM   37  C   UNL     1      -6.738  17.136  65.807  1.00  0.00     0.380 C  
HETATM   38  C   UNL     1      -7.061  15.895  66.638  1.00  0.00     0.198 C  
HETATM   39  C   UNL     1      -7.935  18.060  65.698  1.00  0.00     0.329 C  
HETATM   40  C   UNL     1      -8.288  18.541  67.090  1.00  0.00    -0.253 C  
HETATM   41  C   UNL     1      -8.689  17.357  67.976  1.00  0.00    -0.241 C  
ENDBRANCH   9  35
TORSDOF 6
ENDMDL
MODEL      109
REMARK 921   NORMALIZED FREE ENERGY PREDICTED BY IDOCK:   35.60 KCAL/MOL
REMARK 922        TOTAL FREE ENERGY PREDICTED BY IDOCK:   46.49 KCAL/MOL
REMARK 923 INTER-LIGAND FREE ENERGY PREDICTED BY IDOCK:   44.78 KCAL/MOL
REMARK 924 INTRA-LIGAND FREE ENERGY PREDICTED BY IDOCK:    1.71 KCAL/MOL
REMARK 927      BINDING AFFINITY PREDICTED BY RF-SCORE:    0.00 PKD
ROOT
HETATM    1  C   UNL     1     -11.599  10.356  65.149  1.00  0.00     2.290 C  
HETATM    2  C   UNL     1     -12.613  11.294  65.637  1.00  0.00     3.284 C  
HETATM    3  C   UNL     1     -11.461  12.275  65.397  1.00  0.00    -0.354 C  
HETATM    4  C   UNL     1      -8.693  10.212  69.416  1.00  0.00    -0.186 C  
HETATM    5  C   UNL     1      -9.727  11.201  65.042  1.00  0.00    -0.253 C  
HETATM    6  C   UNL     1     -10.659  11.628  64.259  1.00  0.00    -0.394 C  
HETATM    7  C   UNL     1     -10.228  10.423  69.222  1.00  0.00    -0.248 C  
HETATM    8  C   UNL     1     -10.662  11.627  70.284  1.00  0.00     1.115 C  
HETATM    9  C   UNL     1     -11.889  11.342  71.195  1.00  0.00     0.295 C  
HETATM   10  C   UNL     1     -11.673   9.922  71.764  1.00  0.00    -0.111 C  
HETATM   11  C   UNL     1     -12.104   9.073  70.559  1.00  0.00     0.028 C  
HETATM   12  C   UNL     1     -10.758  11.816  62.749  1.00  0.00     0.329 C  
HETATM   13  C   UNL     1      -9.477  12.666  65.469  1.00  0.00     0.068 C  
HETATM   14  C   UNL     1     -10.882   9.023  69.581  1.00  0.00    -0.196 C  
HETATM   15  C   UNL     1     -11.108   8.047  68.430  1.00  0.00     0.327 C  
HETATM   16  C   UNL     1      -9.288  11.887  67.107  1.00  0.00    -0.180 C  
HETATM   17  C   UNL     1     -11.784   8.657  67.224  1.00  0.00     3.058 C  
HETATM   18  C   UNL     1     -10.464  10.884  67.684  1.00  0.00    -0.244 C  
HETATM   19  C   UNL     1     -10.888   9.742  66.623  1.00  0.00    -0.011 C  
ENDROOT
BRANCH   3  20
HETATM   20  N   UNL     1     -11.856  13.910  66.123  1.00  0.00    -0.380 N  
HETATM   21  C   UNL     1     -13.291  14.197  66.939  1.00  0.00     2.952 C  
HETATM   22  C   UNL     1     -13.392  15.639  67.415  1.00  0.00     4.813 C  
HETATM   23  C   UNL     1     -11.719  14.964  65.080  1.00  0.00    -0.329 C  
HETATM   24  C   UNL     1     -13.241  16.583  66.233  1.00  0.00     6.806 C  
HETATM   25  C   UNL     1     -10.804  14.076  67.306  1.00  0.00    -0.284 C  
HETATM   26  C   UNL     1     -11.887  16.380  65.586  1.00  0.00     1.329 C  
ENDBRANCH   3  20
BRANCH   5  27
HETATM   27  O   UNL     1      -8.660  11.421  63.787  1.00  0.00     0.240 OA 
BRANCH  27  28
HETATM   28  C   UNL     1      -7.638  10.626  63.381  1.00  0.00     0.112 C  
HETATM   29  C   UNL     1      -6.364  11.088  64.042  1.00  0.00     0.747 C  
HETATM   30  O   UNL     1      -7.786   9.576  62.779  1.00  0.00    -0.113 OA 
ENDBRANCH  27  28
ENDBRANCH   5  27
BRANCH  10  31
HETATM   31  O   UNL     1     -10.418   9.343  72.176  1.00  0.00     0.005 OA 
BRANCH  31  32
HETATM   32  C   UNL     1     -10.574   8.036  72.658  1.00  0.00    -0.350 C  
HETATM   33  C   UNL     1      -9.861   7.093  71.753  1.00  0.00    -0.171 C  
HETATM   34  O   UNL     1     -11.141   7.740  73.702  1.00  0.00    -0.197 OA 
ENDBRANCH  31  32
ENDBRANCH  10  31
BRANCH   9  35
HETATM   35  N   UNL     1     -12.290  12.459  72.429  1.00  0.00     1.067 N  
HETATM   36  C   UNL     1     -11.609  12.013  73.789  1.00  0.00    14.274 C  
HETATM   37  C   UNL     1     -12.400  14.986  72.909  1.00  0.00    -0.466 C  
HETATM   38  C   UNL     1     -11.783  13.867  72.070  1.00  0.00     1.176 C  
HETATM   39  C   UNL     1     -13.914  14.917  72.901  1.00  0.00    -0.152 C  
HETATM   40  C   UNL     1     -14.330  13.608  73.538  1.00  0.00     4.249 C  
HETATM   41  C   UNL     1     -13.804  12.426  72.717  1.00  0.00     0.839 C  
ENDBRANCH   9  35
TORSDOF 6
ENDMDL
MODEL      110
REMARK 921   NORMALIZED FREE ENERGY PREDICTED BY IDOCK:   37.67 KCAL/MOL
REMARK 922        TOTAL FREE ENERGY PREDICTED BY IDOCK:   49.29 KCAL/MOL
REMARK 923 INTER-LIGAND FREE ENERGY PREDICTED BY IDOCK:   20.84 KCAL/MOL
REMARK 924 INTRA-LIGAND FREE ENERGY PREDICTED BY IDOCK:   28.45 KCAL/MOL
REMARK 927      BINDING AFFINITY PREDICTED BY RF-SCORE:    0.00 PKD
ROOT
HETATM    1  C   UNL     1      -6.504  12.991  68.062  1.00  0.00    -0.120 C  
HETATM    2  C   UNL     1      -6.626  12.614  66.652  1.00  0.00     0.936 C  
HETATM    3  C   UNL     1      -8.045  13.138  66.894  1.00  0.00     0.081 C  
HETATM    4  C   UNL     1      -9.162   9.037  70.058  1.00  0.00    -0.193 C  
HETATM    5  C   UNL     1      -8.321  13.419  68.927  1.00  0.00     0.207 C  
HETATM    6  C   UNL     1      -7.865  14.190  67.998  1.00  0.00    -0.146 C  
HETATM    7  C   UNL     1      -8.275   9.141  68.777  1.00  0.00    -0.109 C  
HETATM    8  C   UNL     1      -9.086   8.303  67.591  1.00  0.00    -0.139 C  
HETATM    9  C   UNL     1      -8.263   7.255  66.792  1.00  0.00    -0.121 C  
HETATM   10  C   UNL     1      -7.483   6.437  67.846  1.00  0.00    -0.094 C  
HETATM   11  C   UNL     1      -6.337   7.411  68.158  1.00  0.00    -0.048 C  
HETATM   12  C   UNL     1      -7.631  15.694  67.902  1.00  0.00    -0.143 C  
HETATM   13  C   UNL     1      -9.641  13.310  68.127  1.00  0.00    -0.227 C  
HETATM   14  C   UNL     1      -6.899   8.459  69.177  1.00  0.00    -0.055 C  
HETATM   15  C   UNL     1      -5.805   9.373  69.723  1.00  0.00    -0.036 C  
HETATM   16  C   UNL     1      -9.528  11.574  68.669  1.00  0.00    -0.146 C  
HETATM   17  C   UNL     1      -5.565  10.614  68.896  1.00  0.00    -0.040 C  
HETATM   18  C   UNL     1      -8.145  10.714  68.401  1.00  0.00    -0.123 C  
HETATM   19  C   UNL     1      -6.819  11.490  68.901  1.00  0.00    -0.095 C  
ENDROOT
BRANCH   3  20
HETATM   20  N   UNL     1      -9.129  12.717  65.478  1.00  0.00     0.386 N  
HETATM   21  C   UNL     1      -8.659  11.632  64.291  1.00  0.00     0.838 C  
HETATM   22  C   UNL     1      -9.720  11.481  63.211  1.00  0.00    -0.405 C  
HETATM   23  C   UNL     1      -9.558  13.967  64.792  1.00  0.00     0.644 C  
HETATM   24  C   UNL     1     -10.038  12.840  62.608  1.00  0.00     3.181 C  
HETATM   25  C   UNL     1     -10.344  11.928  66.137  1.00  0.00    -0.226 C  
HETATM   26  C   UNL     1     -10.569  13.764  63.683  1.00  0.00     1.264 C  
ENDBRANCH   3  20
BRANCH   5  27
HETATM   27  O   UNL     1      -8.923  14.778  69.671  1.00  0.00     0.032 OA 
BRANCH  27  28
HETATM   28  C   UNL     1      -8.445  16.047  69.654  1.00  0.00     0.138 C  
HETATM   29  C   UNL     1      -9.551  16.983  69.240  1.00  0.00    -0.040 C  
HETATM   30  O   UNL     1      -7.371  16.380  70.129  1.00  0.00     0.546 OA 
ENDBRANCH  27  28
ENDBRANCH   5  27
BRANCH  10  31
HETATM   31  O   UNL     1      -7.963   6.026  69.142  1.00  0.00    -0.100 OA 
BRANCH  31  32
HETATM   32  C   UNL     1      -8.585   7.077  69.831  1.00  0.00    -0.141 C  
HETATM   33  C   UNL     1      -8.260   6.972  71.281  1.00  0.00    -0.113 C  
HETATM   34  O   UNL     1      -9.226   7.977  69.302  1.00  0.00    -0.151 OA 
ENDBRANCH  31  32
ENDBRANCH  10  31
BRANCH   9  35
HETATM   35  N   UNL     1      -9.066   6.236  65.676  1.00  0.00    -0.032 N  
HETATM   36  C   UNL     1      -8.935   4.727  66.147  1.00  0.00    -0.122 C  
HETATM   37  C   UNL     1     -11.281   6.004  64.384  1.00  0.00     6.412 C  
HETATM   38  C   UNL     1     -10.562   6.592  65.598  1.00  0.00     1.951 C  
HETATM   39  C   UNL     1     -10.558   6.335  63.094  1.00  0.00     6.662 C  
HETATM   40  C   UNL     1      -9.186   5.697  63.145  1.00  0.00     0.674 C  
HETATM   41  C   UNL     1      -8.370   6.282  64.302  1.00  0.00     0.053 C  
ENDBRANCH   9  35
TORSDOF 6
ENDMDL
MODEL      111
REMARK 921   NORMALIZED FREE ENERGY PREDICTED BY IDOCK:   37.80 KCAL/MOL
REMARK 922        TOTAL FREE ENERGY PREDICTED BY IDOCK:   49.47 KCAL/MOL
REMARK 923 INTER-LIGAND FREE ENERGY PREDICTED BY IDOCK:   44.55 KCAL/MOL
REMARK 924 INTRA-LIGAND FREE ENERGY PREDICTED BY IDOCK:    4.93 KCAL/MOL
REMARK 927      BINDING AFFINITY PREDICTED BY RF-SCORE:    0.00 PKD
ROOT
HETATM    1  C   UNL     1      -7.440  15.099  68.930  1.00  0.00    -0.143 C  
HETATM    2  C   UNL     1      -8.805  14.851  68.462  1.00  0.00    -0.174 C  
HETATM    3  C   UNL     1      -8.909  14.241  69.864  1.00  0.00     1.158 C  
HETATM    4  C   UNL     1      -5.687  10.258  68.508  1.00  0.00    -0.037 C  
HETATM    5  C   UNL     1      -7.009  14.097  70.675  1.00  0.00     0.686 C  
HETATM    6  C   UNL     1      -7.890  15.041  70.688  1.00  0.00     1.346 C  
HETATM    7  C   UNL     1      -6.763  11.040  67.689  1.00  0.00    -0.073 C  
HETATM    8  C   UNL     1      -8.011   9.970  67.435  1.00  0.00    -0.106 C  
HETATM    9  C   UNL     1      -8.526   9.835  65.976  1.00  0.00    -0.124 C  
HETATM   10  C   UNL     1      -7.266   9.695  65.093  1.00  0.00    -0.115 C  
HETATM   11  C   UNL     1      -6.813  11.161  65.022  1.00  0.00     0.745 C  
HETATM   12  C   UNL     1      -8.069  16.298  71.531  1.00  0.00     7.194 C  
HETATM   13  C   UNL     1      -8.050  13.178  71.356  1.00  0.00     9.975 C  
HETATM   14  C   UNL     1      -6.030  11.456  66.345  1.00  0.00    -0.099 C  
HETATM   15  C   UNL     1      -5.354  12.825  66.319  1.00  0.00     2.280 C  
HETATM   16  C   UNL     1      -7.343  11.954  70.205  1.00  0.00     1.493 C  
HETATM   17  C   UNL     1      -6.222  13.953  66.825  1.00  0.00     2.027 C  
HETATM   18  C   UNL     1      -7.243  12.298  68.594  1.00  0.00    -0.105 C  
HETATM   19  C   UNL     1      -6.553  13.730  68.301  1.00  0.00    -0.109 C  
ENDROOT
BRANCH   3  20
HETATM   20  N   UNL     1     -10.474  13.304  70.037  1.00  0.00     1.110 N  
HETATM   21  C   UNL     1     -11.720  13.832  71.025  1.00  0.00     0.126 C  
HETATM   22  C   UNL     1     -12.893  12.862  71.021  1.00  0.00    -0.268 C  
HETATM   23  C   UNL     1     -10.171  11.897  70.418  1.00  0.00     3.058 C  
HETATM   24  C   UNL     1     -12.419  11.479  71.437  1.00  0.00    -0.338 C  
HETATM   25  C   UNL     1     -11.159  13.421  68.606  1.00  0.00    -0.263 C  
HETATM   26  C   UNL     1     -11.375  10.981  70.460  1.00  0.00    -0.116 C  
ENDBRANCH   3  20
BRANCH   5  27
HETATM   27  O   UNL     1      -6.529  14.613  72.181  1.00  0.00     0.601 OA 
BRANCH  27  28
HETATM   28  C   UNL     1      -6.297  13.885  73.302  1.00  0.00     1.482 C  
HETATM   29  C   UNL     1      -7.593  13.715  74.053  1.00  0.00     6.464 C  
HETATM   30  O   UNL     1      -5.263  13.276  73.522  1.00  0.00    -0.387 OA 
ENDBRANCH  27  28
ENDBRANCH   5  27
BRANCH  10  31
HETATM   31  O   UNL     1      -6.064   8.967  65.420  1.00  0.00    -0.060 OA 
BRANCH  31  32
HETATM   32  C   UNL     1      -6.313   7.914  66.311  1.00  0.00    -0.046 C  
HETATM   33  C   UNL     1      -5.917   6.628  65.671  1.00  0.00    -0.034 C  
HETATM   34  O   UNL     1      -6.717   8.050  67.459  1.00  0.00    -0.065 OA 
ENDBRANCH  31  32
ENDBRANCH  10  31
BRANCH   9  35
HETATM   35  N   UNL     1      -9.688   8.633  65.607  1.00  0.00     0.002 N  
HETATM   36  C   UNL     1     -10.683   9.180  64.501  1.00  0.00     5.018 C  
HETATM   37  C   UNL     1      -9.896   6.128  65.053  1.00  0.00     1.431 C  
HETATM   38  C   UNL     1      -9.002   7.368  65.061  1.00  0.00     0.482 C  
HETATM   39  C   UNL     1     -10.523   5.883  66.411  1.00  0.00    -0.178 C  
HETATM   40  C   UNL     1     -11.411   7.065  66.739  1.00  0.00     0.928 C  
HETATM   41  C   UNL     1     -10.578   8.347  66.832  1.00  0.00    -0.215 C  
ENDBRANCH   9  35
TORSDOF 6
ENDMDL
MODEL      112
REMARK 921   NORMALIZED FREE ENERGY PREDICTED BY IDOCK:   39.09 KCAL/MOL
REMARK 922        TOTAL FREE ENERGY PREDICTED BY IDOCK:   51.20 KCAL/MOL
REMARK 923 INTER-LIGAND FREE ENERGY PREDICTED BY IDOCK:   25.03 KCAL/MOL
REMARK 924 INTRA-LIGAND FREE ENERGY PREDICTED BY IDOCK:   26.18 KCAL/MOL
REMARK 927      BINDING AFFINITY PREDICTED BY RF-SCORE:    0.00 PKD
ROOT
HETATM    1  C   UNL     1     -11.785  15.703  68.588  1.00  0.00    -0.364 C  
HETATM    2  C   UNL     1     -10.436  15.199  68.855  1.00  0.00    -0.241 C  
HETATM    3  C   UNL     1     -10.080  16.429  68.014  1.00  0.00    -0.248 C  
HETATM    4  C   UNL     1     -12.112  14.199  63.657  1.00  0.00    -0.053 C  
HETATM    5  C   UNL     1     -11.809  17.177  67.153  1.00  0.00     1.794 C  
HETATM    6  C   UNL     1     -11.233  17.405  68.286  1.00  0.00     0.174 C  
HETATM    7  C   UNL     1     -11.353  13.581  64.875  1.00  0.00    -0.347 C  
HETATM    8  C   UNL     1      -9.871  13.101  64.294  1.00  0.00     0.179 C  
HETATM    9  C   UNL     1      -9.426  11.651  64.634  1.00  0.00    -0.046 C  
HETATM   10  C   UNL     1     -10.645  10.753  64.327  1.00  0.00    -0.155 C  
HETATM   11  C   UNL     1     -11.500  11.009  65.577  1.00  0.00     0.410 C  
HETATM   12  C   UNL     1     -11.368  18.509  69.328  1.00  0.00     2.835 C  
HETATM   13  C   UNL     1     -10.511  17.641  66.451  1.00  0.00    -0.286 C  
HETATM   14  C   UNL     1     -12.254  12.360  65.340  1.00  0.00    -0.386 C  
HETATM   15  C   UNL     1     -13.291  12.638  66.426  1.00  0.00     3.748 C  
HETATM   16  C   UNL     1     -10.908  16.241  65.353  1.00  0.00    -0.284 C  
HETATM   17  C   UNL     1     -12.750  13.388  67.620  1.00  0.00     0.943 C  
HETATM   18  C   UNL     1     -11.198  14.748  65.993  1.00  0.00    -0.341 C  
HETATM   19  C   UNL     1     -12.282  14.779  67.190  1.00  0.00     0.010 C  
ENDROOT
BRANCH   3  20
HETATM   20  N   UNL     1      -8.306  16.396  67.557  1.00  0.00    -0.159 N  
HETATM   21  C   UNL     1      -7.093  16.302  68.710  1.00  0.00    -0.164 C  
HETATM   22  C   UNL     1      -5.710  16.325  68.078  1.00  0.00    -0.119 C  
HETATM   23  C   UNL     1      -7.997  17.560  66.682  1.00  0.00    -0.253 C  
HETATM   24  C   UNL     1      -5.553  17.575  67.227  1.00  0.00    -0.155 C  
HETATM   25  C   UNL     1      -8.119  15.001  66.816  1.00  0.00    -0.026 C  
HETATM   26  C   UNL     1      -6.590  17.575  66.123  1.00  0.00    -0.282 C  
ENDBRANCH   3  20
BRANCH   5  27
HETATM   27  O   UNL     1     -12.324  18.757  67.169  1.00  0.00     3.020 OA 
BRANCH  27  28
HETATM   28  C   UNL     1     -11.826  19.814  67.859  1.00  0.00     2.233 C  
HETATM   29  C   UNL     1     -12.212  21.087  67.152  1.00  0.00     6.576 C  
HETATM   30  O   UNL     1     -11.359  19.738  68.984  1.00  0.00     1.674 OA 
ENDBRANCH  27  28
ENDBRANCH   5  27
BRANCH  10  31
HETATM   31  O   UNL     1     -11.569  10.903  63.229  1.00  0.00     0.496 OA 
BRANCH  31  32
HETATM   32  C   UNL     1     -11.783  12.249  62.902  1.00  0.00     0.275 C  
HETATM   33  C   UNL     1     -13.242  12.478  62.707  1.00  0.00     1.470 C  
HETATM   34  O   UNL     1     -10.910  13.106  62.863  1.00  0.00     0.741 OA 
ENDBRANCH  31  32
ENDBRANCH  10  31
BRANCH   9  35
HETATM   35  N   UNL     1      -7.995  11.030  63.930  1.00  0.00     0.362 N  
HETATM   36  C   UNL     1      -7.610  11.897  62.660  1.00  0.00     1.847 C  
HETATM   37  C   UNL     1      -5.624  10.236  64.540  1.00  0.00    -0.134 C  
HETATM   38  C   UNL     1      -6.829  11.090  64.932  1.00  0.00     0.600 C  
HETATM   39  C   UNL     1      -6.028   8.807  64.238  1.00  0.00    -0.066 C  
HETATM   40  C   UNL     1      -6.963   8.824  63.046  1.00  0.00    -0.090 C  
HETATM   41  C   UNL     1      -8.235   9.610  63.380  1.00  0.00    -0.160 C  
ENDBRANCH   9  35
TORSDOF 6
ENDMDL
MODEL      113
REMARK 921   NORMALIZED FREE ENERGY PREDICTED BY IDOCK:   39.20 KCAL/MOL
REMARK 922        TOTAL FREE ENERGY PREDICTED BY IDOCK:   51.35 KCAL/MOL
REMARK 923 INTER-LIGAND FREE ENERGY PREDICTED BY IDOCK:   38.01 KCAL/MOL
REMARK 924 INTRA-LIGAND FREE ENERGY PREDICTED BY IDOCK:   13.35 KCAL/MOL
REMARK 927      BINDING AFFINITY PREDICTED BY RF-SCORE:    0.00 PKD
ROOT
HETATM    1  C   UNL     1      -6.456   5.219  68.759  1.00  0.00    -0.039 C  
HETATM    2  C   UNL     1      -6.057   6.613  68.553  1.00  0.00    -0.026 C  
HETATM    3  C   UNL     1      -6.577   6.713  69.991  1.00  0.00    -0.048 C  
HETATM    4  C   UNL     1     -11.561   5.911  68.381  1.00  0.00     1.026 C  
HETATM    5  C   UNL     1      -7.571   4.960  70.468  1.00  0.00    -0.062 C  
HETATM    6  C   UNL     1      -6.333   5.311  70.567  1.00  0.00    -0.023 C  
HETATM    7  C   UNL     1     -10.367   6.660  67.708  1.00  0.00    -0.239 C  
HETATM    8  C   UNL     1     -10.758   8.276  67.751  1.00  0.00    -0.165 C  
HETATM    9  C   UNL     1     -10.624   9.060  66.416  1.00  0.00     0.113 C  
HETATM   10  C   UNL     1     -11.303   8.182  65.340  1.00  0.00     7.755 C  
HETATM   11  C   UNL     1     -10.196   7.147  65.089  1.00  0.00     3.262 C  
HETATM   12  C   UNL     1      -5.142   4.752  71.338  1.00  0.00    -0.004 C  
HETATM   13  C   UNL     1      -7.935   6.154  71.383  1.00  0.00    -0.113 C  
HETATM   14  C   UNL     1     -10.304   6.083  66.232  1.00  0.00    -0.037 C  
HETATM   15  C   UNL     1      -9.385   4.888  65.992  1.00  0.00    -0.158 C  
HETATM   16  C   UNL     1      -9.328   6.292  70.216  1.00  0.00    -0.170 C  
HETATM   17  C   UNL     1      -7.995   5.053  66.560  1.00  0.00    -0.107 C  
HETATM   18  C   UNL     1      -9.041   6.353  68.592  1.00  0.00    -0.127 C  
HETATM   19  C   UNL     1      -8.068   5.167  68.084  1.00  0.00    -0.094 C  
ENDROOT
BRANCH   3  20
HETATM   20  N   UNL     1      -6.713   8.468  70.498  1.00  0.00    -0.036 N  
HETATM   21  C   UNL     1      -7.083   9.683  69.405  1.00  0.00    -0.062 C  
HETATM   22  C   UNL     1      -7.103  11.052  70.067  1.00  0.00     0.122 C  
HETATM   23  C   UNL     1      -5.472   8.876  71.213  1.00  0.00    -0.040 C  
HETATM   24  C   UNL     1      -5.767  11.317  70.742  1.00  0.00    -0.083 C  
HETATM   25  C   UNL     1      -8.001   8.506  71.431  1.00  0.00    -0.137 C  
HETATM   26  C   UNL     1      -5.513  10.269  71.804  1.00  0.00     0.088 C  
ENDBRANCH   3  20
BRANCH   5  27
HETATM   27  O   UNL     1      -7.350   4.030  71.828  1.00  0.00    -0.055 OA 
BRANCH  27  28
HETATM   28  C   UNL     1      -8.149   3.062  72.344  1.00  0.00    -0.059 C  
HETATM   29  C   UNL     1      -7.832   1.752  71.669  1.00  0.00    -0.041 C  
HETATM   30  O   UNL     1      -8.827   3.199  73.348  1.00  0.00    -0.079 OA 
ENDBRANCH  27  28
ENDBRANCH   5  27
BRANCH  10  31
HETATM   31  O   UNL     1     -12.497   7.391  65.504  1.00  0.00     9.370 OA 
BRANCH  31  32
HETATM   32  C   UNL     1     -12.236   6.017  65.412  1.00  0.00     5.466 C  
HETATM   33  C   UNL     1     -12.674   5.524  64.077  1.00  0.00     7.671 C  
HETATM   34  O   UNL     1     -11.665   5.355  66.270  1.00  0.00     0.887 OA 
ENDBRANCH  31  32
ENDBRANCH  10  31
BRANCH   9  35
HETATM   35  N   UNL     1     -11.170  10.680  66.340  1.00  0.00     0.116 N  
HETATM   36  C   UNL     1     -12.586  10.795  67.044  1.00  0.00     5.045 C  
HETATM   37  C   UNL     1     -10.384  13.098  66.745  1.00  0.00    -0.252 C  
HETATM   38  C   UNL     1     -10.188  11.616  67.067  1.00  0.00    -0.212 C  
HETATM   39  C   UNL     1     -10.393  13.347  65.250  1.00  0.00    -0.330 C  
HETATM   40  C   UNL     1     -11.573  12.607  64.655  1.00  0.00    -0.392 C  
HETATM   41  C   UNL     1     -11.422  11.098  64.878  1.00  0.00     0.276 C  
ENDBRANCH   9  35
TORSDOF 6
ENDMDL
MODEL      114
REMARK 921   NORMALIZED FREE ENERGY PREDICTED BY IDOCK:   43.86 KCAL/MOL
REMARK 922        TOTAL FREE ENERGY PREDICTED BY IDOCK:   57.65 KCAL/MOL
REMARK 923 INTER-LIGAND FREE ENERGY PREDICTED BY IDOCK:   42.73 KCAL/MOL
REMARK 924 INTRA-LIGAND FREE ENERGY PREDICTED BY IDOCK:   14.92 KCAL/MOL
REMARK 927      BINDING AFFINITY PREDICTED BY RF-SCORE:    0.00 PKD
ROOT
HETATM    1  C   UNL     1      -8.469  15.960  70.975  1.00  0.00     3.764 C  
HETATM    2  C   UNL     1      -7.298  15.620  70.163  1.00  0.00     0.375 C  
HETATM    3  C   UNL     1      -7.896  16.724  69.286  1.00  0.00    -0.050 C  
HETATM    4  C   UNL     1     -12.034  13.663  68.027  1.00  0.00    -0.385 C  
HETATM    5  C   UNL     1      -9.795  17.178  69.979  1.00  0.00     0.902 C  
HETATM    6  C   UNL     1      -8.626  17.632  70.286  1.00  0.00     3.168 C  
HETATM    7  C   UNL     1     -10.535  13.314  68.291  1.00  0.00    -0.257 C  
HETATM    8  C   UNL     1      -9.901  12.872  66.818  1.00  0.00    -0.241 C  
HETATM    9  C   UNL     1      -9.106  11.538  66.774  1.00  0.00    -0.181 C  
HETATM   10  C   UNL     1      -9.975  10.503  67.524  1.00  0.00    -0.172 C  
HETATM   11  C   UNL     1      -9.665  10.885  68.979  1.00  0.00    -0.181 C  
HETATM   12  C   UNL     1      -8.144  18.874  71.028  1.00  0.00     4.493 C  
HETATM   13  C   UNL     1      -9.537  17.630  68.522  1.00  0.00    -0.315 C  
HETATM   14  C   UNL     1     -10.572  12.113  69.327  1.00  0.00     0.041 C  
HETATM   15  C   UNL     1     -10.506  12.473  70.809  1.00  0.00     4.489 C  
HETATM   16  C   UNL     1     -10.357  16.043  68.156  1.00  0.00    -0.260 C  
HETATM   17  C   UNL     1      -9.407  13.448  71.161  1.00  0.00     9.358 C  
HETATM   18  C   UNL     1      -9.818  14.653  68.861  1.00  0.00    -0.211 C  
HETATM   19  C   UNL     1      -9.658  14.786  70.464  1.00  0.00     1.218 C  
ENDROOT
BRANCH   3  20
HETATM   20  N   UNL     1      -7.059  16.767  67.657  1.00  0.00    -0.129 N  
HETATM   21  C   UNL     1      -5.689  17.694  67.386  1.00  0.00    -0.161 C  
HETATM   22  C   UNL     1      -5.208  17.583  65.947  1.00  0.00    -0.138 C  
HETATM   23  C   UNL     1      -8.047  17.116  66.599  1.00  0.00    -0.257 C  
HETATM   24  C   UNL     1      -6.327  17.979  64.998  1.00  0.00     0.346 C  
HETATM   25  C   UNL     1      -6.464  15.301  67.485  1.00  0.00    -0.129 C  
HETATM   26  C   UNL     1      -7.509  17.052  65.186  1.00  0.00     3.054 C  
ENDBRANCH   3  20
BRANCH   5  27
HETATM   27  O   UNL     1     -10.399  18.691  70.305  1.00  0.00     0.888 OA 
BRANCH  27  28
HETATM   28  C   UNL     1      -9.815  19.723  70.966  1.00  0.00     1.982 C  
HETATM   29  C   UNL     1      -9.409  20.778  69.969  1.00  0.00     1.842 C  
HETATM   30  O   UNL     1      -9.843  19.862  72.178  1.00  0.00     2.191 OA 
ENDBRANCH  27  28
ENDBRANCH   5  27
BRANCH  10  31
HETATM   31  O   UNL     1     -11.413  10.397  67.483  1.00  0.00    -0.386 OA 
BRANCH  31  32
HETATM   32  C   UNL     1     -11.967  10.257  68.763  1.00  0.00     0.347 C  
HETATM   33  C   UNL     1     -12.726   8.977  68.830  1.00  0.00     5.308 C  
HETATM   34  O   UNL     1     -11.783  11.032  69.694  1.00  0.00    -0.269 OA 
ENDBRANCH  31  32
ENDBRANCH  10  31
BRANCH   9  35
HETATM   35  N   UNL     1      -8.573  10.933  65.264  1.00  0.00    -0.145 N  
HETATM   36  C   UNL     1      -7.838  12.085  64.462  1.00  0.00     3.088 C  
HETATM   37  C   UNL     1      -7.336   8.935  64.212  1.00  0.00    -0.100 C  
HETATM   38  C   UNL     1      -7.581   9.773  65.466  1.00  0.00    -0.118 C  
HETATM   39  C   UNL     1      -8.637   8.459  63.597  1.00  0.00     0.112 C  
HETATM   40  C   UNL     1      -9.429   9.676  63.167  1.00  0.00     0.179 C  
HETATM   41  C   UNL     1      -9.774  10.542  64.382  1.00  0.00    -0.328 C  
ENDBRANCH   9  35
TORSDOF 6
ENDMDL
MODEL      115
REMARK 921   NORMALIZED FREE ENERGY PREDICTED BY IDOCK:   48.53 KCAL/MOL
REMARK 922        TOTAL FREE ENERGY PREDICTED BY IDOCK:   63.96 KCAL/MOL
REMARK 923 INTER-LIGAND FREE ENERGY PREDICTED BY IDOCK:   55.11 KCAL/MOL
REMARK 924 INTRA-LIGAND FREE ENERGY PREDICTED BY IDOCK:    8.84 KCAL/MOL
REMARK 927      BINDING AFFINITY PREDICTED BY RF-SCORE:    0.00 PKD
ROOT
HETATM    1  C   UNL     1      -9.684  15.857  70.964  1.00  0.00     2.030 C  
HETATM    2  C   UNL     1      -8.841  16.146  69.802  1.00  0.00     0.370 C  
HETATM    3  C   UNL     1     -10.086  16.948  69.411  1.00  0.00    -0.162 C  
HETATM    4  C   UNL     1     -12.875  12.503  68.673  1.00  0.00     1.796 C  
HETATM    5  C   UNL     1     -11.635  16.449  70.692  1.00  0.00    -0.087 C  
HETATM    6  C   UNL     1     -10.706  17.343  70.759  1.00  0.00     1.414 C  
HETATM    7  C   UNL     1     -11.370  12.831  68.420  1.00  0.00    -0.331 C  
HETATM    8  C   UNL     1     -11.179  12.853  66.768  1.00  0.00    -0.337 C  
HETATM    9  C   UNL     1     -10.001  12.018  66.191  1.00  0.00    -0.231 C  
HETATM   10  C   UNL     1     -10.078  10.642  66.889  1.00  0.00    -0.214 C  
HETATM   11  C   UNL     1      -9.448  10.985  68.248  1.00  0.00    -0.172 C  
HETATM   12  C   UNL     1     -10.513  18.595  71.607  1.00  0.00     3.396 C  
HETATM   13  C   UNL     1     -12.104  17.101  69.369  1.00  0.00     2.630 C  
HETATM   14  C   UNL     1     -10.572  11.647  69.113  1.00  0.00    -0.147 C  
HETATM   15  C   UNL     1     -10.133  11.861  70.559  1.00  0.00     3.878 C  
HETATM   16  C   UNL     1     -12.320  15.357  68.885  1.00  0.00     0.006 C  
HETATM   17  C   UNL     1      -9.448  13.184  70.809  1.00  0.00     7.362 C  
HETATM   18  C   UNL     1     -11.074  14.290  69.065  1.00  0.00    -0.284 C  
HETATM   19  C   UNL     1     -10.424  14.331  70.544  1.00  0.00     1.051 C  
ENDROOT
BRANCH   3  20
HETATM   20  N   UNL     1      -9.963  17.507  67.670  1.00  0.00    -0.297 N  
HETATM   21  C   UNL     1      -9.007  18.808  67.221  1.00  0.00    -0.287 C  
HETATM   22  C   UNL     1      -9.103  19.091  65.729  1.00  0.00     0.352 C  
HETATM   23  C   UNL     1     -11.329  17.752  67.130  1.00  0.00     0.727 C  
HETATM   24  C   UNL     1     -10.555  19.325  65.342  1.00  0.00     0.036 C  
HETATM   25  C   UNL     1      -9.212  16.316  66.930  1.00  0.00    -0.218 C  
HETATM   26  C   UNL     1     -11.373  18.090  65.655  1.00  0.00     1.236 C  
ENDBRANCH   3  20
BRANCH   5  27
HETATM   27  O   UNL     1     -12.619  17.502  71.520  1.00  0.00     4.801 OA 
BRANCH  27  28
HETATM   28  C   UNL     1     -12.295  18.652  72.163  1.00  0.00    11.557 C  
HETATM   29  C   UNL     1     -12.500  18.461  73.644  1.00  0.00     4.994 C  
HETATM   30  O   UNL     1     -11.710  19.586  71.641  1.00  0.00     7.454 OA 
ENDBRANCH  27  28
ENDBRANCH   5  27
BRANCH  10  31
HETATM   31  O   UNL     1     -11.277   9.915  67.228  1.00  0.00    -0.125 OA 
BRANCH  31  32
HETATM   32  C   UNL     1     -10.995   8.714  67.892  1.00  0.00     0.149 C  
HETATM   33  C   UNL     1     -10.693   7.658  66.886  1.00  0.00    -0.271 C  
HETATM   34  O   UNL     1     -10.932   8.586  69.109  1.00  0.00    -0.090 OA 
ENDBRANCH  31  32
ENDBRANCH  10  31
BRANCH   9  35
HETATM   35  N   UNL     1      -9.845  11.854  64.495  1.00  0.00    -0.217 N  
HETATM   36  C   UNL     1      -9.710  13.289  63.834  1.00  0.00     1.355 C  
HETATM   37  C   UNL     1      -8.559  10.526  62.704  1.00  0.00    -0.234 C  
HETATM   38  C   UNL     1      -8.589  11.037  64.144  1.00  0.00     0.158 C  
HETATM   39  C   UNL     1      -9.830   9.778  62.352  1.00  0.00     0.573 C  
HETATM   40  C   UNL     1     -10.989  10.746  62.452  1.00  0.00     1.731 C  
HETATM   41  C   UNL     1     -11.131  11.260  63.888  1.00  0.00    -0.238 C  
ENDBRANCH   9  35
TORSDOF 6
ENDMDL
MODEL      116
REMARK 921   NORMALIZED FREE ENERGY PREDICTED BY IDOCK:   49.35 KCAL/MOL
REMARK 922        TOTAL FREE ENERGY PREDICTED BY IDOCK:   65.07 KCAL/MOL
REMARK 923 INTER-LIGAND FREE ENERGY PREDICTED BY IDOCK:   60.38 KCAL/MOL
REMARK 924 INTRA-LIGAND FREE ENERGY PREDICTED BY IDOCK:    4.69 KCAL/MOL
REMARK 927      BINDING AFFINITY PREDICTED BY RF-SCORE:    0.00 PKD
ROOT
HETATM    1  C   UNL     1     -11.145  14.779  65.714  1.00  0.00    -0.338 C  
HETATM    2  C   UNL     1     -10.002  15.622  65.358  1.00  0.00    -0.311 C  
HETATM    3  C   UNL     1      -9.259  14.474  66.048  1.00  0.00    -0.063 C  
HETATM    4  C   UNL     1     -11.240  15.855  70.765  1.00  0.00    -0.398 C  
HETATM    5  C   UNL     1     -10.637  13.264  67.009  1.00  0.00    -0.259 C  
HETATM    6  C   UNL     1     -10.162  13.256  65.809  1.00  0.00    -0.296 C  
HETATM    7  C   UNL     1     -10.806  16.716  69.536  1.00  0.00    -0.285 C  
HETATM    8  C   UNL     1      -9.427  17.519  70.004  1.00  0.00     1.541 C  
HETATM    9  C   UNL     1      -9.393  19.052  69.750  1.00  0.00     0.637 C  
HETATM   10  C   UNL     1     -10.749  19.594  70.255  1.00  0.00     1.832 C  
HETATM   11  C   UNL     1     -11.658  19.205  69.079  1.00  0.00     3.711 C  
HETATM   12  C   UNL     1     -10.147  12.218  64.693  1.00  0.00    -0.275 C  
HETATM   13  C   UNL     1      -9.191  13.102  67.534  1.00  0.00    -0.206 C  
HETATM   14  C   UNL     1     -12.025  17.695  69.272  1.00  0.00     3.819 C  
HETATM   15  C   UNL     1     -13.085  17.231  68.276  1.00  0.00     6.021 C  
HETATM   16  C   UNL     1      -9.785  14.288  68.785  1.00  0.00    -0.173 C  
HETATM   17  C   UNL     1     -12.524  16.714  66.972  1.00  0.00     3.341 C  
HETATM   18  C   UNL     1     -10.504  15.695  68.311  1.00  0.00    -0.252 C  
HETATM   19  C   UNL     1     -11.683  15.463  67.230  1.00  0.00     0.006 C  
ENDROOT
BRANCH   3  20
HETATM   20  N   UNL     1      -7.505  14.926  66.325  1.00  0.00     1.627 N  
HETATM   21  C   UNL     1      -6.938  15.409  67.827  1.00  0.00    -0.183 C  
HETATM   22  C   UNL     1      -5.459  15.761  67.786  1.00  0.00    -0.150 C  
HETATM   23  C   UNL     1      -7.098  15.966  65.341  1.00  0.00     5.652 C  
HETATM   24  C   UNL     1      -5.214  16.837  66.741  1.00  0.00    -0.071 C  
HETATM   25  C   UNL     1      -6.715  13.557  66.137  1.00  0.00     4.478 C  
HETATM   26  C   UNL     1      -5.629  16.329  65.376  1.00  0.00     4.731 C  
ENDBRANCH   3  20
BRANCH   5  27
HETATM   27  O   UNL     1     -10.750  11.609  66.907  1.00  0.00    -0.233 OA 
BRANCH  27  28
HETATM   28  C   UNL     1      -9.819  10.667  67.202  1.00  0.00    -0.175 C  
HETATM   29  C   UNL     1      -9.780   9.650  66.090  1.00  0.00    -0.317 C  
HETATM   30  O   UNL     1      -8.996  10.774  68.096  1.00  0.00    -0.132 OA 
ENDBRANCH  27  28
ENDBRANCH   5  27
BRANCH  10  31
HETATM   31  O   UNL     1     -11.471  19.150  71.423  1.00  0.00     4.887 OA 
BRANCH  31  32
HETATM   32  C   UNL     1     -10.667  19.154  72.571  1.00  0.00     3.808 C  
HETATM   33  C   UNL     1     -10.564  17.766  73.100  1.00  0.00     4.326 C  
HETATM   34  O   UNL     1     -10.085  20.137  73.014  1.00  0.00     2.553 OA 
ENDBRANCH  31  32
ENDBRANCH  10  31
BRANCH   9  35
HETATM   35  N   UNL     1      -8.084  19.971  70.358  1.00  0.00     1.012 N  
HETATM   36  C   UNL     1      -7.851  21.237  69.432  1.00  0.00     3.864 C  
HETATM   37  C   UNL     1      -7.157  20.966  72.545  1.00  0.00     3.545 C  
HETATM   38  C   UNL     1      -8.385  20.462  71.786  1.00  0.00     2.231 C  
HETATM   39  C   UNL     1      -6.036  19.946  72.528  1.00  0.00     0.900 C  
HETATM   40  C   UNL     1      -5.610  19.738  71.090  1.00  0.00    -0.316 C  
HETATM   41  C   UNL     1      -6.772  19.169  70.269  1.00  0.00     0.292 C  
ENDBRANCH   9  35
TORSDOF 6
ENDMDL
MODEL      117
REMARK 921   NORMALIZED FREE ENERGY PREDICTED BY IDOCK:   50.72 KCAL/MOL
REMARK 922        TOTAL FREE ENERGY PREDICTED BY IDOCK:   66.93 KCAL/MOL
REMARK 923 INTER-LIGAND FREE ENERGY PREDICTED BY IDOCK:   63.02 KCAL/MOL
REMARK 924 INTRA-LIGAND FREE ENERGY PREDICTED BY IDOCK:    3.91 KCAL/MOL
REMARK 927      BINDING AFFINITY PREDICTED BY RF-SCORE:    0.00 PKD
ROOT
HETATM    1  C   UNL     1      -9.905  16.791  65.368  1.00  0.00     0.210 C  
HETATM    2  C   UNL     1     -10.122  15.343  65.335  1.00  0.00    -0.394 C  
HETATM    3  C   UNL     1     -11.335  15.757  66.174  1.00  0.00     0.143 C  
HETATM    4  C   UNL     1      -8.221  17.115  70.240  1.00  0.00     2.868 C  
HETATM    5  C   UNL     1     -11.124  17.742  66.724  1.00  0.00     0.388 C  
HETATM    6  C   UNL     1     -11.648  17.180  65.688  1.00  0.00     1.519 C  
HETATM    7  C   UNL     1      -8.096  15.975  69.181  1.00  0.00    -0.238 C  
HETATM    8  C   UNL     1      -8.363  14.555  70.004  1.00  0.00     0.834 C  
HETATM    9  C   UNL     1      -7.320  13.422  69.794  1.00  0.00     0.684 C  
HETATM   10  C   UNL     1      -5.935  14.089  69.940  1.00  0.00    -0.133 C  
HETATM   11  C   UNL     1      -5.802  14.756  68.562  1.00  0.00    -0.097 C  
HETATM   12  C   UNL     1     -12.595  17.665  64.596  1.00  0.00     8.002 C  
HETATM   13  C   UNL     1     -12.124  16.954  67.602  1.00  0.00     1.718 C  
HETATM   14  C   UNL     1      -6.614  16.093  68.627  1.00  0.00    -0.126 C  
HETATM   15  C   UNL     1      -6.404  16.953  67.383  1.00  0.00    -0.184 C  
HETATM   16  C   UNL     1     -10.660  16.795  68.677  1.00  0.00    -0.353 C  
HETATM   17  C   UNL     1      -7.372  16.661  66.260  1.00  0.00    -0.116 C  
HETATM   18  C   UNL     1      -9.240  16.228  68.058  1.00  0.00    -0.196 C  
HETATM   19  C   UNL     1      -8.797  16.992  66.705  1.00  0.00    -0.282 C  
ENDROOT
BRANCH   3  20
HETATM   20  N   UNL     1     -12.140  14.281  66.903  1.00  0.00    -0.440 N  
HETATM   21  C   UNL     1     -12.991  14.355  68.345  1.00  0.00     1.764 C  
HETATM   22  C   UNL     1     -13.532  12.993  68.751  1.00  0.00     4.764 C  
HETATM   23  C   UNL     1     -11.142  13.184  67.032  1.00  0.00    -0.279 C  
HETATM   24  C   UNL     1     -12.391  11.993  68.845  1.00  0.00     0.186 C  
HETATM   25  C   UNL     1     -13.311  13.932  65.884  1.00  0.00     0.721 C  
HETATM   26  C   UNL     1     -11.713  11.862  67.498  1.00  0.00    -0.335 C  
ENDBRANCH   3  20
BRANCH   5  27
HETATM   27  O   UNL     1     -12.261  18.944  66.567  1.00  0.00     3.104 OA 
BRANCH  27  28
HETATM   28  C   UNL     1     -12.124  20.192  66.052  1.00  0.00     3.459 C  
HETATM   29  C   UNL     1     -12.061  21.186  67.183  1.00  0.00     6.996 C  
HETATM   30  O   UNL     1     -11.856  20.424  64.885  1.00  0.00     0.982 OA 
ENDBRANCH  27  28
ENDBRANCH   5  27
BRANCH  10  31
HETATM   31  O   UNL     1      -5.576  15.129  70.873  1.00  0.00    -0.132 OA 
BRANCH  31  32
HETATM   32  C   UNL     1      -6.337  15.068  72.048  1.00  0.00     1.175 C  
HETATM   33  C   UNL     1      -5.441  15.256  73.222  1.00  0.00     0.686 C  
HETATM   34  O   UNL     1      -7.557  14.955  72.086  1.00  0.00     3.013 OA 
ENDBRANCH  31  32
ENDBRANCH  10  31
BRANCH   9  35
HETATM   35  N   UNL     1      -7.433  11.997  70.736  1.00  0.00     3.750 N  
HETATM   36  C   UNL     1      -8.208  12.313  72.082  1.00  0.00    17.880 C  
HETATM   37  C   UNL     1      -8.045   9.503  70.561  1.00  0.00    -0.199 C  
HETATM   38  C   UNL     1      -8.206  10.905  69.975  1.00  0.00     0.933 C  
HETATM   39  C   UNL     1      -6.584   9.137  70.736  1.00  0.00    -0.074 C  
HETATM   40  C   UNL     1      -5.972  10.103  71.729  1.00  0.00     0.358 C  
HETATM   41  C   UNL     1      -6.034  11.534  71.186  1.00  0.00     0.460 C  
ENDBRANCH   9  35
TORSDOF 6
ENDMDL
MODEL      118
REMARK 921   NORMALIZED FREE ENERGY PREDICTED BY IDOCK:   50.95 KCAL/MOL
REMARK 922        TOTAL FREE ENERGY PREDICTED BY IDOCK:   67.23 KCAL/MOL
REMARK 923 INTER-LIGAND FREE ENERGY PREDICTED BY IDOCK:   40.46 KCAL/MOL
REMARK 924 INTRA-LIGAND FREE ENERGY PREDICTED BY IDOCK:   26.77 KCAL/MOL
REMARK 927      BINDING AFFINITY PREDICTED BY RF-SCORE:    0.00 PKD
ROOT
HETATM    1  C   UNL     1     -11.483  14.341  71.730  1.00  0.00     0.701 C  
HETATM    2  C   UNL     1     -10.253  13.603  72.024  1.00  0.00     8.297 C  
HETATM    3  C   UNL     1      -9.642  14.898  71.480  1.00  0.00     3.319 C  
HETATM    4  C   UNL     1     -11.381  13.820  66.592  1.00  0.00    -0.340 C  
HETATM    5  C   UNL     1     -11.141  16.037  70.618  1.00  0.00    -0.330 C  
HETATM    6  C   UNL     1     -10.686  15.969  71.824  1.00  0.00     0.986 C  
HETATM    7  C   UNL     1     -10.865  12.886  67.733  1.00  0.00    -0.248 C  
HETATM    8  C   UNL     1      -9.394  12.305  67.218  1.00  0.00    -0.185 C  
HETATM    9  C   UNL     1      -9.183  10.768  67.307  1.00  0.00    -0.147 C  
HETATM   10  C   UNL     1     -10.458  10.131  66.712  1.00  0.00    -0.204 C  
HETATM   11  C   UNL     1     -11.422  10.280  67.898  1.00  0.00    -0.030 C  
HETATM   12  C   UNL     1     -10.809  16.874  73.045  1.00  0.00     3.231 C  
HETATM   13  C   UNL     1      -9.717  16.423  70.152  1.00  0.00     0.781 C  
HETATM   14  C   UNL     1     -11.963  11.749  67.859  1.00  0.00    -0.168 C  
HETATM   15  C   UNL     1     -13.084  11.975  68.870  1.00  0.00     2.709 C  
HETATM   16  C   UNL     1     -10.149  15.320  68.766  1.00  0.00    -0.219 C  
HETATM   17  C   UNL     1     -12.606  12.408  70.236  1.00  0.00    -0.021 C  
HETATM   18  C   UNL     1     -10.703  13.795  69.068  1.00  0.00    -0.209 C  
HETATM   19  C   UNL     1     -11.915  13.769  70.136  1.00  0.00    -0.404 C  
ENDROOT
BRANCH   3  20
HETATM   20  N   UNL     1      -7.843  14.686  71.202  1.00  0.00     2.323 N  
HETATM   21  C   UNL     1      -7.240  13.614  70.064  1.00  0.00     0.693 C  
HETATM   22  C   UNL     1      -5.718  13.601  70.051  1.00  0.00    -0.128 C  
HETATM   23  C   UNL     1      -7.172  14.384  72.496  1.00  0.00     4.051 C  
HETATM   24  C   UNL     1      -5.195  13.270  71.440  1.00  0.00    -0.185 C  
HETATM   25  C   UNL     1      -7.378  16.074  70.578  1.00  0.00     1.579 C  
HETATM   26  C   UNL     1      -5.662  14.320  72.426  1.00  0.00    -0.018 C  
ENDBRANCH   3  20
BRANCH   5  27
HETATM   27  O   UNL     1     -11.450  17.647  70.894  1.00  0.00     1.736 OA 
BRANCH  27  28
HETATM   28  C   UNL     1     -11.514  18.318  72.071  1.00  0.00     4.094 C  
HETATM   29  C   UNL     1     -10.586  19.504  72.012  1.00  0.00     4.005 C  
HETATM   30  O   UNL     1     -12.362  18.120  72.926  1.00  0.00     3.906 OA 
ENDBRANCH  27  28
ENDBRANCH   5  27
BRANCH  10  31
HETATM   31  O   UNL     1     -11.211  10.612  65.580  1.00  0.00     0.212 OA 
BRANCH  31  32
HETATM   32  C   UNL     1     -12.000  11.724  65.907  1.00  0.00     0.293 C  
HETATM   33  C   UNL     1     -11.836  12.766  64.855  1.00  0.00    -0.424 C  
HETATM   34  O   UNL     1     -12.759  11.785  66.866  1.00  0.00     1.220 OA 
ENDBRANCH  31  32
ENDBRANCH  10  31
BRANCH   9  35
HETATM   35  N   UNL     1      -7.766  10.079  66.639  1.00  0.00    -0.103 N  
HETATM   36  C   UNL     1      -6.828  11.231  66.084  1.00  0.00     0.066 C  
HETATM   37  C   UNL     1      -5.927   8.350  67.145  1.00  0.00    -0.054 C  
HETATM   38  C   UNL     1      -6.989   9.294  67.710  1.00  0.00    -0.081 C  
HETATM   39  C   UNL     1      -6.505   7.432  66.087  1.00  0.00    -0.045 C  
HETATM   40  C   UNL     1      -6.992   8.287  64.936  1.00  0.00    -0.074 C  
HETATM   41  C   UNL     1      -8.111   9.223  65.405  1.00  0.00    -0.122 C  
ENDBRANCH   9  35
TORSDOF 6
ENDMDL
MODEL      119
REMARK 921   NORMALIZED FREE ENERGY PREDICTED BY IDOCK:   60.74 KCAL/MOL
REMARK 922        TOTAL FREE ENERGY PREDICTED BY IDOCK:   80.45 KCAL/MOL
REMARK 923 INTER-LIGAND FREE ENERGY PREDICTED BY IDOCK:   70.73 KCAL/MOL
REMARK 924 INTRA-LIGAND FREE ENERGY PREDICTED BY IDOCK:    9.73 KCAL/MOL
REMARK 927      BINDING AFFINITY PREDICTED BY RF-SCORE:    0.00 PKD
ROOT
HETATM    1  C   UNL     1      -7.472  12.517  68.619  1.00  0.00    -0.090 C  
HETATM    2  C   UNL     1      -7.307  13.716  69.443  1.00  0.00     0.220 C  
HETATM    3  C   UNL     1      -8.566  13.137  70.096  1.00  0.00     3.773 C  
HETATM    4  C   UNL     1     -11.448  14.184  65.774  1.00  0.00    -0.327 C  
HETATM    5  C   UNL     1      -9.290  11.600  68.912  1.00  0.00     0.047 C  
HETATM    6  C   UNL     1      -8.431  11.624  69.874  1.00  0.00     1.932 C  
HETATM    7  C   UNL     1     -10.258  14.952  66.432  1.00  0.00    -0.292 C  
HETATM    8  C   UNL     1     -10.908  16.345  67.067  1.00  0.00    -0.145 C  
HETATM    9  C   UNL     1     -10.187  17.675  66.711  1.00  0.00    -0.335 C  
HETATM   10  C   UNL     1      -9.937  17.626  65.187  1.00  0.00     1.230 C  
HETATM   11  C   UNL     1      -8.711  16.702  65.137  1.00  0.00     2.376 C  
HETATM   12  C   UNL     1      -7.818  10.546  70.762  1.00  0.00     1.720 C  
HETATM   13  C   UNL     1     -10.337  12.179  69.892  1.00  0.00     1.304 C  
HETATM   14  C   UNL     1      -9.247  15.235  65.242  1.00  0.00     0.658 C  
HETATM   15  C   UNL     1      -8.146  14.204  65.008  1.00  0.00     7.129 C  
HETATM   16  C   UNL     1     -10.801  13.150  68.421  1.00  0.00    -0.283 C  
HETATM   17  C   UNL     1      -7.399  13.801  66.258  1.00  0.00     2.863 C  
HETATM   18  C   UNL     1      -9.651  14.001  67.599  1.00  0.00    -0.221 C  
HETATM   19  C   UNL     1      -8.355  13.110  67.232  1.00  0.00    -0.182 C  
ENDROOT
BRANCH   3  20
HETATM   20  N   UNL     1      -9.308  14.358  71.243  1.00  0.00     3.917 N  
HETATM   21  C   UNL     1      -9.651  13.982  72.840  1.00  0.00    10.074 C  
HETATM   22  C   UNL     1     -10.291  15.152  73.571  1.00  0.00     4.676 C  
HETATM   23  C   UNL     1     -10.551  14.914  70.642  1.00  0.00     0.161 C  
HETATM   24  C   UNL     1     -11.547  15.593  72.836  1.00  0.00    -0.408 C  
HETATM   25  C   UNL     1      -8.172  15.455  71.434  1.00  0.00     4.148 C  
HETATM   26  C   UNL     1     -11.189  16.035  71.433  1.00  0.00    -0.239 C  
ENDBRANCH   3  20
BRANCH   5  27
HETATM   27  O   UNL     1      -9.714  10.073  69.414  1.00  0.00    -0.200 OA 
BRANCH  27  28
HETATM   28  C   UNL     1     -10.837   9.663  70.055  1.00  0.00    -0.264 C  
HETATM   29  C   UNL     1     -10.468   9.190  71.438  1.00  0.00    -0.414 C  
HETATM   30  O   UNL     1     -11.970   9.874  69.654  1.00  0.00    -0.000 OA 
ENDBRANCH  27  28
ENDBRANCH   5  27
BRANCH  10  31
HETATM   31  O   UNL     1     -10.827  17.089  64.187  1.00  0.00    -0.332 OA 
BRANCH  31  32
HETATM   32  C   UNL     1     -11.987  16.542  64.754  1.00  0.00     0.979 C  
HETATM   33  C   UNL     1     -12.372  15.320  63.994  1.00  0.00     0.046 C  
HETATM   34  O   UNL     1     -12.540  16.965  65.761  1.00  0.00     3.903 OA 
ENDBRANCH  31  32
ENDBRANCH  10  31
BRANCH   9  35
HETATM   35  N   UNL     1     -10.893  19.161  67.184  1.00  0.00    -0.460 N  
HETATM   36  C   UNL     1      -9.850  19.994  68.039  1.00  0.00    -0.394 C  
HETATM   37  C   UNL     1     -12.240  21.145  66.250  1.00  0.00     7.114 C  
HETATM   38  C   UNL     1     -11.284  19.991  65.949  1.00  0.00     0.420 C  
HETATM   39  C   UNL     1     -13.460  20.673  67.016  1.00  0.00     6.055 C  
HETATM   40  C   UNL     1     -12.996  20.125  68.349  1.00  0.00     6.750 C  
HETATM   41  C   UNL     1     -12.078  18.917  68.138  1.00  0.00     3.818 C  
ENDBRANCH   9  35
TORSDOF 6
ENDMDL
MODEL      120
REMARK 921   NORMALIZED FREE ENERGY PREDICTED BY IDOCK:   60.75 KCAL/MOL
REMARK 922        TOTAL FREE ENERGY PREDICTED BY IDOCK:   80.47 KCAL/MOL
REMARK 923 INTER-LIGAND FREE ENERGY PREDICTED BY IDOCK:   78.66 KCAL/MOL
REMARK 924 INTRA-LIGAND FREE ENERGY PREDICTED BY IDOCK:    1.81 KCAL/MOL
REMARK 927      BINDING AFFINITY PREDICTED BY RF-SCORE:    0.00 PKD
ROOT
HETATM    1  C   UNL     1      -8.847  14.495  67.733  1.00  0.00    -0.183 C  
HETATM    2  C   UNL     1      -8.438  13.265  67.050  1.00  0.00    -0.138 C  
HETATM    3  C   UNL     1      -9.684  13.605  66.226  1.00  0.00    -0.283 C  
HETATM    4  C   UNL     1     -12.853  12.527  70.334  1.00  0.00     0.180 C  
HETATM    5  C   UNL     1     -10.728  15.118  67.180  1.00  0.00    -0.310 C  
HETATM    6  C   UNL     1      -9.774  15.135  66.310  1.00  0.00    -0.315 C  
HETATM    7  C   UNL     1     -11.508  11.882  69.872  1.00  0.00    -0.264 C  
HETATM    8  C   UNL     1     -11.896  10.363  69.316  1.00  0.00    -0.165 C  
HETATM    9  C   UNL     1     -11.048   9.183  69.868  1.00  0.00    -0.159 C  
HETATM   10  C   UNL     1     -10.974   9.394  71.397  1.00  0.00    -0.373 C  
HETATM   11  C   UNL     1      -9.893  10.483  71.473  1.00  0.00     4.226 C  
HETATM   12  C   UNL     1      -9.217  16.210  65.384  1.00  0.00     0.472 C  
HETATM   13  C   UNL     1     -11.578  14.317  66.165  1.00  0.00    -0.374 C  
HETATM   14  C   UNL     1     -10.603  11.845  71.174  1.00  0.00     5.117 C  
HETATM   15  C   UNL     1      -9.679  13.038  71.411  1.00  0.00    11.618 C  
HETATM   16  C   UNL     1     -12.065  13.416  67.673  1.00  0.00    -0.311 C  
HETATM   17  C   UNL     1      -8.862  13.436  70.205  1.00  0.00     3.502 C  
HETATM   18  C   UNL     1     -10.909  12.808  68.680  1.00  0.00    -0.284 C  
HETATM   19  C   UNL     1      -9.789  13.901  69.081  1.00  0.00     0.158 C  
ENDROOT
BRANCH   3  20
HETATM   20  N   UNL     1     -10.130  12.200  65.138  1.00  0.00    -0.264 N  
HETATM   21  C   UNL     1     -11.583  11.380  65.296  1.00  0.00     0.121 C  
HETATM   22  C   UNL     1     -11.698  10.237  64.299  1.00  0.00     4.145 C  
HETATM   23  C   UNL     1      -9.042  11.185  65.166  1.00  0.00    -0.144 C  
HETATM   24  C   UNL     1     -10.520   9.290  64.462  1.00  0.00     3.109 C  
HETATM   25  C   UNL     1     -10.318  12.862  63.703  1.00  0.00     0.036 C  
HETATM   26  C   UNL     1      -9.227  10.033  64.201  1.00  0.00    -0.319 C  
ENDBRANCH   3  20
BRANCH   5  27
HETATM   27  O   UNL     1     -11.293  16.522  66.493  1.00  0.00     0.272 OA 
BRANCH  27  28
HETATM   28  C   UNL     1     -10.732  17.758  66.483  1.00  0.00    -0.110 C  
HETATM   29  C   UNL     1     -11.765  18.762  66.040  1.00  0.00     2.559 C  
HETATM   30  O   UNL     1      -9.651  18.022  66.983  1.00  0.00    -0.271 OA 
ENDBRANCH  27  28
ENDBRANCH   5  27
BRANCH  10  31
HETATM   31  O   UNL     1     -12.030   9.881  72.249  1.00  0.00     0.051 OA 
BRANCH  31  32
HETATM   32  C   UNL     1     -12.244   9.044  73.353  1.00  0.00     2.480 C  
HETATM   33  C   UNL     1     -11.446   9.544  74.508  1.00  0.00    15.551 C  
HETATM   34  O   UNL     1     -13.025   8.101  73.375  1.00  0.00     0.629 OA 
ENDBRANCH  31  32
ENDBRANCH  10  31
BRANCH   9  35
HETATM   35  N   UNL     1     -11.497   7.578  69.477  1.00  0.00     0.161 N  
HETATM   36  C   UNL     1     -10.726   7.116  68.171  1.00  0.00    -0.160 C  
HETATM   37  C   UNL     1     -11.809   5.252  70.536  1.00  0.00     2.467 C  
HETATM   38  C   UNL     1     -11.130   6.619  70.623  1.00  0.00    -0.298 C  
HETATM   39  C   UNL     1     -13.311   5.386  70.377  1.00  0.00     8.603 C  
HETATM   40  C   UNL     1     -13.585   6.099  69.070  1.00  0.00    12.462 C  
HETATM   41  C   UNL     1     -12.989   7.510  69.098  1.00  0.00     5.466 C  
ENDBRANCH   9  35
TORSDOF 6
ENDMDL
MODEL      121
REMARK 921   NORMALIZED FREE ENERGY PREDICTED BY IDOCK:   64.88 KCAL/MOL
REMARK 922        TOTAL FREE ENERGY PREDICTED BY IDOCK:   86.04 KCAL/MOL
REMARK 923 INTER-LIGAND FREE ENERGY PREDICTED BY IDOCK:   64.50 KCAL/MOL
REMARK 924 INTRA-LIGAND FREE ENERGY PREDICTED BY IDOCK:   21.54 KCAL/MOL
REMARK 927      BINDING AFFINITY PREDICTED BY RF-SCORE:    0.00 PKD
ROOT
HETATM    1  C   UNL     1     -11.781  11.773  69.174  1.00  0.00    -0.388 C  
HETATM    2  C   UNL     1     -10.844  12.518  68.330  1.00  0.00    -0.266 C  
HETATM    3  C   UNL     1      -9.842  11.743  69.191  1.00  0.00     0.223 C  
HETATM    4  C   UNL     1     -11.166  14.548  73.487  1.00  0.00     1.476 C  
HETATM    5  C   UNL     1     -10.854  10.852  70.762  1.00  0.00     0.926 C  
HETATM    6  C   UNL     1     -10.594  10.457  69.562  1.00  0.00    -0.274 C  
HETATM    7  C   UNL     1     -11.071  14.950  71.981  1.00  0.00     0.290 C  
HETATM    8  C   UNL     1      -9.759  15.964  71.861  1.00  0.00     4.565 C  
HETATM    9  C   UNL     1      -9.983  17.307  71.113  1.00  0.00     3.993 C  
HETATM   10  C   UNL     1     -11.296  17.893  71.680  1.00  0.00     3.056 C  
HETATM   11  C   UNL     1     -12.328  17.051  70.914  1.00  0.00     3.482 C  
HETATM   12  C   UNL     1     -10.623   9.096  68.874  1.00  0.00    -0.214 C  
HETATM   13  C   UNL     1      -9.332  10.990  70.999  1.00  0.00     5.262 C  
HETATM   14  C   UNL     1     -12.443  15.683  71.668  1.00  0.00    -0.503 C  
HETATM   15  C   UNL     1     -13.581  14.822  71.125  1.00  0.00    -0.432 C  
HETATM   16  C   UNL     1      -9.864  12.494  71.881  1.00  0.00    15.774 C  
HETATM   17  C   UNL     1     -13.183  13.922  69.979  1.00  0.00     0.690 C  
HETATM   18  C   UNL     1     -10.843  13.588  71.128  1.00  0.00     3.204 C  
HETATM   19  C   UNL     1     -12.144  12.906  70.455  1.00  0.00    -0.364 C  
ENDROOT
BRANCH   3  20
HETATM   20  N   UNL     1      -8.147  12.389  68.933  1.00  0.00     0.090 N  
HETATM   21  C   UNL     1      -6.792  11.413  69.079  1.00  0.00    -0.102 C  
HETATM   22  C   UNL     1      -5.507  12.193  68.849  1.00  0.00    -0.050 C  
HETATM   23  C   UNL     1      -7.931  13.580  69.799  1.00  0.00     1.330 C  
HETATM   24  C   UNL     1      -5.437  13.366  69.814  1.00  0.00    -0.097 C  
HETATM   25  C   UNL     1      -8.095  12.739  67.381  1.00  0.00    -0.185 C  
HETATM   26  C   UNL     1      -6.613  14.291  69.580  1.00  0.00    -0.137 C  
ENDBRANCH   3  20
BRANCH   5  27
HETATM   27  O   UNL     1     -10.750   9.263  71.239  1.00  0.00    -0.299 OA 
BRANCH  27  28
HETATM   28  C   UNL     1     -10.124   8.731  72.319  1.00  0.00    -0.238 C  
HETATM   29  C   UNL     1     -11.155   8.121  73.233  1.00  0.00     0.264 C  
HETATM   30  O   UNL     1      -8.917   8.571  72.399  1.00  0.00    -0.222 OA 
ENDBRANCH  27  28
ENDBRANCH   5  27
BRANCH  10  31
HETATM   31  O   UNL     1     -11.740  17.838  73.051  1.00  0.00     0.839 OA 
BRANCH  31  32
HETATM   32  C   UNL     1     -12.497  16.687  73.313  1.00  0.00    -0.110 C  
HETATM   33  C   UNL     1     -13.410  16.431  72.165  1.00  0.00     0.939 C  
HETATM   34  O   UNL     1     -12.363  15.972  74.299  1.00  0.00    -0.555 OA 
ENDBRANCH  31  32
ENDBRANCH  10  31
BRANCH   9  35
HETATM   35  N   UNL     1      -8.731  18.474  71.097  1.00  0.00     6.069 N  
HETATM   36  C   UNL     1      -8.244  18.749  72.580  1.00  0.00     9.550 C  
HETATM   37  C   UNL     1      -6.531  19.060  69.896  1.00  0.00    -0.137 C  
HETATM   38  C   UNL     1      -7.531  17.968  70.277  1.00  0.00     2.093 C  
HETATM   39  C   UNL     1      -7.215  20.232  69.221  1.00  0.00     0.063 C  
HETATM   40  C   UNL     1      -8.182  20.846  70.212  1.00  0.00     3.195 C  
HETATM   41  C   UNL     1      -9.263  19.832  70.599  1.00  0.00     1.700 C  
ENDBRANCH   9  35
TORSDOF 6
ENDMDL
MODEL      122
REMARK 921   NORMALIZED FREE ENERGY PREDICTED BY IDOCK:   65.60 KCAL/MOL
REMARK 922        TOTAL FREE ENERGY PREDICTED BY IDOCK:   87.02 KCAL/MOL
REMARK 923 INTER-LIGAND FREE ENERGY PREDICTED BY IDOCK:   66.93 KCAL/MOL
REMARK 924 INTRA-LIGAND FREE ENERGY PREDICTED BY IDOCK:   20.09 KCAL/MOL
REMARK 927      BINDING AFFINITY PREDICTED BY RF-SCORE:    0.00 PKD
ROOT
HETATM    1  C   UNL     1      -7.074  12.822  69.564  1.00  0.00     0.277 C  
HETATM    2  C   UNL     1      -7.475  13.964  70.389  1.00  0.00     1.420 C  
HETATM    3  C   UNL     1      -8.842  13.296  70.207  1.00  0.00     4.359 C  
HETATM    4  C   UNL     1      -8.918  14.552  65.060  1.00  0.00     2.420 C  
HETATM    5  C   UNL     1      -8.683  11.824  68.759  1.00  0.00     0.024 C  
HETATM    6  C   UNL     1      -8.503  11.808  70.037  1.00  0.00     2.592 C  
HETATM    7  C   UNL     1      -8.346  15.311  66.299  1.00  0.00     0.164 C  
HETATM    8  C   UNL     1      -9.332  16.631  66.522  1.00  0.00    -0.290 C  
HETATM    9  C   UNL     1      -8.628  18.008  66.682  1.00  0.00    -0.263 C  
HETATM   10  C   UNL     1      -7.575  18.078  65.553  1.00  0.00     0.389 C  
HETATM   11  C   UNL     1      -6.466  17.202  66.156  1.00  0.00    -0.061 C  
HETATM   12  C   UNL     1      -8.411  10.690  71.070  1.00  0.00     3.506 C  
HETATM   13  C   UNL     1     -10.134  12.294  69.014  1.00  0.00     0.117 C  
HETATM   14  C   UNL     1      -6.868  15.714  65.885  1.00  0.00     3.887 C  
HETATM   15  C   UNL     1      -5.753  14.740  66.261  1.00  0.00     4.676 C  
HETATM   16  C   UNL     1      -9.773  13.353  67.575  1.00  0.00    -0.224 C  
HETATM   17  C   UNL     1      -5.796  14.274  67.697  1.00  0.00    -0.012 C  
HETATM   18  C   UNL     1      -8.422  14.300  67.566  1.00  0.00    -0.195 C  
HETATM   19  C   UNL     1      -7.081  13.482  67.946  1.00  0.00    -0.140 C  
ENDROOT
BRANCH   3  20
HETATM   20  N   UNL     1     -10.176  14.404  70.797  1.00  0.00     1.313 N  
HETATM   21  C   UNL     1     -10.565  14.539  72.422  1.00  0.00     2.955 C  
HETATM   22  C   UNL     1     -11.727  15.495  72.647  1.00  0.00    -0.564 C  
HETATM   23  C   UNL     1     -11.435  14.101  70.063  1.00  0.00    -0.193 C  
HETATM   24  C   UNL     1     -12.931  15.043  71.836  1.00  0.00    -0.429 C  
HETATM   25  C   UNL     1      -9.627  15.868  70.501  1.00  0.00     1.130 C  
HETATM   26  C   UNL     1     -12.583  15.041  70.362  1.00  0.00    -0.399 C  
ENDBRANCH   3  20
BRANCH   5  27
HETATM   27  O   UNL     1      -9.207  10.251  68.877  1.00  0.00    -0.156 OA 
BRANCH  27  28
HETATM   28  C   UNL     1      -9.038   9.365  69.891  1.00  0.00    -0.204 C  
HETATM   29  C   UNL     1      -7.857   8.483  69.580  1.00  0.00    -0.097 C  
HETATM   30  O   UNL     1      -9.602   9.444  70.970  1.00  0.00    -0.268 OA 
ENDBRANCH  27  28
ENDBRANCH   5  27
BRANCH  10  31
HETATM   31  O   UNL     1      -7.725  17.584  64.207  1.00  0.00     5.711 OA 
BRANCH  31  32
HETATM   32  C   UNL     1      -9.060  17.285  63.901  1.00  0.00    12.078 C  
HETATM   33  C   UNL     1      -9.556  16.243  64.842  1.00  0.00     1.470 C  
HETATM   34  O   UNL     1      -9.725  17.854  63.044  1.00  0.00    14.538 OA 
ENDBRANCH  31  32
ENDBRANCH  10  31
BRANCH   9  35
HETATM   35  N   UNL     1      -9.578  19.430  66.743  1.00  0.00    -0.326 N  
HETATM   36  C   UNL     1      -8.776  20.631  66.090  1.00  0.00     0.345 C  
HETATM   37  C   UNL     1     -11.953  20.295  66.256  1.00  0.00     2.884 C  
HETATM   38  C   UNL     1     -10.889  19.239  65.960  1.00  0.00    -0.272 C  
HETATM   39  C   UNL     1     -12.205  20.430  67.745  1.00  0.00     3.889 C  
HETATM   40  C   UNL     1     -10.923  20.900  68.399  1.00  0.00     1.283 C  
HETATM   41  C   UNL     1      -9.814  19.861  68.203  1.00  0.00    -0.405 C  
ENDBRANCH   9  35
TORSDOF 6
ENDMDL
MODEL      123
REMARK 921   NORMALIZED FREE ENERGY PREDICTED BY IDOCK:   68.90 KCAL/MOL
REMARK 922        TOTAL FREE ENERGY PREDICTED BY IDOCK:   91.48 KCAL/MOL
REMARK 923 INTER-LIGAND FREE ENERGY PREDICTED BY IDOCK:   60.68 KCAL/MOL
REMARK 924 INTRA-LIGAND FREE ENERGY PREDICTED BY IDOCK:   30.81 KCAL/MOL
REMARK 927      BINDING AFFINITY PREDICTED BY RF-SCORE:    0.00 PKD
ROOT
HETATM    1  C   UNL     1     -12.300  15.652  68.844  1.00  0.00     0.111 C  
HETATM    2  C   UNL     1     -12.014  15.113  70.175  1.00  0.00    -0.374 C  
HETATM    3  C   UNL     1     -10.779  16.002  69.996  1.00  0.00    -0.328 C  
HETATM    4  C   UNL     1      -8.877  12.818  66.211  1.00  0.00     0.126 C  
HETATM    5  C   UNL     1     -10.690  16.638  68.027  1.00  0.00    -0.350 C  
HETATM    6  C   UNL     1     -11.268  17.127  69.073  1.00  0.00     0.295 C  
HETATM    7  C   UNL     1      -9.691  12.509  67.507  1.00  0.00    -0.196 C  
HETATM    8  C   UNL     1      -8.638  11.732  68.534  1.00  0.00    -0.123 C  
HETATM    9  C   UNL     1      -9.138  10.407  69.172  1.00  0.00    -0.187 C  
HETATM   10  C   UNL     1      -9.753   9.586  68.016  1.00  0.00    -0.147 C  
HETATM   11  C   UNL     1     -11.116  10.281  67.878  1.00  0.00    -0.341 C  
HETATM   12  C   UNL     1     -11.854  18.495  69.406  1.00  0.00     5.998 C  
HETATM   13  C   UNL     1      -9.342  16.744  68.779  1.00  0.00    -0.254 C  
HETATM   14  C   UNL     1     -10.880  11.574  67.028  1.00  0.00    -0.320 C  
HETATM   15  C   UNL     1     -12.191  12.259  66.649  1.00  0.00     0.177 C  
HETATM   16  C   UNL     1      -9.061  15.132  67.973  1.00  0.00    -0.180 C  
HETATM   17  C   UNL     1     -12.679  13.266  67.664  1.00  0.00     1.033 C  
HETATM   18  C   UNL     1     -10.177  13.928  68.126  1.00  0.00    -0.249 C  
HETATM   19  C   UNL     1     -11.677  14.416  67.776  1.00  0.00    -0.407 C  
ENDROOT
BRANCH   3  20
HETATM   20  N   UNL     1      -9.550  15.658  71.310  1.00  0.00     2.131 N  
HETATM   21  C   UNL     1      -9.981  15.564  72.927  1.00  0.00     5.646 C  
HETATM   22  C   UNL     1      -8.777  15.303  73.819  1.00  0.00    12.110 C  
HETATM   23  C   UNL     1      -8.426  16.628  71.206  1.00  0.00     7.149 C  
HETATM   24  C   UNL     1      -7.729  16.383  73.598  1.00  0.00    15.337 C  
HETATM   25  C   UNL     1      -9.096  14.158  71.037  1.00  0.00     4.986 C  
HETATM   26  C   UNL     1      -7.275  16.367  72.154  1.00  0.00     8.011 C  
ENDBRANCH   3  20
BRANCH   5  27
HETATM   27  O   UNL     1     -10.476  18.199  67.495  1.00  0.00    -0.380 OA 
BRANCH  27  28
HETATM   28  C   UNL     1     -10.602  19.363  68.181  1.00  0.00    -0.278 C  
HETATM   29  C   UNL     1      -9.664  20.384  67.591  1.00  0.00    -0.540 C  
HETATM   30  O   UNL     1     -11.499  19.595  68.975  1.00  0.00     2.137 OA 
ENDBRANCH  27  28
ENDBRANCH   5  27
BRANCH  10  31
HETATM   31  O   UNL     1      -9.259   9.503  66.663  1.00  0.00    -0.143 OA 
BRANCH  31  32
HETATM   32  C   UNL     1      -8.970  10.767  66.130  1.00  0.00    -0.177 C  
HETATM   33  C   UNL     1      -9.402  10.807  64.705  1.00  0.00    -0.264 C  
HETATM   34  O   UNL     1      -8.507  11.705  66.767  1.00  0.00    -0.169 OA 
ENDBRANCH  31  32
ENDBRANCH  10  31
BRANCH   9  35
HETATM   35  N   UNL     1      -8.053   9.465  70.101  1.00  0.00    -0.138 N  
HETATM   36  C   UNL     1      -6.564   9.918  69.797  1.00  0.00    -0.066 C  
HETATM   37  C   UNL     1      -7.668   8.599  72.495  1.00  0.00    -0.007 C  
HETATM   38  C   UNL     1      -8.321   9.656  71.605  1.00  0.00     1.343 C  
HETATM   39  C   UNL     1      -8.014   7.196  72.039  1.00  0.00    -0.092 C  
HETATM   40  C   UNL     1      -7.457   7.003  70.644  1.00  0.00    -0.085 C  
HETATM   41  C   UNL     1      -8.111   7.987  69.669  1.00  0.00    -0.119 C  
ENDBRANCH   9  35
TORSDOF 6
ENDMDL
MODEL      124
REMARK 921   NORMALIZED FREE ENERGY PREDICTED BY IDOCK:   72.95 KCAL/MOL
REMARK 922        TOTAL FREE ENERGY PREDICTED BY IDOCK:   96.95 KCAL/MOL
REMARK 923 INTER-LIGAND FREE ENERGY PREDICTED BY IDOCK:   92.27 KCAL/MOL
REMARK 924 INTRA-LIGAND FREE ENERGY PREDICTED BY IDOCK:    4.67 KCAL/MOL
REMARK 927      BINDING AFFINITY PREDICTED BY RF-SCORE:    0.00 PKD
ROOT
HETATM    1  C   UNL     1      -9.180  11.765  71.385  1.00  0.00    12.254 C  
HETATM    2  C   UNL     1      -8.997  13.073  72.017  1.00  0.00    18.682 C  
HETATM    3  C   UNL     1     -10.407  13.266  71.451  1.00  0.00     7.167 C  
HETATM    4  C   UNL     1      -8.555  13.279  66.487  1.00  0.00     0.168 C  
HETATM    5  C   UNL     1     -10.833  11.702  70.162  1.00  0.00     0.692 C  
HETATM    6  C   UNL     1     -10.992  11.846  71.434  1.00  0.00     4.469 C  
HETATM    7  C   UNL     1      -7.942  13.818  67.818  1.00  0.00    -0.170 C  
HETATM    8  C   UNL     1      -7.969  15.477  67.695  1.00  0.00    -0.168 C  
HETATM    9  C   UNL     1      -6.643  16.220  68.020  1.00  0.00    -0.134 C  
HETATM   10  C   UNL     1      -5.534  15.458  67.260  1.00  0.00     0.330 C  
HETATM   11  C   UNL     1      -5.335  14.255  68.194  1.00  0.00    -0.120 C  
HETATM   12  C   UNL     1     -11.820  11.106  72.480  1.00  0.00     3.962 C  
HETATM   13  C   UNL     1     -11.730  12.945  69.954  1.00  0.00    -0.324 C  
HETATM   14  C   UNL     1      -6.469  13.230  67.858  1.00  0.00    -0.147 C  
HETATM   15  C   UNL     1      -6.273  11.900  68.580  1.00  0.00    -0.052 C  
HETATM   16  C   UNL     1     -10.497  13.302  68.660  1.00  0.00    -0.242 C  
HETATM   17  C   UNL     1      -6.909  11.839  69.949  1.00  0.00     0.184 C  
HETATM   18  C   UNL     1      -8.889  13.304  69.032  1.00  0.00     0.444 C  
HETATM   19  C   UNL     1      -8.427  11.973  69.822  1.00  0.00     1.961 C  
ENDROOT
BRANCH   3  20
HETATM   20  N   UNL     1     -10.911  15.023  71.579  1.00  0.00     0.050 N  
HETATM   21  C   UNL     1     -10.681  15.913  72.980  1.00  0.00     2.711 C  
HETATM   22  C   UNL     1     -11.213  17.331  72.842  1.00  0.00     1.651 C  
HETATM   23  C   UNL     1     -12.343  15.158  71.197  1.00  0.00    -0.341 C  
HETATM   24  C   UNL     1     -12.683  17.294  72.458  1.00  0.00     3.428 C  
HETATM   25  C   UNL     1      -9.932  15.783  70.581  1.00  0.00     0.736 C  
HETATM   26  C   UNL     1     -12.847  16.584  71.131  1.00  0.00     2.031 C  
ENDBRANCH   3  20
BRANCH   5  27
HETATM   27  O   UNL     1     -12.200  10.756  70.162  1.00  0.00    -0.305 OA 
BRANCH  27  28
HETATM   28  C   UNL     1     -12.308   9.407  70.253  1.00  0.00     0.299 C  
HETATM   29  C   UNL     1     -12.922   9.052  71.583  1.00  0.00    -0.418 C  
HETATM   30  O   UNL     1     -12.156   8.644  69.313  1.00  0.00     1.341 OA 
ENDBRANCH  27  28
ENDBRANCH   5  27
BRANCH  10  31
HETATM   31  O   UNL     1      -5.638  14.874  65.945  1.00  0.00     4.889 OA 
BRANCH  31  32
HETATM   32  C   UNL     1      -6.165  15.775  65.009  1.00  0.00    10.527 C  
HETATM   33  C   UNL     1      -5.413  15.646  63.730  1.00  0.00    15.938 C  
HETATM   34  O   UNL     1      -7.140  16.491  65.200  1.00  0.00     2.412 OA 
ENDBRANCH  31  32
ENDBRANCH  10  31
BRANCH   9  35
HETATM   35  N   UNL     1      -6.544  17.907  67.750  1.00  0.00    -0.187 N  
HETATM   36  C   UNL     1      -6.196  18.642  69.111  1.00  0.00    -0.255 C  
HETATM   37  C   UNL     1      -5.513  19.640  66.149  1.00  0.00    -0.167 C  
HETATM   38  C   UNL     1      -5.437  18.228  66.729  1.00  0.00    -0.140 C  
HETATM   39  C   UNL     1      -6.891  19.942  65.595  1.00  0.00    -0.315 C  
HETATM   40  C   UNL     1      -7.882  19.881  66.738  1.00  0.00    -0.330 C  
HETATM   41  C   UNL     1      -7.917  18.471  67.337  1.00  0.00    -0.239 C  
ENDBRANCH   9  35
TORSDOF 6
ENDMDL
MODEL      125
REMARK 921   NORMALIZED FREE ENERGY PREDICTED BY IDOCK:   74.19 KCAL/MOL
REMARK 922        TOTAL FREE ENERGY PREDICTED BY IDOCK:   98.62 KCAL/MOL
REMARK 923 INTER-LIGAND FREE ENERGY PREDICTED BY IDOCK:   98.44 KCAL/MOL
REMARK 924 INTRA-LIGAND FREE ENERGY PREDICTED BY IDOCK:    0.18 KCAL/MOL
REMARK 927      BINDING AFFINITY PREDICTED BY RF-SCORE:    0.00 PKD
ROOT
HETATM    1  C   UNL     1      -6.250   9.742  66.560  1.00  0.00    -0.068 C  
HETATM    2  C   UNL     1      -6.922   9.064  65.449  1.00  0.00    -0.080 C  
HETATM    3  C   UNL     1      -7.875  10.249  65.630  1.00  0.00    -0.151 C  
HETATM    4  C   UNL     1      -9.546   8.361  70.290  1.00  0.00    -0.170 C  
HETATM    5  C   UNL     1      -7.405  11.226  67.394  1.00  0.00    -0.115 C  
HETATM    6  C   UNL     1      -6.975  11.362  66.185  1.00  0.00     0.150 C  
HETATM    7  C   UNL     1      -9.111   7.634  68.978  1.00  0.00    -0.144 C  
HETATM    8  C   UNL     1     -10.499   6.975  68.340  1.00  0.00    -0.231 C  
HETATM    9  C   UNL     1     -10.436   5.475  67.938  1.00  0.00    -0.178 C  
HETATM   10  C   UNL     1      -9.773   4.745  69.128  1.00  0.00    -0.188 C  
HETATM   11  C   UNL     1      -8.298   5.093  68.878  1.00  0.00    -0.087 C  
HETATM   12  C   UNL     1      -6.202  12.461  65.463  1.00  0.00     4.332 C  
HETATM   13  C   UNL     1      -8.830  11.528  66.874  1.00  0.00    -0.182 C  
HETATM   14  C   UNL     1      -8.070   6.533  69.447  1.00  0.00    -0.119 C  
HETATM   15  C   UNL     1      -6.595   6.926  69.440  1.00  0.00    -0.048 C  
HETATM   16  C   UNL     1      -9.264  10.207  68.053  1.00  0.00    -0.142 C  
HETATM   17  C   UNL     1      -6.136   7.584  68.160  1.00  0.00    -0.036 C  
HETATM   18  C   UNL     1      -8.483   8.755  67.987  1.00  0.00    -0.126 C  
HETATM   19  C   UNL     1      -6.875   8.909  67.964  1.00  0.00    -0.070 C  
ENDROOT
BRANCH   3  20
HETATM   20  N   UNL     1      -9.401   9.995  64.648  1.00  0.00    -0.260 N  
HETATM   21  C   UNL     1      -9.368   9.830  62.981  1.00  0.00    -0.131 C  
HETATM   22  C   UNL     1     -10.765   9.664  62.402  1.00  0.00     3.674 C  
HETATM   23  C   UNL     1     -10.383  11.067  64.969  1.00  0.00    -0.295 C  
HETATM   24  C   UNL     1     -11.636  10.840  62.814  1.00  0.00     1.944 C  
HETATM   25  C   UNL     1      -9.906   8.549  65.079  1.00  0.00     1.406 C  
HETATM   26  C   UNL     1     -11.741  10.895  64.324  1.00  0.00     1.193 C  
ENDBRANCH   3  20
BRANCH   5  27
HETATM   27  O   UNL     1      -7.168  12.859  67.595  1.00  0.00    -0.118 OA 
BRANCH  27  28
HETATM   28  C   UNL     1      -6.473  13.512  68.559  1.00  0.00    -0.090 C  
HETATM   29  C   UNL     1      -6.490  14.990  68.262  1.00  0.00    -0.119 C  
HETATM   30  O   UNL     1      -6.112  13.002  69.607  1.00  0.00    -0.108 OA 
ENDBRANCH  27  28
ENDBRANCH   5  27
BRANCH  10  31
HETATM   31  O   UNL     1      -9.972   5.028  70.528  1.00  0.00    -0.206 OA 
BRANCH  31  32
HETATM   32  C   UNL     1      -9.642   3.933  71.338  1.00  0.00    -0.166 C  
HETATM   33  C   UNL     1      -9.768   2.680  70.542  1.00  0.00    -0.054 C  
HETATM   34  O   UNL     1      -9.241   4.014  72.493  1.00  0.00    -0.111 OA 
ENDBRANCH  31  32
ENDBRANCH  10  31
BRANCH   9  35
HETATM   35  N   UNL     1     -11.868   4.684  67.435  1.00  0.00     5.877 N  
HETATM   36  C   UNL     1     -12.649   4.145  68.705  1.00  0.00    20.413 C  
HETATM   37  C   UNL     1     -13.898   4.976  65.879  1.00  0.00    15.063 C  
HETATM   38  C   UNL     1     -12.787   5.659  66.677  1.00  0.00     9.675 C  
HETATM   39  C   UNL     1     -13.347   3.900  64.965  1.00  0.00    13.818 C  
HETATM   40  C   UNL     1     -12.704   2.834  65.826  1.00  0.00    17.301 C  
HETATM   41  C   UNL     1     -11.531   3.423  66.616  1.00  0.00     7.387 C  
ENDBRANCH   9  35
TORSDOF 6
ENDMDL
MODEL      126
REMARK 921   NORMALIZED FREE ENERGY PREDICTED BY IDOCK:   76.30 KCAL/MOL
REMARK 922        TOTAL FREE ENERGY PREDICTED BY IDOCK:  101.47 KCAL/MOL
REMARK 923 INTER-LIGAND FREE ENERGY PREDICTED BY IDOCK:   79.66 KCAL/MOL
REMARK 924 INTRA-LIGAND FREE ENERGY PREDICTED BY IDOCK:   21.81 KCAL/MOL
REMARK 927      BINDING AFFINITY PREDICTED BY RF-SCORE:    0.00 PKD
ROOT
HETATM    1  C   UNL     1     -12.435  15.701  70.607  1.00  0.00    -0.463 C  
HETATM    2  C   UNL     1     -12.553  14.250  70.767  1.00  0.00    -0.427 C  
HETATM    3  C   UNL     1     -11.084  14.425  71.163  1.00  0.00     0.630 C  
HETATM    4  C   UNL     1      -9.760  15.683  66.189  1.00  0.00    -0.348 C  
HETATM    5  C   UNL     1     -10.484  16.349  70.685  1.00  0.00     0.582 C  
HETATM    6  C   UNL     1     -11.027  15.846  71.742  1.00  0.00     0.231 C  
HETATM    7  C   UNL     1     -10.823  14.689  66.754  1.00  0.00    -0.312 C  
HETATM    8  C   UNL     1     -10.257  13.165  66.401  1.00  0.00    -0.286 C  
HETATM    9  C   UNL     1     -11.257  12.191  65.717  1.00  0.00    -0.339 C  
HETATM   10  C   UNL     1     -11.917  12.996  64.576  1.00  0.00    -0.394 C  
HETATM   11  C   UNL     1     -12.938  13.821  65.374  1.00  0.00    -0.361 C  
HETATM   12  C   UNL     1     -11.177  16.334  73.179  1.00  0.00     1.144 C  
HETATM   13  C   UNL     1      -9.311  15.357  70.870  1.00  0.00     1.865 C  
HETATM   14  C   UNL     1     -12.162  15.039  65.978  1.00  0.00     0.237 C  
HETATM   15  C   UNL     1     -13.100  16.049  66.635  1.00  0.00     4.551 C  
HETATM   16  C   UNL     1      -9.450  15.253  69.055  1.00  0.00    -0.232 C  
HETATM   17  C   UNL     1     -13.384  15.772  68.093  1.00  0.00     4.210 C  
HETATM   18  C   UNL     1     -10.909  14.927  68.357  1.00  0.00    -0.252 C  
HETATM   19  C   UNL     1     -12.092  15.883  68.903  1.00  0.00    -0.065 C  
ENDROOT
BRANCH   3  20
HETATM   20  N   UNL     1     -10.257  12.794  71.281  1.00  0.00     7.516 N  
HETATM   21  C   UNL     1      -9.258  12.215  70.067  1.00  0.00     3.216 C  
HETATM   22  C   UNL     1      -8.724  10.827  70.390  1.00  0.00     1.848 C  
HETATM   23  C   UNL     1     -11.272  11.742  71.561  1.00  0.00     3.682 C  
HETATM   24  C   UNL     1      -9.881   9.875  70.641  1.00  0.00    -0.039 C  
HETATM   25  C   UNL     1      -9.211  12.972  72.467  1.00  0.00    19.802 C  
HETATM   26  C   UNL     1     -10.700  10.364  71.817  1.00  0.00     2.441 C  
ENDBRANCH   3  20
BRANCH   5  27
HETATM   27  O   UNL     1      -9.691  17.419  71.679  1.00  0.00     5.764 OA 
BRANCH  27  28
HETATM   28  C   UNL     1      -9.000  18.541  71.353  1.00  0.00     7.724 C  
HETATM   29  C   UNL     1      -9.968  19.591  70.872  1.00  0.00     1.820 C  
HETATM   30  O   UNL     1      -7.829  18.729  71.636  1.00  0.00     5.495 OA 
ENDBRANCH  27  28
ENDBRANCH   5  27
BRANCH  10  31
HETATM   31  O   UNL     1     -11.272  13.962  63.720  1.00  0.00     0.009 OA 
BRANCH  31  32
HETATM   32  C   UNL     1     -11.176  15.222  64.327  1.00  0.00    -0.028 C  
HETATM   33  C   UNL     1     -11.461  16.276  63.314  1.00  0.00     3.719 C  
HETATM   34  O   UNL     1     -10.967  15.409  65.520  1.00  0.00    -0.336 OA 
ENDBRANCH  31  32
ENDBRANCH  10  31
BRANCH   9  35
HETATM   35  N   UNL     1     -10.699  10.669  65.170  1.00  0.00    -0.119 N  
HETATM   36  C   UNL     1     -11.926   9.812  64.646  1.00  0.00     8.392 C  
HETATM   37  C   UNL     1      -8.875   9.592  63.707  1.00  0.00    -0.257 C  
HETATM   38  C   UNL     1      -9.698  10.843  64.014  1.00  0.00    -0.301 C  
HETATM   39  C   UNL     1      -8.202   9.049  64.952  1.00  0.00    -0.154 C  
HETATM   40  C   UNL     1      -9.283   8.636  65.930  1.00  0.00    -0.264 C  
HETATM   41  C   UNL     1     -10.120   9.852  66.342  1.00  0.00    -0.240 C  
ENDBRANCH   9  35
TORSDOF 6
ENDMDL
MODEL      127
REMARK 921   NORMALIZED FREE ENERGY PREDICTED BY IDOCK:   78.70 KCAL/MOL
REMARK 922        TOTAL FREE ENERGY PREDICTED BY IDOCK:  104.72 KCAL/MOL
REMARK 923 INTER-LIGAND FREE ENERGY PREDICTED BY IDOCK:   93.57 KCAL/MOL
REMARK 924 INTRA-LIGAND FREE ENERGY PREDICTED BY IDOCK:   11.15 KCAL/MOL
REMARK 927      BINDING AFFINITY PREDICTED BY RF-SCORE:    0.00 PKD
ROOT
HETATM    1  C   UNL     1      -8.827  11.380  68.285  1.00  0.00    -0.167 C  
HETATM    2  C   UNL     1     -10.126  11.730  68.864  1.00  0.00    -0.088 C  
HETATM    3  C   UNL     1     -10.217  12.518  67.554  1.00  0.00    -0.217 C  
HETATM    4  C   UNL     1      -6.452  15.882  69.161  1.00  0.00    -0.152 C  
HETATM    5  C   UNL     1      -8.356  12.531  66.646  1.00  0.00     0.047 C  
HETATM    6  C   UNL     1      -9.350  11.710  66.578  1.00  0.00    -0.216 C  
HETATM    7  C   UNL     1      -7.578  15.141  69.949  1.00  0.00     0.003 C  
HETATM    8  C   UNL     1      -8.666  16.314  70.405  1.00  0.00     2.164 C  
HETATM    9  C   UNL     1      -9.089  16.327  71.900  1.00  0.00     8.305 C  
HETATM   10  C   UNL     1      -7.780  16.203  72.712  1.00  0.00    13.010 C  
HETATM   11  C   UNL     1      -7.515  14.695  72.581  1.00  0.00     4.980 C  
HETATM   12  C   UNL     1      -9.729  10.598  65.606  1.00  0.00    -0.283 C  
HETATM   13  C   UNL     1      -9.302  13.647  66.145  1.00  0.00    -0.093 C  
HETATM   14  C   UNL     1      -6.841  14.475  71.186  1.00  0.00     0.907 C  
HETATM   15  C   UNL     1      -6.345  13.042  71.008  1.00  0.00     0.990 C  
HETATM   16  C   UNL     1      -8.391  14.623  67.385  1.00  0.00    -0.223 C  
HETATM   17  C   UNL     1      -7.373  12.099  70.429  1.00  0.00     2.478 C  
HETATM   18  C   UNL     1      -8.258  14.072  68.934  1.00  0.00     0.022 C  
HETATM   19  C   UNL     1      -7.744  12.542  69.013  1.00  0.00     0.186 C  
ENDROOT
BRANCH   3  20
HETATM   20  N   UNL     1     -11.656  13.652  67.591  1.00  0.00    -0.325 N  
HETATM   21  C   UNL     1     -11.668  15.101  66.750  1.00  0.00    -0.070 C  
HETATM   22  C   UNL     1     -12.960  15.872  66.971  1.00  0.00     3.697 C  
HETATM   23  C   UNL     1     -12.013  13.956  69.004  1.00  0.00    -0.364 C  
HETATM   24  C   UNL     1     -13.172  16.106  68.458  1.00  0.00     3.607 C  
HETATM   25  C   UNL     1     -12.801  12.855  66.825  1.00  0.00     1.456 C  
HETATM   26  C   UNL     1     -13.272  14.777  69.175  1.00  0.00     1.738 C  
ENDBRANCH   3  20
BRANCH   5  27
HETATM   27  O   UNL     1      -8.019  12.153  65.063  1.00  0.00     1.840 OA 
BRANCH  27  28
HETATM   28  C   UNL     1      -7.925  10.934  64.474  1.00  0.00     0.311 C  
HETATM   29  C   UNL     1      -6.472  10.542  64.385  1.00  0.00     0.051 C  
HETATM   30  O   UNL     1      -8.875  10.193  64.279  1.00  0.00    -0.185 OA 
ENDBRANCH  27  28
ENDBRANCH   5  27
BRANCH  10  31
HETATM   31  O   UNL     1      -6.512  16.815  72.397  1.00  0.00     3.747 OA 
BRANCH  31  32
HETATM   32  C   UNL     1      -6.653  17.890  71.509  1.00  0.00     3.490 C  
HETATM   33  C   UNL     1      -5.790  17.657  70.318  1.00  0.00    -0.128 C  
HETATM   34  O   UNL     1      -7.426  18.828  71.663  1.00  0.00     4.329 OA 
ENDBRANCH  31  32
ENDBRANCH  10  31
BRANCH   9  35
HETATM   35  N   UNL     1     -10.068  17.605  72.480  1.00  0.00     6.559 N  
HETATM   36  C   UNL     1     -11.151  17.029  73.485  1.00  0.00     2.384 C  
HETATM   37  C   UNL     1      -9.918  19.981  73.459  1.00  0.00     4.714 C  
HETATM   38  C   UNL     1      -9.214  18.644  73.229  1.00  0.00     8.681 C  
HETATM   39  C   UNL     1     -10.479  20.544  72.169  1.00  0.00     5.129 C  
HETATM   40  C   UNL     1     -11.525  19.580  71.650  1.00  0.00     8.221 C  
HETATM   41  C   UNL     1     -10.887  18.224  71.331  1.00  0.00     3.034 C  
ENDBRANCH   9  35
TORSDOF 6
ENDMDL
MODEL      128
REMARK 921   NORMALIZED FREE ENERGY PREDICTED BY IDOCK:   83.67 KCAL/MOL
REMARK 922        TOTAL FREE ENERGY PREDICTED BY IDOCK:  111.43 KCAL/MOL
REMARK 923 INTER-LIGAND FREE ENERGY PREDICTED BY IDOCK:  103.46 KCAL/MOL
REMARK 924 INTRA-LIGAND FREE ENERGY PREDICTED BY IDOCK:    7.97 KCAL/MOL
REMARK 927      BINDING AFFINITY PREDICTED BY RF-SCORE:    0.00 PKD
ROOT
HETATM    1  C   UNL     1     -11.521   9.924  70.595  1.00  0.00    -0.411 C  
HETATM    2  C   UNL     1     -12.175   9.956  69.285  1.00  0.00     0.670 C  
HETATM    3  C   UNL     1     -10.950   9.108  68.931  1.00  0.00     0.017 C  
HETATM    4  C   UNL     1      -7.728  13.270  69.545  1.00  0.00     0.737 C  
HETATM    5  C   UNL     1      -9.606   9.179  70.505  1.00  0.00    -0.243 C  
HETATM    6  C   UNL     1     -10.601   8.399  70.248  1.00  0.00    -0.234 C  
HETATM    7  C   UNL     1      -9.190  13.167  69.006  1.00  0.00     0.453 C  
HETATM    8  C   UNL     1      -9.099  13.478  67.375  1.00  0.00    -0.219 C  
HETATM    9  C   UNL     1     -10.090  14.533  66.810  1.00  0.00    -0.264 C  
HETATM   10  C   UNL     1     -10.023  15.736  67.778  1.00  0.00    -0.227 C  
HETATM   11  C   UNL     1     -10.901  15.216  68.927  1.00  0.00    -0.241 C  
HETATM   12  C   UNL     1     -11.035   7.039  70.783  1.00  0.00    -0.285 C  
HETATM   13  C   UNL     1      -8.973   8.740  69.164  1.00  0.00    -0.137 C  
HETATM   14  C   UNL     1      -9.997  14.281  69.798  1.00  0.00     0.532 C  
HETATM   15  C   UNL     1     -10.691  13.850  71.087  1.00  0.00     2.660 C  
HETATM   16  C   UNL     1      -8.539  10.508  69.084  1.00  0.00    -0.157 C  
HETATM   17  C   UNL     1     -11.512  12.589  70.955  1.00  0.00     1.576 C  
HETATM   18  C   UNL     1      -9.707  11.655  69.288  1.00  0.00     0.330 C  
HETATM   19  C   UNL     1     -10.600  11.410  70.612  1.00  0.00     2.058 C  
ENDROOT
BRANCH   3  20
HETATM   20  N   UNL     1     -10.819   8.904  67.115  1.00  0.00    -0.123 N  
HETATM   21  C   UNL     1     -11.186  10.146  66.053  1.00  0.00     0.828 C  
HETATM   22  C   UNL     1     -11.031   9.715  64.602  1.00  0.00     3.732 C  
HETATM   23  C   UNL     1     -11.603   7.711  66.691  1.00  0.00     2.785 C  
HETATM   24  C   UNL     1     -11.898   8.496  64.332  1.00  0.00    16.916 C  
HETATM   25  C   UNL     1      -9.258   8.740  66.852  1.00  0.00    -0.156 C  
HETATM   26  C   UNL     1     -11.467   7.353  65.227  1.00  0.00     8.775 C  
ENDBRANCH   3  20
BRANCH   5  27
HETATM   27  O   UNL     1      -8.865   7.885  71.240  1.00  0.00    -0.129 OA 
BRANCH  27  28
HETATM   28  C   UNL     1      -8.326   6.774  70.678  1.00  0.00    -0.129 C  
HETATM   29  C   UNL     1      -8.084   5.748  71.755  1.00  0.00    -0.118 C  
HETATM   30  O   UNL     1      -8.280   6.569  69.476  1.00  0.00    -0.122 OA 
ENDBRANCH  27  28
ENDBRANCH   5  27
BRANCH  10  31
HETATM   31  O   UNL     1      -8.845  16.247  68.434  1.00  0.00    -0.189 OA 
BRANCH  31  32
HETATM   32  C   UNL     1      -9.146  16.846  69.665  1.00  0.00     0.603 C  
HETATM   33  C   UNL     1      -8.747  15.928  70.767  1.00  0.00     2.756 C  
HETATM   34  O   UNL     1      -9.593  17.979  69.800  1.00  0.00     0.491 OA 
ENDBRANCH  31  32
ENDBRANCH  10  31
BRANCH   9  35
HETATM   35  N   UNL     1      -9.942  15.031  65.179  1.00  0.00    -0.301 N  
HETATM   36  C   UNL     1     -11.271  14.671  64.393  1.00  0.00    -0.177 C  
HETATM   37  C   UNL     1      -9.218  17.036  63.736  1.00  0.00    12.343 C  
HETATM   38  C   UNL     1      -9.724  16.552  65.095  1.00  0.00     0.796 C  
HETATM   39  C   UNL     1      -7.988  16.269  63.295  1.00  0.00    23.209 C  
HETATM   40  C   UNL     1      -8.373  14.814  63.129  1.00  0.00    19.987 C  
HETATM   41  C   UNL     1      -8.834  14.230  64.468  1.00  0.00     5.070 C  
ENDBRANCH   9  35
TORSDOF 6
ENDMDL
MODEL      129
REMARK 921   NORMALIZED FREE ENERGY PREDICTED BY IDOCK:   86.44 KCAL/MOL
REMARK 922        TOTAL FREE ENERGY PREDICTED BY IDOCK:  115.16 KCAL/MOL
REMARK 923 INTER-LIGAND FREE ENERGY PREDICTED BY IDOCK:  114.53 KCAL/MOL
REMARK 924 INTRA-LIGAND FREE ENERGY PREDICTED BY IDOCK:    0.63 KCAL/MOL
REMARK 927      BINDING AFFINITY PREDICTED BY RF-SCORE:    0.00 PKD
ROOT
HETATM    1  C   UNL     1      -9.962  12.041  65.116  1.00  0.00    -0.265 C  
HETATM    2  C   UNL     1      -8.866  12.039  66.086  1.00  0.00    -0.018 C  
HETATM    3  C   UNL     1      -9.977  11.457  66.966  1.00  0.00    -0.201 C  
HETATM    4  C   UNL     1     -12.546  16.091  67.012  1.00  0.00     2.608 C  
HETATM    5  C   UNL     1     -11.789  11.669  65.986  1.00  0.00     0.286 C  
HETATM    6  C   UNL     1     -10.896  10.738  65.967  1.00  0.00    -0.102 C  
HETATM    7  C   UNL     1     -11.021  15.757  66.998  1.00  0.00    -0.221 C  
HETATM    8  C   UNL     1     -10.444  16.188  68.497  1.00  0.00    -0.269 C  
HETATM    9  C   UNL     1      -9.171  17.078  68.523  1.00  0.00    -0.266 C  
HETATM   10  C   UNL     1      -9.421  18.205  67.496  1.00  0.00    -0.262 C  
HETATM   11  C   UNL     1      -9.127  17.456  66.187  1.00  0.00    -0.177 C  
HETATM   12  C   UNL     1     -10.899   9.288  65.495  1.00  0.00     2.180 C  
HETATM   13  C   UNL     1     -11.926  11.445  67.510  1.00  0.00     0.080 C  
HETATM   14  C   UNL     1     -10.419  16.647  65.830  1.00  0.00    -0.324 C  
HETATM   15  C   UNL     1     -10.333  16.010  64.446  1.00  0.00     1.244 C  
HETATM   16  C   UNL     1     -12.035  13.265  67.509  1.00  0.00    -0.371 C  
HETATM   17  C   UNL     1      -9.717  14.630  64.437  1.00  0.00     1.798 C  
HETATM   18  C   UNL     1     -10.876  14.160  66.749  1.00  0.00    -0.296 C  
HETATM   19  C   UNL     1     -10.594  13.666  65.237  1.00  0.00    -0.354 C  
ENDROOT
BRANCH   3  20
HETATM   20  N   UNL     1      -9.442  11.403  68.717  1.00  0.00    -0.161 N  
HETATM   21  C   UNL     1     -10.097  10.318  69.813  1.00  0.00    -0.244 C  
HETATM   22  C   UNL     1      -9.510  10.498  71.205  1.00  0.00     3.780 C  
HETATM   23  C   UNL     1      -9.558  12.762  69.314  1.00  0.00     0.816 C  
HETATM   24  C   UNL     1      -9.717  11.930  71.670  1.00  0.00    13.334 C  
HETATM   25  C   UNL     1      -7.938  10.886  68.650  1.00  0.00    -0.140 C  
HETATM   26  C   UNL     1      -9.017  12.882  70.722  1.00  0.00     8.638 C  
ENDBRANCH   3  20
BRANCH   5  27
HETATM   27  O   UNL     1     -12.933  10.488  65.743  1.00  0.00     6.669 OA 
BRANCH  27  28
HETATM   28  C   UNL     1     -13.395   9.969  64.578  1.00  0.00    12.544 C  
HETATM   29  C   UNL     1     -13.906  11.090  63.710  1.00  0.00     3.840 C  
HETATM   30  O   UNL     1     -13.200   8.820  64.216  1.00  0.00    17.537 OA 
ENDBRANCH  27  28
ENDBRANCH   5  27
BRANCH  10  31
HETATM   31  O   UNL     1     -10.671  18.879  67.247  1.00  0.00    -0.445 OA 
BRANCH  31  32
HETATM   32  C   UNL     1     -10.481  20.162  66.715  1.00  0.00    -0.309 C  
HETATM   33  C   UNL     1     -10.753  20.130  65.251  1.00  0.00     0.045 C  
HETATM   34  O   UNL     1     -10.212  21.159  67.375  1.00  0.00     0.066 OA 
ENDBRANCH  31  32
ENDBRANCH  10  31
BRANCH   9  35
HETATM   35  N   UNL     1      -8.618  17.703  70.018  1.00  0.00     1.804 N  
HETATM   36  C   UNL     1      -8.573  19.286  69.946  1.00  0.00     0.912 C  
HETATM   37  C   UNL     1      -8.981  17.482  72.557  1.00  0.00    15.162 C  
HETATM   38  C   UNL     1      -9.569  17.296  71.158  1.00  0.00     5.397 C  
HETATM   39  C   UNL     1      -7.629  16.810  72.688  1.00  0.00    13.750 C  
HETATM   40  C   UNL     1      -6.676  17.475  71.717  1.00  0.00     4.892 C  
HETATM   41  C   UNL     1      -7.160  17.278  70.277  1.00  0.00     1.574 C  
ENDBRANCH   9  35
TORSDOF 6
ENDMDL
MODEL      130
REMARK 921   NORMALIZED FREE ENERGY PREDICTED BY IDOCK:   90.74 KCAL/MOL
REMARK 922        TOTAL FREE ENERGY PREDICTED BY IDOCK:  120.98 KCAL/MOL
REMARK 923 INTER-LIGAND FREE ENERGY PREDICTED BY IDOCK:  112.59 KCAL/MOL
REMARK 924 INTRA-LIGAND FREE ENERGY PREDICTED BY IDOCK:    8.39 KCAL/MOL
REMARK 927      BINDING AFFINITY PREDICTED BY RF-SCORE:    0.00 PKD
ROOT
HETATM    1  C   UNL     1      -8.349   9.536  70.401  1.00  0.00    -0.226 C  
HETATM    2  C   UNL     1      -9.750   9.911  70.194  1.00  0.00    -0.255 C  
HETATM    3  C   UNL     1      -9.948   8.725  71.143  1.00  0.00    -0.248 C  
HETATM    4  C   UNL     1      -8.328   5.314  67.427  1.00  0.00    -0.106 C  
HETATM    5  C   UNL     1      -8.149   7.720  71.346  1.00  0.00    -0.099 C  
HETATM    6  C   UNL     1      -8.666   8.713  71.987  1.00  0.00    -0.235 C  
HETATM    7  C   UNL     1      -9.141   6.643  67.323  1.00  0.00    -0.119 C  
HETATM    8  C   UNL     1     -10.687   6.201  66.897  1.00  0.00    -0.413 C  
HETATM    9  C   UNL     1     -11.321   6.957  65.697  1.00  0.00     4.686 C  
HETATM   10  C   UNL     1     -10.244   6.971  64.588  1.00  0.00     5.042 C  
HETATM   11  C   UNL     1      -9.339   8.103  65.096  1.00  0.00     0.557 C  
HETATM   12  C   UNL     1      -8.359   9.370  73.329  1.00  0.00     2.454 C  
HETATM   13  C   UNL     1      -9.384   6.878  71.746  1.00  0.00    -0.147 C  
HETATM   14  C   UNL     1      -8.410   7.482  66.192  1.00  0.00    -0.138 C  
HETATM   15  C   UNL     1      -7.324   8.455  66.644  1.00  0.00    -0.082 C  
HETATM   16  C   UNL     1      -9.205   6.272  70.036  1.00  0.00    -0.157 C  
HETATM   17  C   UNL     1      -7.732   9.349  67.791  1.00  0.00    -0.088 C  
HETATM   18  C   UNL     1      -9.113   7.345  68.786  1.00  0.00    -0.131 C  
HETATM   19  C   UNL     1      -8.012   8.502  69.034  1.00  0.00    -0.113 C  
ENDROOT
BRANCH   3  20
HETATM   20  N   UNL     1     -11.718   8.257  71.217  1.00  0.00    -0.279 N  
HETATM   21  C   UNL     1     -12.586   8.288  72.650  1.00  0.00    -0.178 C  
HETATM   22  C   UNL     1     -14.021   7.824  72.451  1.00  0.00     0.018 C  
HETATM   23  C   UNL     1     -11.900   6.907  70.616  1.00  0.00    -0.368 C  
HETATM   24  C   UNL     1     -14.032   6.432  71.839  1.00  0.00     0.230 C  
HETATM   25  C   UNL     1     -12.459   9.402  70.396  1.00  0.00     0.245 C  
HETATM   26  C   UNL     1     -13.341   6.460  70.492  1.00  0.00     2.121 C  
ENDBRANCH   3  20
BRANCH   5  27
HETATM   27  O   UNL     1      -7.419   7.263  72.768  1.00  0.00    -0.075 OA 
BRANCH  27  28
HETATM   28  C   UNL     1      -6.429   7.881  73.460  1.00  0.00    -0.089 C  
HETATM   29  C   UNL     1      -6.138   9.213  72.816  1.00  0.00     0.102 C  
HETATM   30  O   UNL     1      -6.027   7.515  74.552  1.00  0.00    -0.079 OA 
ENDBRANCH  27  28
ENDBRANCH   5  27
BRANCH  10  31
HETATM   31  O   UNL     1      -9.330   5.903  64.266  1.00  0.00     0.670 OA 
BRANCH  31  32
HETATM   32  C   UNL     1      -8.129   6.384  63.724  1.00  0.00    -0.034 C  
HETATM   33  C   UNL     1      -7.035   6.194  64.716  1.00  0.00    -0.055 C  
HETATM   34  O   UNL     1      -8.000   6.816  62.585  1.00  0.00    -0.108 OA 
ENDBRANCH  31  32
ENDBRANCH  10  31
BRANCH   9  35
HETATM   35  N   UNL     1     -12.837   6.443  65.092  1.00  0.00     8.145 N  
HETATM   36  C   UNL     1     -13.990   7.318  65.739  1.00  0.00    18.672 C  
HETATM   37  C   UNL     1     -14.042   5.855  62.894  1.00  0.00    12.622 C  
HETATM   38  C   UNL     1     -12.897   6.615  63.563  1.00  0.00    14.777 C  
HETATM   39  C   UNL     1     -14.049   4.393  63.294  1.00  0.00    20.926 C  
HETATM   40  C   UNL     1     -14.282   4.314  64.788  1.00  0.00    16.714 C  
HETATM   41  C   UNL     1     -13.138   5.000  65.542  1.00  0.00     8.427 C  
ENDBRANCH   9  35
TORSDOF 6
ENDMDL
MODEL      131
REMARK 921   NORMALIZED FREE ENERGY PREDICTED BY IDOCK:   92.48 KCAL/MOL
REMARK 922        TOTAL FREE ENERGY PREDICTED BY IDOCK:  123.32 KCAL/MOL
REMARK 923 INTER-LIGAND FREE ENERGY PREDICTED BY IDOCK:  118.54 KCAL/MOL
REMARK 924 INTRA-LIGAND FREE ENERGY PREDICTED BY IDOCK:    4.79 KCAL/MOL
REMARK 927      BINDING AFFINITY PREDICTED BY RF-SCORE:    0.00 PKD
ROOT
HETATM    1  C   UNL     1     -11.260  16.161  73.547  1.00  0.00     1.434 C  
HETATM    2  C   UNL     1      -9.853  15.828  73.318  1.00  0.00     8.102 C  
HETATM    3  C   UNL     1      -9.996  16.993  72.333  1.00  0.00     7.872 C  
HETATM    4  C   UNL     1     -13.160  14.125  69.196  1.00  0.00     1.607 C  
HETATM    5  C   UNL     1     -12.002  17.467  72.141  1.00  0.00     2.857 C  
HETATM    6  C   UNL     1     -11.090  17.870  72.959  1.00  0.00     2.329 C  
HETATM    7  C   UNL     1     -11.934  13.719  70.075  1.00  0.00    -0.407 C  
HETATM    8  C   UNL     1     -10.716  13.335  69.010  1.00  0.00    -0.156 C  
HETATM    9  C   UNL     1      -9.989  11.981  69.243  1.00  0.00     0.425 C  
HETATM   10  C   UNL     1     -11.104  10.935  69.469  1.00  0.00    -0.268 C  
HETATM   11  C   UNL     1     -11.469  11.233  70.931  1.00  0.00     0.435 C  
HETATM   12  C   UNL     1     -10.981  19.058  73.910  1.00  0.00     3.285 C  
HETATM   13  C   UNL     1     -11.124  17.985  70.978  1.00  0.00     2.853 C  
HETATM   14  C   UNL     1     -12.431  12.468  70.914  1.00  0.00    -0.361 C  
HETATM   15  C   UNL     1     -13.028  12.750  72.291  1.00  0.00    -0.289 C  
HETATM   16  C   UNL     1     -11.704  16.445  70.193  1.00  0.00     0.096 C  
HETATM   17  C   UNL     1     -12.194  13.672  73.150  1.00  0.00     1.209 C  
HETATM   18  C   UNL     1     -11.539  15.005  70.981  1.00  0.00    -0.367 C  
HETATM   19  C   UNL     1     -12.105  15.050  72.494  1.00  0.00    -0.439 C  
ENDROOT
BRANCH   3  20
HETATM   20  N   UNL     1      -8.523  17.094  71.248  1.00  0.00     7.556 N  
HETATM   21  C   UNL     1      -6.967  17.171  71.866  1.00  0.00     6.679 C  
HETATM   22  C   UNL     1      -5.926  17.282  70.763  1.00  0.00     0.550 C  
HETATM   23  C   UNL     1      -8.681  18.233  70.301  1.00  0.00     2.893 C  
HETATM   24  C   UNL     1      -6.225  18.494  69.894  1.00  0.00    -0.160 C  
HETATM   25  C   UNL     1      -8.482  15.684  70.513  1.00  0.00     1.706 C  
HETATM   26  C   UNL     1      -7.590  18.342  69.258  1.00  0.00     0.014 C  
ENDBRANCH   3  20
BRANCH   5  27
HETATM   27  O   UNL     1     -12.683  18.980  72.256  1.00  0.00    13.368 OA 
BRANCH  27  28
HETATM   28  C   UNL     1     -12.711  19.978  71.338  1.00  0.00    20.952 C  
HETATM   29  C   UNL     1     -13.989  20.761  71.503  1.00  0.00    21.752 C  
HETATM   30  O   UNL     1     -11.751  20.318  70.667  1.00  0.00     5.237 OA 
ENDBRANCH  27  28
ENDBRANCH   5  27
BRANCH  10  31
HETATM   31  O   UNL     1     -12.376  10.875  68.791  1.00  0.00    -0.495 OA 
BRANCH  31  32
HETATM   32  C   UNL     1     -13.222   9.903  69.344  1.00  0.00     2.518 C  
HETATM   33  C   UNL     1     -12.861   9.698  70.774  1.00  0.00    -0.171 C  
HETATM   34  O   UNL     1     -14.155   9.373  68.755  1.00  0.00     6.724 OA 
ENDBRANCH  31  32
ENDBRANCH  10  31
BRANCH   9  35
HETATM   35  N   UNL     1      -8.844  11.438  68.092  1.00  0.00    -0.155 N  
HETATM   36  C   UNL     1      -9.374  11.750  66.631  1.00  0.00    -0.198 C  
HETATM   37  C   UNL     1      -6.325  11.495  67.567  1.00  0.00    -0.076 C  
HETATM   38  C   UNL     1      -7.499  12.160  68.286  1.00  0.00    -0.107 C  
HETATM   39  C   UNL     1      -6.224  10.022  67.908  1.00  0.00    -0.057 C  
HETATM   40  C   UNL     1      -7.484   9.338  67.420  1.00  0.00    -0.087 C  
HETATM   41  C   UNL     1      -8.710   9.904  68.143  1.00  0.00    -0.122 C  
ENDBRANCH   9  35
TORSDOF 6
ENDMDL
MODEL      132
REMARK 921   NORMALIZED FREE ENERGY PREDICTED BY IDOCK:  106.66 KCAL/MOL
REMARK 922        TOTAL FREE ENERGY PREDICTED BY IDOCK:  142.48 KCAL/MOL
REMARK 923 INTER-LIGAND FREE ENERGY PREDICTED BY IDOCK:  133.61 KCAL/MOL
REMARK 924 INTRA-LIGAND FREE ENERGY PREDICTED BY IDOCK:    8.87 KCAL/MOL
REMARK 927      BINDING AFFINITY PREDICTED BY RF-SCORE:    0.00 PKD
ROOT
HETATM    1  C   UNL     1      -7.116  13.963  69.744  1.00  0.00     0.223 C  
HETATM    2  C   UNL     1      -8.467  14.271  69.272  1.00  0.00     0.243 C  
HETATM    3  C   UNL     1      -8.817  13.574  70.591  1.00  0.00     5.747 C  
HETATM    4  C   UNL     1      -7.170   8.903  68.708  1.00  0.00    -0.075 C  
HETATM    5  C   UNL     1      -7.112  12.673  71.346  1.00  0.00     5.440 C  
HETATM    6  C   UNL     1      -7.604  13.857  71.488  1.00  0.00     4.982 C  
HETATM    7  C   UNL     1      -7.879  10.105  68.008  1.00  0.00    -0.096 C  
HETATM    8  C   UNL     1      -9.417   9.583  67.648  1.00  0.00    -0.153 C  
HETATM    9  C   UNL     1      -9.907   9.815  66.191  1.00  0.00    -0.263 C  
HETATM   10  C   UNL     1      -8.754   9.345  65.277  1.00  0.00    -0.175 C  
HETATM   11  C   UNL     1      -7.811  10.554  65.377  1.00  0.00    -0.119 C  
HETATM   12  C   UNL     1      -7.352  14.987  72.481  1.00  0.00     4.715 C  
HETATM   13  C   UNL     1      -8.428  12.106  71.929  1.00  0.00    17.464 C  
HETATM   14  C   UNL     1      -7.011  10.394  66.712  1.00  0.00    -0.103 C  
HETATM   15  C   UNL     1      -5.896  11.428  66.841  1.00  0.00    -0.121 C  
HETATM   16  C   UNL     1      -8.167  10.858  70.625  1.00  0.00     2.829 C  
HETATM   17  C   UNL     1      -6.324  12.721  67.494  1.00  0.00    -0.162 C  
HETATM   18  C   UNL     1      -7.909  11.335  69.067  1.00  0.00    -0.079 C  
HETATM   19  C   UNL     1      -6.752  12.455  68.938  1.00  0.00    -0.098 C  
ENDROOT
BRANCH   3  20
HETATM   20  N   UNL     1     -10.616  13.236  70.676  1.00  0.00     2.493 N  
HETATM   21  C   UNL     1     -11.559  13.095  69.298  1.00  0.00    -0.370 C  
HETATM   22  C   UNL     1     -13.021  12.848  69.638  1.00  0.00     1.057 C  
HETATM   23  C   UNL     1     -11.269  14.240  71.560  1.00  0.00     1.080 C  
HETATM   24  C   UNL     1     -13.536  13.961  70.536  1.00  0.00     0.354 C  
HETATM   25  C   UNL     1     -10.708  11.756  71.252  1.00  0.00     4.958 C  
HETATM   26  C   UNL     1     -12.738  13.990  71.823  1.00  0.00    -0.406 C  
ENDBRANCH   3  20
BRANCH   5  27
HETATM   27  O   UNL     1      -6.522  12.802  72.895  1.00  0.00     2.796 OA 
BRANCH  27  28
HETATM   28  C   UNL     1      -6.551  13.865  73.738  1.00  0.00     2.011 C  
HETATM   29  C   UNL     1      -5.210  14.552  73.707  1.00  0.00    -0.079 C  
HETATM   30  O   UNL     1      -7.569  14.313  74.238  1.00  0.00     3.318 OA 
ENDBRANCH  27  28
ENDBRANCH   5  27
BRANCH  10  31
HETATM   31  O   UNL     1      -7.895   8.207  65.493  1.00  0.00    -0.093 OA 
BRANCH  31  32
HETATM   32  C   UNL     1      -7.496   7.611  64.288  1.00  0.00    -0.101 C  
HETATM   33  C   UNL     1      -7.781   8.545  63.163  1.00  0.00    -0.133 C  
HETATM   34  O   UNL     1      -6.932   6.528  64.197  1.00  0.00    -0.044 OA 
ENDBRANCH  31  32
ENDBRANCH  10  31
BRANCH   9  35
HETATM   35  N   UNL     1     -11.407   9.154  65.700  1.00  0.00     3.622 N  
HETATM   36  C   UNL     1     -12.315  10.299  65.086  1.00  0.00     6.689 C  
HETATM   37  C   UNL     1     -12.412   7.177  64.392  1.00  0.00    18.020 C  
HETATM   38  C   UNL     1     -11.196   8.073  64.624  1.00  0.00    12.192 C  
HETATM   39  C   UNL     1     -12.923   6.583  65.689  1.00  0.00     9.971 C  
HETATM   40  C   UNL     1     -13.377   7.720  66.581  1.00  0.00    18.333 C  
HETATM   41  C   UNL     1     -12.195   8.635  66.918  1.00  0.00     7.742 C  
ENDBRANCH   9  35
TORSDOF 6
ENDMDL
